
     RDKit          3D

 29 30  0  0  0  0  0  0  0  0999 V2000
    0.5080    1.9918    0.6569 O   0  0  0  0  0  0  0  0  0  0  0  0
    0.8177    0.8709    0.2646 C   0  0  0  0  0  0  0  0  0  0  0  0
   -0.0720   -0.1373   -0.0439 N   0  0  0  0  0  0  0  0  0  0  0  0
   -1.4849   -0.1178    0.0165 C   0  0  0  0  0  0  0  0  0  0  0  0
   -2.2165    1.0031    0.4249 C   0  0  0  0  0  0  0  0  0  0  0  0
   -3.6161    0.9713    0.4673 C   0  0  0  0  0  0  0  0  0  0  0  0
   -4.2959   -0.1937    0.0976 C   0  0  0  0  0  0  0  0  0  0  0  0
   -5.7625   -0.2282    0.1417 N   0  0  0  0  0  4  0  0  0  0  0  0
   -6.3223   -1.2812   -0.1945 O   0  0  0  0  0  0  0  0  0  0  0  0
   -6.3531    0.7957    0.5118 O   0  0  0  0  0  1  0  0  0  0  0  0
   -3.5885   -1.3266   -0.3139 C   0  0  0  0  0  0  0  0  0  0  0  0
   -2.1918   -1.2814   -0.3517 C   0  0  0  0  0  0  0  0  0  0  0  0
   -1.3586   -2.7098   -0.8684 Cl  0  0  0  0  0  0  0  0  0  0  0  0
    2.2776    0.5514    0.1006 C   0  0  0  0  0  0  0  0  0  0  0  0
    3.1918    1.5731    0.4127 C   0  0  0  0  0  0  0  0  0  0  0  0
    4.5632    1.3587    0.2877 C   0  0  0  0  0  0  0  0  0  0  0  0
    5.6666    2.6206    0.6742 Cl  0  0  0  0  0  0  0  0  0  0  0  0
    5.0494    0.1292   -0.1482 C   0  0  0  0  0  0  0  0  0  0  0  0
    4.1580   -0.8965   -0.4625 C   0  0  0  0  0  0  0  0  0  0  0  0
    2.7807   -0.6857   -0.3385 C   0  0  0  0  0  0  0  0  0  0  0  0
    1.9324   -1.7136   -0.6552 O   0  0  0  0  0  0  0  0  0  0  0  0
    0.3414   -1.0162   -0.3580 H   0  0  0  0  0  0  0  0  0  0  0  0
   -1.7270    1.9271    0.7200 H   0  0  0  0  0  0  0  0  0  0  0  0
   -4.1511    1.8630    0.7905 H   0  0  0  0  0  0  0  0  0  0  0  0
   -4.1070   -2.2379   -0.6037 H   0  0  0  0  0  0  0  0  0  0  0  0
    2.8319    2.5420    0.7553 H   0  0  0  0  0  0  0  0  0  0  0  0
    6.1200   -0.0350   -0.2447 H   0  0  0  0  0  0  0  0  0  0  0  0
    4.5561   -1.8493   -0.8011 H   0  0  0  0  0  0  0  0  0  0  0  0
    2.4527   -2.4879   -0.9379 H   0  0  0  0  0  0  0  0  0  0  0  0
  1  2  2  0
  2  3  1  0
  3  4  1  0
  4  5  2  0
  5  6  1  0
  6  7  2  0
  7  8  1  0
  8  9  2  0
  8 10  1  0
  7 11  1  0
 11 12  2  0
 12 13  1  0
  2 14  1  0
 14 15  2  0
 15 16  1  0
 16 17  1  0
 16 18  2  0
 18 19  1  0
 19 20  2  0
 20 21  1  0
 12  4  1  0
 20 14  1  0
  3 22  1  0
  5 23  1  0
  6 24  1  0
 11 25  1  0
 15 26  1  0
 18 27  1  0
 19 28  1  0
 21 29  1  0
M  CHG  2   8   1  10  -1
M  END
$$$$
