
     RDKit          3D

 45 48  0  0  0  0  0  0  0  0999 V2000
   -7.9415    0.7676    0.8946 C   0  0  0  0  0  0  0  0  0  0  0  0
   -7.4365   -0.5208    0.5667 O   0  0  0  0  0  0  0  0  0  0  0  0
   -6.1198   -0.5967    0.2079 C   0  0  0  0  0  0  0  0  0  0  0  0
   -5.2233    0.4681    0.1419 C   0  0  0  0  0  0  0  0  0  0  0  0
   -3.8945    0.2453   -0.2430 C   0  0  0  0  0  0  0  0  0  0  0  0
   -3.4388   -1.0412   -0.5685 C   0  0  0  0  0  0  0  0  0  0  0  0
   -2.0488   -1.2336   -0.9643 C   0  0  0  0  0  0  0  0  0  0  0  0
   -1.0694   -0.3582   -1.0569 N   0  0  0  0  0  0  0  0  0  0  0  0
   -0.0204   -1.1351   -1.4780 C   0  0  0  0  0  0  0  0  0  0  0  0
    1.3299   -0.5870   -1.7309 C   0  0  0  0  0  0  0  0  0  0  0  0
    1.3559    0.5315   -2.7723 C   0  0  0  0  0  0  0  0  0  0  0  0
    2.5321    1.3740   -2.3442 C   0  0  0  0  0  0  0  0  0  0  0  0
    3.0141    2.2842   -2.9984 O   0  0  0  0  0  0  0  0  0  0  0  0
    2.9222    0.9724   -1.0732 N   0  0  0  0  0  0  0  0  0  0  0  0
    3.7896    1.7966   -0.2498 C   0  0  0  0  0  0  0  0  0  0  0  0
    4.6110    0.9897    0.7226 C   0  0  0  0  0  0  0  0  0  0  0  0
    5.6362    0.1541    0.2549 C   0  0  0  0  0  0  0  0  0  0  0  0
    6.3936   -0.6056    1.1472 C   0  0  0  0  0  0  0  0  0  0  0  0
    6.1340   -0.5384    2.5147 C   0  0  0  0  0  0  0  0  0  0  0  0
    5.1173    0.2877    2.9912 C   0  0  0  0  0  0  0  0  0  0  0  0
    4.3581    1.0485    2.1003 C   0  0  0  0  0  0  0  0  0  0  0  0
    1.9515    0.0653   -0.5055 C   0  0  0  0  0  0  0  0  0  0  0  0
   -0.3081   -2.4324   -1.6378 N   0  0  0  0  0  0  0  0  0  0  0  0
   -1.6608   -2.5026   -1.2974 O   0  0  0  0  0  0  0  0  0  0  0  0
   -4.3488   -2.1041   -0.4989 C   0  0  0  0  0  0  0  0  0  0  0  0
   -5.6752   -1.8804   -0.1137 C   0  0  0  0  0  0  0  0  0  0  0  0
   -7.4273    1.1826    1.7678 H   0  0  0  0  0  0  0  0  0  0  0  0
   -7.8775    1.4464    0.0377 H   0  0  0  0  0  0  0  0  0  0  0  0
   -8.9990    0.6562    1.1528 H   0  0  0  0  0  0  0  0  0  0  0  0
   -5.5206    1.4837    0.3817 H   0  0  0  0  0  0  0  0  0  0  0  0
   -3.2110    1.0925   -0.2884 H   0  0  0  0  0  0  0  0  0  0  0  0
    1.9992   -1.3884   -2.0758 H   0  0  0  0  0  0  0  0  0  0  0  0
    1.5133    0.1373   -3.7803 H   0  0  0  0  0  0  0  0  0  0  0  0
    0.4563    1.1557   -2.7562 H   0  0  0  0  0  0  0  0  0  0  0  0
    3.1539    2.5202    0.2750 H   0  0  0  0  0  0  0  0  0  0  0  0
    4.4592    2.3814   -0.8919 H   0  0  0  0  0  0  0  0  0  0  0  0
    5.8448    0.0927   -0.8116 H   0  0  0  0  0  0  0  0  0  0  0  0
    7.1864   -1.2493    0.7748 H   0  0  0  0  0  0  0  0  0  0  0  0
    6.7249   -1.1296    3.2094 H   0  0  0  0  0  0  0  0  0  0  0  0
    4.9164    0.3396    4.0583 H   0  0  0  0  0  0  0  0  0  0  0  0
    3.5680    1.6867    2.4894 H   0  0  0  0  0  0  0  0  0  0  0  0
    1.2316    0.6505    0.0791 H   0  0  0  0  0  0  0  0  0  0  0  0
    2.4346   -0.6703    0.1447 H   0  0  0  0  0  0  0  0  0  0  0  0
   -4.0436   -3.1201   -0.7414 H   0  0  0  0  0  0  0  0  0  0  0  0
   -6.3691   -2.7169   -0.0647 H   0  0  0  0  0  0  0  0  0  0  0  0
  1  2  1  0
  2  3  1  0
  3  4  2  0
  4  5  1  0
  5  6  2  0
  6  7  1  0
  7  8  2  0
  8  9  1  0
  9 10  1  0
 10 11  1  0
 11 12  1  0
 12 13  2  0
 12 14  1  0
 14 15  1  0
 15 16  1  0
 16 17  2  0
 17 18  1  0
 18 19  2  0
 19 20  1  0
 20 21  2  0
 14 22  1  0
  9 23  2  0
 23 24  1  0
  6 25  1  0
 25 26  2  0
 26  3  1  0
 24  7  1  0
 22 10  1  0
 21 16  1  0
  1 27  1  0
  1 28  1  0
  1 29  1  0
  4 30  1  0
  5 31  1  0
 10 32  1  0
 11 33  1  0
 11 34  1  0
 15 35  1  0
 15 36  1  0
 17 37  1  0
 18 38  1  0
 19 39  1  0
 20 40  1  0
 21 41  1  0
 22 42  1  0
 22 43  1  0
 25 44  1  0
 26 45  1  0
M  END
$$$$
