
     RDKit          3D

 72 76  0  0  0  0  0  0  0  0999 V2000
   11.0881   -1.7901    0.9994 C   0  0  0  0  0  0  0  0  0  0  0  0
   11.3164   -0.4803    0.3933 N   0  0  0  0  0  0  0  0  0  0  0  0
   11.1758    0.5909    1.3739 C   0  0  0  0  0  0  0  0  0  0  0  0
   10.5281   -0.2710   -0.8222 C   0  0  0  0  0  0  0  0  0  0  0  0
    9.0353   -0.2862   -0.6414 C   0  0  0  0  0  0  0  0  0  0  0  0
    8.2345   -1.2095   -1.1992 C   0  0  0  0  0  0  0  0  0  0  0  0
    6.7663   -1.2824   -0.9703 C   0  0  0  0  0  0  0  0  0  0  0  0
    6.2485   -2.3869   -0.8706 O   0  0  0  0  0  0  0  0  0  0  0  0
    6.1417   -0.0558   -0.9560 N   0  0  0  0  0  0  0  0  0  0  0  0
    4.7799    0.2053   -0.7003 C   0  0  0  0  0  0  0  0  0  0  0  0
    3.8587   -0.7755   -0.3228 C   0  0  0  0  0  0  0  0  0  0  0  0
    2.5272   -0.4363   -0.0594 C   0  0  0  0  0  0  0  0  0  0  0  0
    2.1044    0.8890   -0.1924 C   0  0  0  0  0  0  0  0  0  0  0  0
    0.7126    1.2768    0.1328 C   0  0  0  0  0  0  0  0  0  0  0  0
    0.5517    2.2201    0.9043 O   0  0  0  0  0  0  0  0  0  0  0  0
   -0.3402    0.5437   -0.4114 N   0  0  0  0  0  0  0  0  0  0  0  0
   -0.2717   -0.1782   -1.6761 C   0  0  0  0  0  0  0  0  0  0  0  0
   -0.9684   -1.5312   -1.5640 C   0  0  0  0  0  0  0  0  0  0  0  0
   -2.1779   -1.5150   -0.6234 C   0  0  0  0  0  0  0  0  0  0  0  0
   -2.7813   -0.1092   -0.4605 C   0  0  1  0  0  0  0  0  0  0  0  0
   -3.9123   -0.1974    0.4578 N   0  0  0  0  0  0  0  0  0  0  0  0
   -4.8576    0.8092    0.3981 C   0  0  0  0  0  0  0  0  0  0  0  0
   -4.5197    2.0458    0.0155 N   0  0  0  0  0  0  0  0  0  0  0  0
   -5.4972    2.9784    0.0221 C   0  0  0  0  0  0  0  0  0  0  0  0
   -6.7991    2.7267    0.3850 C   0  0  0  0  0  0  0  0  0  0  0  0
   -7.9662    3.9846    0.3249 Cl  0  0  0  0  0  0  0  0  0  0  0  0
   -7.0502    1.4183    0.7482 C   0  0  0  0  0  0  0  0  0  0  0  0
   -8.3638    0.9459    1.1541 C   0  0  0  0  0  0  0  0  0  0  0  0
   -9.0302    1.4020    2.2749 C   0  0  0  0  0  0  0  0  0  0  0  0
  -10.2175    0.7242    2.3657 N   0  0  0  0  0  0  0  0  0  0  0  0
  -10.3320   -0.1803    1.3350 C   0  0  0  0  0  0  0  0  0  0  0  0
  -11.3605   -1.0820    1.0362 C   0  0  0  0  0  0  0  0  0  0  0  0
  -11.2004   -1.8992   -0.0867 C   0  0  0  0  0  0  0  0  0  0  0  0
  -10.0563   -1.8178   -0.8765 C   0  0  0  0  0  0  0  0  0  0  0  0
   -9.0373   -0.9111   -0.5636 C   0  0  0  0  0  0  0  0  0  0  0  0
   -9.1745   -0.0725    0.5624 C   0  0  0  0  0  0  0  0  0  0  0  0
   -6.0969    0.4528    0.7451 N   0  0  0  0  0  0  0  0  0  0  0  0
   -1.6917    0.8621    0.0634 C   0  0  0  0  0  0  0  0  0  0  0  0
    3.0209    1.8803   -0.5468 C   0  0  0  0  0  0  0  0  0  0  0  0
    4.3512    1.5363   -0.8054 C   0  0  0  0  0  0  0  0  0  0  0  0
   10.0781   -1.8930    1.4122 H   0  0  0  0  0  0  0  0  0  0  0  0
   11.2467   -2.5900    0.2674 H   0  0  0  0  0  0  0  0  0  0  0  0
   11.8037   -1.9647    1.8106 H   0  0  0  0  0  0  0  0  0  0  0  0
   11.3868    1.5650    0.9191 H   0  0  0  0  0  0  0  0  0  0  0  0
   11.9027    0.4620    2.1836 H   0  0  0  0  0  0  0  0  0  0  0  0
   10.1771    0.6261    1.8215 H   0  0  0  0  0  0  0  0  0  0  0  0
   10.8070    0.6922   -1.2688 H   0  0  0  0  0  0  0  0  0  0  0  0
   10.8283   -1.0211   -1.5658 H   0  0  0  0  0  0  0  0  0  0  0  0
    8.6228    0.4897   -0.0034 H   0  0  0  0  0  0  0  0  0  0  0  0
    8.6368   -2.0362   -1.7763 H   0  0  0  0  0  0  0  0  0  0  0  0
    6.7120    0.7479   -1.1814 H   0  0  0  0  0  0  0  0  0  0  0  0
    4.1496   -1.8142   -0.2001 H   0  0  0  0  0  0  0  0  0  0  0  0
    1.8338   -1.2064    0.2686 H   0  0  0  0  0  0  0  0  0  0  0  0
    0.7511   -0.3038   -2.0379 H   0  0  0  0  0  0  0  0  0  0  0  0
   -0.7781    0.4453   -2.4243 H   0  0  0  0  0  0  0  0  0  0  0  0
   -0.2581   -2.2841   -1.2015 H   0  0  0  0  0  0  0  0  0  0  0  0
   -1.2748   -1.8559   -2.5653 H   0  0  0  0  0  0  0  0  0  0  0  0
   -1.8664   -1.8906    0.3609 H   0  0  0  0  0  0  0  0  0  0  0  0
   -2.9327   -2.2225   -0.9881 H   0  0  0  0  0  0  0  0  0  0  0  0
   -3.1195    0.2175   -1.4542 H   0  0  0  0  0  0  0  0  0  0  0  0
   -4.4289   -1.0707    0.4657 H   0  0  0  0  0  0  0  0  0  0  0  0
   -5.1789    3.9696   -0.2888 H   0  0  0  0  0  0  0  0  0  0  0  0
   -8.7643    2.1432    3.0172 H   0  0  0  0  0  0  0  0  0  0  0  0
  -10.9087    0.8551    3.0913 H   0  0  0  0  0  0  0  0  0  0  0  0
  -12.2518   -1.1522    1.6506 H   0  0  0  0  0  0  0  0  0  0  0  0
  -11.9815   -2.6107   -0.3438 H   0  0  0  0  0  0  0  0  0  0  0  0
   -9.9502   -2.4644   -1.7437 H   0  0  0  0  0  0  0  0  0  0  0  0
   -8.1458   -0.8567   -1.1814 H   0  0  0  0  0  0  0  0  0  0  0  0
   -1.9165    1.8879   -0.2521 H   0  0  0  0  0  0  0  0  0  0  0  0
   -1.6669    0.8651    1.1608 H   0  0  0  0  0  0  0  0  0  0  0  0
    2.7028    2.9191   -0.6080 H   0  0  0  0  0  0  0  0  0  0  0  0
    5.0453    2.3271   -1.0779 H   0  0  0  0  0  0  0  0  0  0  0  0
  1  2  1  0
  2  3  1  0
  2  4  1  0
  4  5  1  0
  5  6  2  0
  6  7  1  0
  7  8  2  0
  7  9  1  0
  9 10  1  0
 10 11  2  0
 11 12  1  0
 12 13  2  0
 13 14  1  0
 14 15  2  0
 14 16  1  0
 16 17  1  0
 17 18  1  0
 18 19  1  0
 19 20  1  0
 20 21  1  0
 21 22  1  0
 22 23  2  0
 23 24  1  0
 24 25  2  0
 25 26  1  0
 25 27  1  0
 27 28  1  0
 28 29  2  0
 29 30  1  0
 30 31  1  0
 31 32  2  0
 32 33  1  0
 33 34  2  0
 34 35  1  0
 35 36  2  0
 27 37  2  0
 20 38  1  0
 13 39  1  0
 39 40  2  0
 40 10  1  0
 38 16  1  0
 37 22  1  0
 36 28  1  0
 36 31  1  0
  1 41  1  0
  1 42  1  0
  1 43  1  0
  3 44  1  0
  3 45  1  0
  3 46  1  0
  4 47  1  0
  4 48  1  0
  5 49  1  0
  6 50  1  0
  9 51  1  0
 11 52  1  0
 12 53  1  0
 17 54  1  0
 17 55  1  0
 18 56  1  0
 18 57  1  0
 19 58  1  0
 19 59  1  0
 20 60  1  6
 21 61  1  0
 24 62  1  0
 29 63  1  0
 30 64  1  0
 32 65  1  0
 33 66  1  0
 34 67  1  0
 35 68  1  0
 38 69  1  0
 38 70  1  0
 39 71  1  0
 40 72  1  0
M  END
$$$$
