
     RDKit          3D

 52 54  0  0  0  0  0  0  0  0999 V2000
   -1.9187   -1.9575    3.2718 C   0  0  0  0  0  0  0  0  0  0  0  0
   -2.8643   -1.1316    2.4399 C   0  0  0  0  0  0  0  0  0  0  0  0
   -3.9832   -0.9048    2.9112 O   0  0  0  0  0  0  0  0  0  0  0  0
   -2.4611   -0.6190    1.2051 N   0  0  0  0  0  0  0  0  0  0  0  0
   -3.4361    0.2724    0.5175 C   0  0  0  0  0  0  0  0  0  0  0  0
   -3.0660    1.7487    0.6853 C   0  0  0  0  0  0  0  0  0  0  0  0
   -4.1401    2.6449    0.0732 C   0  0  0  0  0  0  0  0  0  0  0  0
   -4.8519    2.0348   -1.0051 O   0  0  0  0  0  0  0  0  0  0  0  0
   -4.0466    1.1552   -1.7780 C   0  0  0  0  0  0  0  0  0  0  0  0
   -3.6824   -0.0798   -0.9612 C   0  0  0  0  0  0  0  0  0  0  0  0
   -1.1016   -0.7219    0.6096 C   0  0  0  0  0  0  0  0  0  0  0  0
   -0.7942   -2.1099    0.0169 C   0  0  0  0  0  0  0  0  0  0  0  0
    0.5722   -2.1116   -0.6731 C   0  0  0  0  0  0  0  0  0  0  0  0
    1.6656   -1.5977    0.2582 C   0  0  0  0  0  0  0  0  0  0  0  0
    1.3302   -0.2715    0.7814 N   0  0  0  0  0  0  0  0  0  0  0  0
    2.2933    0.7061    1.0686 C   0  0  0  0  0  0  0  0  0  0  0  0
    2.1277    1.5402    1.9611 O   0  0  0  0  0  0  0  0  0  0  0  0
    3.5515    0.7834    0.2567 C   0  0  0  0  0  0  0  0  0  0  0  0
    4.6950    1.3146    0.8417 C   0  0  0  0  0  0  0  0  0  0  0  0
    5.8417    1.4290    0.0641 C   0  0  0  0  0  0  0  0  0  0  0  0
    5.8049    1.0245   -1.2671 C   0  0  0  0  0  0  0  0  0  0  0  0
    4.6163    0.5176   -1.7859 C   0  0  0  0  0  0  0  0  0  0  0  0
    4.5464    0.0857   -3.2202 C   0  0  0  0  0  0  0  0  0  0  0  0
    3.4900    0.3943   -1.0456 N   0  0  0  0  0  0  0  0  0  0  0  0
    0.0512   -0.1915    1.4883 C   0  0  0  0  0  0  0  0  0  0  0  0
   -2.5050   -2.6733    3.8580 H   0  0  0  0  0  0  0  0  0  0  0  0
   -1.2116   -2.5391    2.6912 H   0  0  0  0  0  0  0  0  0  0  0  0
   -1.3851   -1.3017    3.9646 H   0  0  0  0  0  0  0  0  0  0  0  0
   -4.4122    0.1532    1.0051 H   0  0  0  0  0  0  0  0  0  0  0  0
   -2.1107    1.9532    0.1859 H   0  0  0  0  0  0  0  0  0  0  0  0
   -2.9152    2.0103    1.7393 H   0  0  0  0  0  0  0  0  0  0  0  0
   -4.8836    2.9083    0.8330 H   0  0  0  0  0  0  0  0  0  0  0  0
   -3.6976    3.5822   -0.2817 H   0  0  0  0  0  0  0  0  0  0  0  0
   -3.1506    1.6850   -2.1237 H   0  0  0  0  0  0  0  0  0  0  0  0
   -4.6126    0.8605   -2.6675 H   0  0  0  0  0  0  0  0  0  0  0  0
   -4.5110   -0.7991   -0.9999 H   0  0  0  0  0  0  0  0  0  0  0  0
   -2.8397   -0.5805   -1.4445 H   0  0  0  0  0  0  0  0  0  0  0  0
   -1.1030   -0.0452   -0.2556 H   0  0  0  0  0  0  0  0  0  0  0  0
   -1.5661   -2.3916   -0.7084 H   0  0  0  0  0  0  0  0  0  0  0  0
   -0.8016   -2.8925    0.7782 H   0  0  0  0  0  0  0  0  0  0  0  0
    0.5264   -1.4770   -1.5669 H   0  0  0  0  0  0  0  0  0  0  0  0
    0.8147   -3.1260   -1.0085 H   0  0  0  0  0  0  0  0  0  0  0  0
    2.6314   -1.6233   -0.2452 H   0  0  0  0  0  0  0  0  0  0  0  0
    1.7637   -2.2640    1.1250 H   0  0  0  0  0  0  0  0  0  0  0  0
    4.6895    1.6394    1.8773 H   0  0  0  0  0  0  0  0  0  0  0  0
    6.7535    1.8393    0.4895 H   0  0  0  0  0  0  0  0  0  0  0  0
    6.6901    1.1126   -1.8898 H   0  0  0  0  0  0  0  0  0  0  0  0
    5.2697   -0.7133   -3.4103 H   0  0  0  0  0  0  0  0  0  0  0  0
    4.7616    0.9315   -3.8806 H   0  0  0  0  0  0  0  0  0  0  0  0
    3.5486   -0.2929   -3.4645 H   0  0  0  0  0  0  0  0  0  0  0  0
    0.1768   -0.7562    2.4142 H   0  0  0  0  0  0  0  0  0  0  0  0
   -0.1608    0.8457    1.7727 H   0  0  0  0  0  0  0  0  0  0  0  0
  1  2  1  0
  2  3  2  0
  2  4  1  0
  4  5  1  0
  5  6  1  0
  6  7  1  0
  7  8  1  0
  8  9  1  0
  9 10  1  0
  4 11  1  0
 11 12  1  0
 12 13  1  0
 13 14  1  0
 14 15  1  0
 15 16  1  0
 16 17  2  0
 16 18  1  0
 18 19  2  0
 19 20  1  0
 20 21  2  0
 21 22  1  0
 22 23  1  0
 22 24  2  0
 15 25  1  0
 10  5  1  0
 25 11  1  0
 24 18  1  0
  1 26  1  0
  1 27  1  0
  1 28  1  0
  5 29  1  0
  6 30  1  0
  6 31  1  0
  7 32  1  0
  7 33  1  0
  9 34  1  0
  9 35  1  0
 10 36  1  0
 10 37  1  0
 11 38  1  0
 12 39  1  0
 12 40  1  0
 13 41  1  0
 13 42  1  0
 14 43  1  0
 14 44  1  0
 19 45  1  0
 20 46  1  0
 21 47  1  0
 23 48  1  0
 23 49  1  0
 23 50  1  0
 25 51  1  0
 25 52  1  0
M  END
$$$$
