
     RDKit          3D

 40 41  0  0  0  0  0  0  0  0999 V2000
    0.6859    0.0000    0.0000 Cl  0  0  0  0  0  0  0  0  0  0  0  0
    5.5400    1.5702    1.6647 O   0  0  0  0  0  0  0  0  0  0  0  0
    4.7795    1.0295    0.8180 C   0  0  0  0  0  0  0  0  0  0  0  0
    5.3279    0.5541   -0.3257 N   0  0  0  0  0  0  0  0  0  0  0  0
    4.5304   -0.0171   -1.2223 C   0  0  0  0  0  0  0  0  0  0  0  0
    3.1689   -0.1599   -1.0651 C   0  0  0  0  0  0  0  0  0  0  0  0
    2.6124    0.3261    0.1027 C   0  0  0  0  0  0  0  0  0  0  0  0
    1.2315    0.2050    0.3085 C   0  0  0  0  0  0  0  0  0  0  0  0
    0.2564   -0.5750   -0.9112 S   0  0  0  0  0  6  0  0  0  0  0  0
    0.7893   -1.9652   -1.0942 O   0  0  0  0  0  0  0  0  0  0  0  0
    0.4192    0.2481   -2.1829 O   0  0  0  0  0  0  0  0  0  0  0  0
   -1.3684   -0.5273   -0.4736 N   0  0  0  0  0  0  0  0  0  0  0  0
   -1.9722    0.7534   -0.3361 C   0  0  0  0  0  0  0  0  0  0  0  0
   -3.0351    0.6194    0.7657 C   0  0  0  0  0  0  0  0  0  0  0  0
   -4.2792   -0.0066    0.2088 C   0  0  0  0  0  0  0  0  0  0  0  0
   -4.2979   -1.4270    0.2179 N   0  0  0  0  0  0  0  0  0  0  0  0
   -3.1225   -2.0996   -0.1728 C   0  0  0  0  0  0  0  0  0  0  0  0
   -2.2543   -1.4030   -1.1689 C   0  0  0  0  0  0  0  0  0  0  0  0
    0.7278    0.7071    1.4907 C   0  0  0  0  0  0  0  0  0  0  0  0
    1.5288    1.3033    2.4362 C   0  0  0  0  0  0  0  0  0  0  0  0
    2.8818    1.4185    2.2272 C   0  0  0  0  0  0  0  0  0  0  0  0
    3.4251    0.9253    1.0508 C   0  0  0  0  0  0  0  0  0  0  0  0
   -0.6859    0.0000    0.0000 H   0  0  0  0  0  0  0  0  0  0  0  0
    6.3709    0.6598   -0.4535 H   0  0  0  0  0  0  0  0  0  0  0  0
    4.9896   -0.3919   -2.1326 H   0  0  0  0  0  0  0  0  0  0  0  0
    2.5479   -0.6361   -1.8291 H   0  0  0  0  0  0  0  0  0  0  0  0
   -2.5962    0.8969   -1.2769 H   0  0  0  0  0  0  0  0  0  0  0  0
   -1.3155    1.6074   -0.1950 H   0  0  0  0  0  0  0  0  0  0  0  0
   -2.6184   -0.0876    1.5218 H   0  0  0  0  0  0  0  0  0  0  0  0
   -3.2252    1.5887    1.2543 H   0  0  0  0  0  0  0  0  0  0  0  0
   -5.1279    0.3416    0.8706 H   0  0  0  0  0  0  0  0  0  0  0  0
   -4.5461    0.4256   -0.8008 H   0  0  0  0  0  0  0  0  0  0  0  0
   -5.1379   -1.7559   -0.2781 H   0  0  0  0  0  0  0  0  0  0  0  0
   -3.3910   -3.1425   -0.4948 H   0  0  0  0  0  0  0  0  0  0  0  0
   -2.4905   -2.2598    0.7497 H   0  0  0  0  0  0  0  0  0  0  0  0
   -2.9246   -0.8128   -1.8603 H   0  0  0  0  0  0  0  0  0  0  0  0
   -1.7276   -2.1193   -1.8469 H   0  0  0  0  0  0  0  0  0  0  0  0
   -0.3124    0.6367    1.7059 H   0  0  0  0  0  0  0  0  0  0  0  0
    1.1072    1.6878    3.3525 H   0  0  0  0  0  0  0  0  0  0  0  0
    3.5083    1.8822    2.9615 H   0  0  0  0  0  0  0  0  0  0  0  0
  2  3  2  0
  3  4  1  0
  4  5  1  0
  5  6  2  0
  6  7  1  0
  7  8  2  0
  8  9  1  0
  9 10  2  0
  9 11  2  0
  9 12  1  0
 12 13  1  0
 13 14  1  0
 14 15  1  0
 15 16  1  0
 16 17  1  0
 17 18  1  0
  8 19  1  0
 19 20  2  0
 20 21  1  0
 21 22  2  0
 22  3  1  0
 22  7  1  0
 18 12  1  0
  1 23  1  0
  4 24  1  0
  5 25  1  0
  6 26  1  0
 13 27  1  0
 13 28  1  0
 14 29  1  0
 14 30  1  0
 15 31  1  0
 15 32  1  0
 16 33  1  0
 17 34  1  0
 17 35  1  0
 18 36  1  0
 18 37  1  0
 19 38  1  0
 20 39  1  0
 21 40  1  0
M  END
$$$$
