
     RDKit          3D

 70 73  0  0  0  0  0  0  0  0999 V2000
   -7.0567   -0.0674   -0.3876 C   0  0  0  0  0  0  0  0  0  0  0  0
   -6.3098   -1.0790    0.0949 C   0  0  0  0  0  0  0  0  0  0  0  0
   -4.8726   -1.1715   -0.1878 C   0  0  0  0  0  0  0  0  0  0  0  0
   -4.0710   -0.0956   -0.0250 C   0  0  0  0  0  0  0  0  0  0  0  0
   -2.6509   -0.0373   -0.3159 C   0  0  0  0  0  0  0  0  0  0  0  0
   -1.8074    0.9740   -0.0265 C   0  0  0  0  0  0  0  0  0  0  0  0
   -2.1706    2.2500    0.7160 C   0  0  0  0  0  0  0  0  0  0  0  0
   -1.2149    2.5360    1.8833 C   0  0  0  0  0  0  0  0  0  0  0  0
    0.2679    2.4532    1.4886 C   0  0  0  0  0  0  0  0  0  0  0  0
    0.6096    1.1192    0.7897 C   0  0  1  0  0  0  0  0  0  0  0  0
    0.4811   -0.0510    1.7938 C   0  0  0  0  0  0  0  0  0  0  0  0
   -0.3458    0.9750   -0.4288 C   0  0  1  0  0  0  0  0  0  0  0  0
    0.2672   -0.1755   -1.2251 C   0  0  0  0  0  0  0  0  0  0  0  0
    1.7791    0.0136   -1.0516 C   0  0  0  0  0  0  0  0  0  0  0  0
    1.9861    1.0898    0.0557 C   0  0  2  0  0  0  0  0  0  0  0  0
    3.2761    0.8441    0.8833 C   0  0  2  0  0  0  0  0  0  0  0  0
    3.5111    1.8976    1.9723 C   0  0  0  0  0  0  0  0  0  0  0  0
    4.4833    0.7097   -0.0350 C   0  0  0  0  0  0  0  0  0  0  0  0
    5.2472    1.7168   -0.4934 C   0  0  0  0  0  0  0  0  0  0  0  0
    6.4406    1.6112   -1.4050 C   0  0  1  0  0  0  0  0  0  0  0  0
    7.5515    2.1299   -0.6809 O   0  0  0  0  0  0  0  0  0  0  0  0
    6.7605    0.2531   -1.9741 C   0  0  0  0  0  0  0  0  0  0  0  0
    7.4915   -0.8181   -1.1943 C   0  0  0  0  0  0  0  0  0  0  0  0
    8.1703   -0.1391   -2.3528 C   0  0  0  0  0  0  0  0  0  0  0  0
   -4.3551   -2.5449   -0.5963 C   0  0  0  0  0  0  0  0  0  0  0  0
   -5.2422   -3.7303   -0.1791 C   0  0  2  0  0  0  0  0  0  0  0  0
   -6.1368   -4.0598   -1.2471 O   0  0  0  0  0  0  0  0  0  0  0  0
   -6.0168   -3.4133    1.0973 C   0  0  0  0  0  0  0  0  0  0  0  0
   -6.9444   -2.2163    0.8810 C   0  0  2  0  0  0  0  0  0  0  0  0
   -8.1097   -2.6944    0.1950 O   0  0  0  0  0  0  0  0  0  0  0  0
   -6.6351    0.7273   -0.9943 H   0  0  0  0  0  0  0  0  0  0  0  0
   -8.1247   -0.0200   -0.1948 H   0  0  0  0  0  0  0  0  0  0  0  0
   -4.5248    0.8292    0.3223 H   0  0  0  0  0  0  0  0  0  0  0  0
   -2.2595   -0.8953   -0.8574 H   0  0  0  0  0  0  0  0  0  0  0  0
   -2.1349    3.0866    0.0047 H   0  0  0  0  0  0  0  0  0  0  0  0
   -3.1879    2.2301    1.1181 H   0  0  0  0  0  0  0  0  0  0  0  0
   -1.4178    1.8250    2.6904 H   0  0  0  0  0  0  0  0  0  0  0  0
   -1.4245    3.5311    2.2911 H   0  0  0  0  0  0  0  0  0  0  0  0
    0.5002    3.2921    0.8201 H   0  0  0  0  0  0  0  0  0  0  0  0
    0.8664    2.5944    2.3918 H   0  0  0  0  0  0  0  0  0  0  0  0
   -0.5539   -0.2240    2.0997 H   0  0  0  0  0  0  0  0  0  0  0  0
    1.0563    0.1507    2.7067 H   0  0  0  0  0  0  0  0  0  0  0  0
    0.8540   -0.9984    1.3840 H   0  0  0  0  0  0  0  0  0  0  0  0
   -0.2277    1.8664   -1.0693 H   0  0  0  0  0  0  0  0  0  0  0  0
   -0.0220   -0.1401   -2.2806 H   0  0  0  0  0  0  0  0  0  0  0  0
   -0.0257   -1.1570   -0.8348 H   0  0  0  0  0  0  0  0  0  0  0  0
    2.2337   -0.9479   -0.7853 H   0  0  0  0  0  0  0  0  0  0  0  0
    2.2380    0.3448   -1.9907 H   0  0  0  0  0  0  0  0  0  0  0  0
    2.1084    2.0555   -0.4595 H   0  0  0  0  0  0  0  0  0  0  0  0
    3.1896   -0.1216    1.3997 H   0  0  0  0  0  0  0  0  0  0  0  0
    4.5218    1.8194    2.3894 H   0  0  0  0  0  0  0  0  0  0  0  0
    2.8213    1.7581    2.8084 H   0  0  0  0  0  0  0  0  0  0  0  0
    3.3809    2.9155    1.5881 H   0  0  0  0  0  0  0  0  0  0  0  0
    4.7146   -0.3131   -0.3336 H   0  0  0  0  0  0  0  0  0  0  0  0
    5.0048    2.7402   -0.2124 H   0  0  0  0  0  0  0  0  0  0  0  0
    6.2743    2.2867   -2.2530 H   0  0  0  0  0  0  0  0  0  0  0  0
    7.6216    1.5951    0.1260 H   0  0  0  0  0  0  0  0  0  0  0  0
    5.9706   -0.0748   -2.6431 H   0  0  0  0  0  0  0  0  0  0  0  0
    7.1588   -1.8450   -1.3251 H   0  0  0  0  0  0  0  0  0  0  0  0
    7.8488   -0.5988   -0.1944 H   0  0  0  0  0  0  0  0  0  0  0  0
    8.3099   -0.7057   -3.2664 H   0  0  0  0  0  0  0  0  0  0  0  0
    8.9795    0.5492   -2.1348 H   0  0  0  0  0  0  0  0  0  0  0  0
   -4.2014   -2.5595   -1.6827 H   0  0  0  0  0  0  0  0  0  0  0  0
   -3.3807   -2.7028   -0.1190 H   0  0  0  0  0  0  0  0  0  0  0  0
   -4.6120   -4.6131   -0.0222 H   0  0  0  0  0  0  0  0  0  0  0  0
   -6.8093   -4.6649   -0.8828 H   0  0  0  0  0  0  0  0  0  0  0  0
   -6.6108   -4.2878    1.3869 H   0  0  0  0  0  0  0  0  0  0  0  0
   -5.3105   -3.2002    1.9093 H   0  0  0  0  0  0  0  0  0  0  0  0
   -7.2766   -1.8458    1.8584 H   0  0  0  0  0  0  0  0  0  0  0  0
   -7.9318   -2.5615   -0.7599 H   0  0  0  0  0  0  0  0  0  0  0  0
  1  2  2  0
  2  3  1  0
  3  4  2  0
  4  5  1  0
  5  6  2  0
  6  7  1  0
  7  8  1  0
  8  9  1  0
  9 10  1  0
 10 11  1  1
 10 12  1  0
 12 13  1  0
 13 14  1  0
 14 15  1  0
 15 16  1  0
 16 17  1  0
 16 18  1  0
 18 19  2  0
 19 20  1  0
 20 21  1  0
 20 22  1  0
 22 23  1  0
 23 24  1  0
  3 25  1  0
 25 26  1  0
 26 27  1  0
 26 28  1  0
 28 29  1  0
 29 30  1  0
 29  2  1  0
 12  6  1  0
 24 22  1  0
 15 10  1  0
  1 31  1  0
  1 32  1  0
  4 33  1  0
  5 34  1  0
  7 35  1  0
  7 36  1  0
  8 37  1  0
  8 38  1  0
  9 39  1  0
  9 40  1  0
 11 41  1  0
 11 42  1  0
 11 43  1  0
 12 44  1  6
 13 45  1  0
 13 46  1  0
 14 47  1  0
 14 48  1  0
 15 49  1  6
 16 50  1  1
 17 51  1  0
 17 52  1  0
 17 53  1  0
 18 54  1  0
 19 55  1  0
 20 56  1  6
 21 57  1  0
 22 58  1  0
 23 59  1  0
 23 60  1  0
 24 61  1  0
 24 62  1  0
 25 63  1  0
 25 64  1  0
 26 65  1  1
 27 66  1  0
 28 67  1  0
 28 68  1  0
 29 69  1  1
 30 70  1  0
M  END
$$$$
