
     RDKit          3D

 56 58  0  0  0  0  0  0  0  0999 V2000
   -4.3490    0.7183   -2.9970 C   0  0  0  0  0  0  0  0  0  0  0  0
   -3.0151    0.1496   -2.5114 C   0  0  2  0  0  0  0  0  0  0  0  0
   -2.5819    0.9050   -1.3549 O   0  0  0  0  0  0  0  0  0  0  0  0
   -2.9704    0.3445   -0.1684 C   0  0  0  0  0  0  0  0  0  0  0  0
   -3.9689    1.0075    0.5491 C   0  0  0  0  0  0  0  0  0  0  0  0
   -4.3823    0.5198    1.7911 C   0  0  0  0  0  0  0  0  0  0  0  0
   -3.7834   -0.6300    2.3159 C   0  0  0  0  0  0  0  0  0  0  0  0
   -4.2875   -1.2478    3.9045 S   0  0  0  0  0  6  0  0  0  0  0  0
   -5.3684   -2.5948    3.5008 C   0  0  0  0  0  0  0  0  0  0  0  0
   -3.1026   -1.7832    4.5449 O   0  0  0  0  0  0  0  0  0  0  0  0
   -5.0762   -0.2124    4.5434 O   0  0  0  0  0  0  0  0  0  0  0  0
   -2.7516   -1.2761    1.6321 C   0  0  0  0  0  0  0  0  0  0  0  0
   -2.3400   -0.7725    0.3944 C   0  0  0  0  0  0  0  0  0  0  0  0
   -1.2588   -1.4821   -0.3040 C   0  0  0  0  0  0  0  0  0  0  0  0
   -1.5827   -2.4701   -0.9587 O   0  0  0  0  0  0  0  0  0  0  0  0
    0.0396   -1.0230   -0.1674 N   0  0  0  0  0  0  0  0  0  0  0  0
    0.4528    0.1614    0.5956 C   0  0  0  0  0  0  0  0  0  0  0  0
    1.6505    0.9011   -0.0347 C   0  0  0  0  0  0  0  0  0  0  0  0
    2.7707   -0.0020   -0.3298 N   0  0  0  0  0  0  0  0  0  0  0  0
    4.0827    0.4278   -0.2141 C   0  0  0  0  0  0  0  0  0  0  0  0
    5.0320   -0.5069    0.0457 N   0  0  0  0  0  0  0  0  0  0  0  0
    6.3284   -0.1240    0.1508 C   0  0  0  0  0  0  0  0  0  0  0  0
    6.7688    1.1788   -0.0023 C   0  0  0  0  0  0  0  0  0  0  0  0
    8.2174    1.5134    0.1515 C   0  0  0  0  0  0  0  0  0  0  0  0
    9.0430    0.5123   -0.2597 F   0  0  0  0  0  0  0  0  0  0  0  0
    8.5537    1.7686    1.4451 F   0  0  0  0  0  0  0  0  0  0  0  0
    8.5881    2.6158   -0.5562 F   0  0  0  0  0  0  0  0  0  0  0  0
    5.8020    2.1452   -0.2688 C   0  0  0  0  0  0  0  0  0  0  0  0
    4.4659    1.7674   -0.3796 C   0  0  0  0  0  0  0  0  0  0  0  0
    3.5699    2.7241   -0.6699 F   0  0  0  0  0  0  0  0  0  0  0  0
    2.5126   -1.4473   -0.2999 C   0  0  0  0  0  0  0  0  0  0  0  0
    1.1091   -1.7617   -0.8449 C   0  0  0  0  0  0  0  0  0  0  0  0
   -1.9647    0.2610   -3.6195 C   0  0  0  0  0  0  0  0  0  0  0  0
   -1.7983    1.5422   -4.0240 F   0  0  0  0  0  0  0  0  0  0  0  0
   -2.3301   -0.4581   -4.7073 F   0  0  0  0  0  0  0  0  0  0  0  0
   -0.7587   -0.1968   -3.2201 F   0  0  0  0  0  0  0  0  0  0  0  0
   -4.2678    1.7923   -3.1974 H   0  0  0  0  0  0  0  0  0  0  0  0
   -5.1236    0.5973   -2.2328 H   0  0  0  0  0  0  0  0  0  0  0  0
   -4.6886    0.2149   -3.9075 H   0  0  0  0  0  0  0  0  0  0  0  0
   -3.1549   -0.9109   -2.2754 H   0  0  0  0  0  0  0  0  0  0  0  0
   -4.4245    1.9083    0.1432 H   0  0  0  0  0  0  0  0  0  0  0  0
   -5.1593    1.0473    2.3420 H   0  0  0  0  0  0  0  0  0  0  0  0
   -5.7334   -3.0274    4.4350 H   0  0  0  0  0  0  0  0  0  0  0  0
   -4.8100   -3.3454    2.9386 H   0  0  0  0  0  0  0  0  0  0  0  0
   -6.2076   -2.2148    2.9148 H   0  0  0  0  0  0  0  0  0  0  0  0
   -2.2617   -2.1528    2.0519 H   0  0  0  0  0  0  0  0  0  0  0  0
    0.7267   -0.1979    1.5952 H   0  0  0  0  0  0  0  0  0  0  0  0
   -0.3778    0.8600    0.7196 H   0  0  0  0  0  0  0  0  0  0  0  0
    1.3311    1.3749   -0.9703 H   0  0  0  0  0  0  0  0  0  0  0  0
    1.9432    1.6906    0.6671 H   0  0  0  0  0  0  0  0  0  0  0  0
    7.0198   -0.9361    0.3677 H   0  0  0  0  0  0  0  0  0  0  0  0
    6.0694    3.1898   -0.4019 H   0  0  0  0  0  0  0  0  0  0  0  0
    2.5992   -1.8130    0.7311 H   0  0  0  0  0  0  0  0  0  0  0  0
    3.2373   -1.9917   -0.9175 H   0  0  0  0  0  0  0  0  0  0  0  0
    1.0545   -1.4910   -1.9060 H   0  0  0  0  0  0  0  0  0  0  0  0
    0.9114   -2.8368   -0.7699 H   0  0  0  0  0  0  0  0  0  0  0  0
  1  2  1  0
  2  3  1  0
  3  4  1  0
  4  5  2  0
  5  6  1  0
  6  7  2  0
  7  8  1  0
  8  9  1  0
  8 10  2  0
  8 11  2  0
  7 12  1  0
 12 13  2  0
 13 14  1  0
 14 15  2  0
 14 16  1  0
 16 17  1  0
 17 18  1  0
 18 19  1  0
 19 20  1  0
 20 21  2  0
 21 22  1  0
 22 23  2  0
 23 24  1  0
 24 25  1  0
 24 26  1  0
 24 27  1  0
 23 28  1  0
 28 29  2  0
 29 30  1  0
 19 31  1  0
 31 32  1  0
  2 33  1  0
 33 34  1  0
 33 35  1  0
 33 36  1  0
 13  4  1  0
 32 16  1  0
 29 20  1  0
  1 37  1  0
  1 38  1  0
  1 39  1  0
  2 40  1  1
  5 41  1  0
  6 42  1  0
  9 43  1  0
  9 44  1  0
  9 45  1  0
 12 46  1  0
 17 47  1  0
 17 48  1  0
 18 49  1  0
 18 50  1  0
 22 51  1  0
 28 52  1  0
 31 53  1  0
 31 54  1  0
 32 55  1  0
 32 56  1  0
M  END
$$$$
