
     RDKit          3D

 51 53  0  0  0  0  0  0  0  0999 V2000
   -4.6407    0.8901   -3.2586 C   0  0  0  0  0  0  0  0  0  0  0  0
   -3.4194    0.3980   -2.7217 O   0  0  0  0  0  0  0  0  0  0  0  0
   -3.1580    0.6850   -1.4114 C   0  0  0  0  0  0  0  0  0  0  0  0
   -3.9525    1.4497   -0.5637 C   0  0  0  0  0  0  0  0  0  0  0  0
   -3.5567    1.6770    0.7604 C   0  0  0  0  0  0  0  0  0  0  0  0
   -2.3650    1.1372    1.2548 C   0  0  0  0  0  0  0  0  0  0  0  0
   -1.9015    1.3185    2.5305 O   0  0  0  0  0  0  0  0  0  0  0  0
   -2.6766    2.1293    3.4051 C   0  0  0  0  0  0  0  0  0  0  0  0
   -1.5647    0.3437    0.4135 C   0  0  0  0  0  0  0  0  0  0  0  0
   -0.2457   -0.2382    0.8955 C   0  0  0  0  0  0  0  0  0  0  0  0
   -0.0448   -1.6500    0.5169 N   0  0  0  0  0  0  0  0  0  0  0  0
   -0.7951   -2.6952    1.0713 C   0  0  0  0  0  0  0  0  0  0  0  0
   -1.8704   -2.3345    2.0702 C   0  0  0  0  0  0  0  0  0  0  0  0
   -0.6197   -3.8879    0.8062 O   0  0  0  0  0  0  0  0  0  0  0  0
    1.0191   -1.9583   -0.4046 C   0  0  0  0  0  0  0  0  0  0  0  0
    0.7692   -2.8572   -1.4543 C   0  0  0  0  0  0  0  0  0  0  0  0
    1.7662   -3.1698   -2.3728 C   0  0  0  0  0  0  0  0  0  0  0  0
    1.4980   -4.0158   -3.3761 F   0  0  0  0  0  0  0  0  0  0  0  0
    3.0354   -2.6207   -2.2687 C   0  0  0  0  0  0  0  0  0  0  0  0
    3.3149   -1.7430   -1.2242 C   0  0  0  0  0  0  0  0  0  0  0  0
    2.3107   -1.3928   -0.3037 C   0  0  0  0  0  0  0  0  0  0  0  0
    2.6171   -0.6256    0.8057 O   0  0  0  0  0  0  0  0  0  0  0  0
    3.4377    0.4673    0.6360 C   0  0  0  0  0  0  0  0  0  0  0  0
    4.4510    0.6459    1.5781 C   0  0  0  0  0  0  0  0  0  0  0  0
    5.2966    1.7517    1.4884 C   0  0  0  0  0  0  0  0  0  0  0  0
    5.1176    2.6851    0.4668 C   0  0  0  0  0  0  0  0  0  0  0  0
    4.0891    2.5183   -0.4614 C   0  0  0  0  0  0  0  0  0  0  0  0
    3.2418    1.4129   -0.3742 C   0  0  0  0  0  0  0  0  0  0  0  0
   -1.9684    0.1443   -0.9209 C   0  0  0  0  0  0  0  0  0  0  0  0
   -4.6596    1.9849   -3.2553 H   0  0  0  0  0  0  0  0  0  0  0  0
   -5.5025    0.4777   -2.7234 H   0  0  0  0  0  0  0  0  0  0  0  0
   -4.7057    0.5592   -4.2996 H   0  0  0  0  0  0  0  0  0  0  0  0
   -4.8847    1.8919   -0.8994 H   0  0  0  0  0  0  0  0  0  0  0  0
   -4.2075    2.2864    1.3791 H   0  0  0  0  0  0  0  0  0  0  0  0
   -3.6634    1.6883    3.5801 H   0  0  0  0  0  0  0  0  0  0  0  0
   -2.7599    3.1528    3.0251 H   0  0  0  0  0  0  0  0  0  0  0  0
   -2.1570    2.1731    4.3671 H   0  0  0  0  0  0  0  0  0  0  0  0
   -0.1319   -0.1750    1.9818 H   0  0  0  0  0  0  0  0  0  0  0  0
    0.5174    0.4062    0.4535 H   0  0  0  0  0  0  0  0  0  0  0  0
   -2.7332   -1.9048    1.5575 H   0  0  0  0  0  0  0  0  0  0  0  0
   -2.2029   -3.2471    2.5766 H   0  0  0  0  0  0  0  0  0  0  0  0
   -1.4937   -1.6612    2.8420 H   0  0  0  0  0  0  0  0  0  0  0  0
   -0.2074   -3.3155   -1.5824 H   0  0  0  0  0  0  0  0  0  0  0  0
    3.8016   -2.8947   -2.9866 H   0  0  0  0  0  0  0  0  0  0  0  0
    4.3257   -1.3569   -1.1187 H   0  0  0  0  0  0  0  0  0  0  0  0
    4.5845   -0.0780    2.3775 H   0  0  0  0  0  0  0  0  0  0  0  0
    6.0919    1.8878    2.2167 H   0  0  0  0  0  0  0  0  0  0  0  0
    5.7757    3.5479    0.3986 H   0  0  0  0  0  0  0  0  0  0  0  0
    3.9437    3.2530   -1.2492 H   0  0  0  0  0  0  0  0  0  0  0  0
    2.4332    1.3023   -1.0911 H   0  0  0  0  0  0  0  0  0  0  0  0
   -1.3494   -0.4434   -1.5962 H   0  0  0  0  0  0  0  0  0  0  0  0
  1  2  1  0
  2  3  1  0
  3  4  2  0
  4  5  1  0
  5  6  2  0
  6  7  1  0
  7  8  1  0
  6  9  1  0
  9 10  1  0
 10 11  1  0
 11 12  1  0
 12 13  1  0
 12 14  2  0
 11 15  1  0
 15 16  2  0
 16 17  1  0
 17 18  1  0
 17 19  2  0
 19 20  1  0
 20 21  2  0
 21 22  1  0
 22 23  1  0
 23 24  2  0
 24 25  1  0
 25 26  2  0
 26 27  1  0
 27 28  2  0
  9 29  2  0
 29  3  1  0
 21 15  1  0
 28 23  1  0
  1 30  1  0
  1 31  1  0
  1 32  1  0
  4 33  1  0
  5 34  1  0
  8 35  1  0
  8 36  1  0
  8 37  1  0
 10 38  1  0
 10 39  1  0
 13 40  1  0
 13 41  1  0
 13 42  1  0
 16 43  1  0
 19 44  1  0
 20 45  1  0
 24 46  1  0
 25 47  1  0
 26 48  1  0
 27 49  1  0
 28 50  1  0
 29 51  1  0
M  END
$$$$
