
     RDKit          3D

 41 44  0  0  0  0  0  0  0  0999 V2000
   -0.1374   -2.1484    1.7416 C   0  0  0  0  0  0  0  0  0  0  0  0
    0.2863   -0.7406    1.4064 C   0  0  0  0  0  0  0  0  0  0  0  0
   -0.5509    0.1605    0.8658 C   0  0  0  0  0  0  0  0  0  0  0  0
   -1.9950    0.0557    0.4670 C   0  0  0  0  0  0  0  0  0  0  0  0
   -2.6507   -0.9699    0.4407 O   0  0  0  0  0  0  0  0  0  0  0  0
   -2.3421    1.3690    0.0706 N   0  0  0  0  0  0  0  0  0  0  0  0
   -3.4956    1.7149   -0.6791 C   0  0  0  0  0  0  0  0  0  0  0  0
   -3.3534    2.5174   -1.8294 C   0  0  0  0  0  0  0  0  0  0  0  0
   -4.4588    2.8479   -2.6255 C   0  0  0  0  0  0  0  0  0  0  0  0
   -5.7284    2.3960   -2.2752 C   0  0  0  0  0  0  0  0  0  0  0  0
   -5.8980    1.6348   -1.1169 C   0  0  0  0  0  0  0  0  0  0  0  0
   -4.7941    1.3044   -0.3137 C   0  0  0  0  0  0  0  0  0  0  0  0
   -5.1498    0.5481    1.2034 Cl  0  0  0  0  0  0  0  0  0  0  0  0
   -1.1740    2.1745   -0.0309 N   0  0  0  0  0  0  0  0  0  0  0  0
   -0.1213    1.5058    0.5543 C   0  0  0  0  0  0  0  0  0  0  0  0
    1.1039    1.9302    0.8574 C   0  0  0  0  0  0  0  0  0  0  0  0
    2.0606    0.9768    1.4689 C   0  0  0  0  0  0  0  0  0  0  0  0
    3.1875    1.3855    1.7346 O   0  0  0  0  0  0  0  0  0  0  0  0
    1.6095   -0.3334    1.6931 N   0  0  0  0  0  0  0  0  0  0  0  0
    2.6250   -1.2822    2.1712 C   0  0  0  0  0  0  0  0  0  0  0  0
    3.5048   -1.8118    1.0542 C   0  0  0  0  0  0  0  0  0  0  0  0
    4.7750   -1.2690    0.8369 C   0  0  0  0  0  0  0  0  0  0  0  0
    5.5532   -1.7674   -0.2038 C   0  0  0  0  0  0  0  0  0  0  0  0
    5.0509   -2.7957   -0.9954 C   0  0  0  0  0  0  0  0  0  0  0  0
    3.7785   -3.2769   -0.7207 C   0  0  0  0  0  0  0  0  0  0  0  0
    2.9997   -2.8114    0.2794 N   0  0  0  0  0  0  0  0  0  0  0  0
   -1.2074   -2.3273    1.6209 H   0  0  0  0  0  0  0  0  0  0  0  0
    0.0672   -2.3780    2.7934 H   0  0  0  0  0  0  0  0  0  0  0  0
    0.3825   -2.8711    1.1068 H   0  0  0  0  0  0  0  0  0  0  0  0
   -2.3683    2.8582   -2.1472 H   0  0  0  0  0  0  0  0  0  0  0  0
   -4.3230    3.4486   -3.5203 H   0  0  0  0  0  0  0  0  0  0  0  0
   -6.5895    2.6451   -2.8920 H   0  0  0  0  0  0  0  0  0  0  0  0
   -6.9001    1.3193   -0.8275 H   0  0  0  0  0  0  0  0  0  0  0  0
   -1.3021    3.1226    0.3169 H   0  0  0  0  0  0  0  0  0  0  0  0
    1.4606    2.9306    0.6460 H   0  0  0  0  0  0  0  0  0  0  0  0
    3.2433   -0.7894    2.9323 H   0  0  0  0  0  0  0  0  0  0  0  0
    2.1684   -2.1310    2.6848 H   0  0  0  0  0  0  0  0  0  0  0  0
    5.1539   -0.4679    1.4705 H   0  0  0  0  0  0  0  0  0  0  0  0
    6.5524   -1.3736   -0.3777 H   0  0  0  0  0  0  0  0  0  0  0  0
    5.6354   -3.2145   -1.8062 H   0  0  0  0  0  0  0  0  0  0  0  0
    3.3414   -4.0866   -1.3012 H   0  0  0  0  0  0  0  0  0  0  0  0
  1  2  1  0
  2  3  2  0
  3  4  1  0
  4  5  2  0
  4  6  1  0
  6  7  1  0
  7  8  2  0
  8  9  1  0
  9 10  2  0
 10 11  1  0
 11 12  2  0
 12 13  1  0
  6 14  1  0
 14 15  1  0
 15 16  2  0
 16 17  1  0
 17 18  2  0
 17 19  1  0
 19 20  1  0
 20 21  1  0
 21 22  2  0
 22 23  1  0
 23 24  2  0
 24 25  1  0
 25 26  2  0
 19  2  1  0
 26 21  1  0
 15  3  1  0
 12  7  1  0
  1 27  1  0
  1 28  1  0
  1 29  1  0
  8 30  1  0
  9 31  1  0
 10 32  1  0
 11 33  1  0
 14 34  1  0
 16 35  1  0
 20 36  1  0
 20 37  1  0
 22 38  1  0
 23 39  1  0
 24 40  1  0
 25 41  1  0
M  END
$$$$
