
     RDKit          3D

 36 37  0  0  0  0  0  0  0  0999 V2000
    5.1191    0.3986   -0.5660 C   0  0  0  0  0  0  0  0  0  0  0  0
    4.6926   -0.5371    0.5609 C   0  0  0  0  0  0  0  0  0  0  0  0
    5.6235   -0.3937    1.7650 C   0  0  0  0  0  0  0  0  0  0  0  0
    3.2423   -0.2760    0.9549 C   0  0  0  0  0  0  0  0  0  0  0  0
    2.9127    0.1943    2.0380 O   0  0  0  0  0  0  0  0  0  0  0  0
    2.3266   -0.6156   -0.0211 N   0  0  0  0  0  0  0  0  0  0  0  0
    0.8957   -0.4902    0.1980 C   0  0  0  0  0  0  0  0  0  0  0  0
    0.4117    0.9612    0.1296 C   0  0  0  0  0  0  0  0  0  0  0  0
   -1.0591    1.0724    0.3698 C   0  0  0  0  0  0  0  0  0  0  0  0
   -1.6758    1.8029    1.3662 C   0  0  0  0  0  0  0  0  0  0  0  0
   -3.3730    1.6268    1.2499 S   0  0  0  0  0  0  0  0  0  0  0  0
   -3.1847    0.5942   -0.1201 C   0  0  0  0  0  0  0  0  0  0  0  0
   -4.3332   -0.0219   -0.8026 C   0  0  0  0  0  0  0  0  0  0  0  0
   -5.6738    0.3014   -0.5501 C   0  0  0  0  0  0  0  0  0  0  0  0
   -6.6944   -0.3512   -1.2446 C   0  0  0  0  0  0  0  0  0  0  0  0
   -6.3485   -1.3202   -2.1766 C   0  0  0  0  0  0  0  0  0  0  0  0
   -5.0752   -1.6662   -2.4542 N   0  0  0  0  0  0  0  0  0  0  0  0
   -4.1055   -1.0090   -1.7664 C   0  0  0  0  0  0  0  0  0  0  0  0
   -1.9286    0.3961   -0.4800 N   0  0  0  0  0  0  0  0  0  0  0  0
    4.9516    1.4504   -0.3097 H   0  0  0  0  0  0  0  0  0  0  0  0
    6.1809    0.2667   -0.7994 H   0  0  0  0  0  0  0  0  0  0  0  0
    4.5533    0.1915   -1.4820 H   0  0  0  0  0  0  0  0  0  0  0  0
    4.7590   -1.5723    0.2030 H   0  0  0  0  0  0  0  0  0  0  0  0
    5.6141    0.6338    2.1580 H   0  0  0  0  0  0  0  0  0  0  0  0
    5.3191   -1.0664    2.5767 H   0  0  0  0  0  0  0  0  0  0  0  0
    6.6537   -0.6463    1.4986 H   0  0  0  0  0  0  0  0  0  0  0  0
    2.6466   -1.0316   -0.8883 H   0  0  0  0  0  0  0  0  0  0  0  0
    0.4043   -1.0991   -0.5694 H   0  0  0  0  0  0  0  0  0  0  0  0
    0.6565   -0.9292    1.1769 H   0  0  0  0  0  0  0  0  0  0  0  0
    0.9488    1.5744    0.8618 H   0  0  0  0  0  0  0  0  0  0  0  0
    0.6460    1.3818   -0.8612 H   0  0  0  0  0  0  0  0  0  0  0  0
   -1.2175    2.4251    2.1272 H   0  0  0  0  0  0  0  0  0  0  0  0
   -5.9512    1.0503    0.1930 H   0  0  0  0  0  0  0  0  0  0  0  0
   -7.7362   -0.1131   -1.0551 H   0  0  0  0  0  0  0  0  0  0  0  0
   -7.1086   -1.8613   -2.7325 H   0  0  0  0  0  0  0  0  0  0  0  0
   -3.0924   -1.3217   -2.0225 H   0  0  0  0  0  0  0  0  0  0  0  0
  1  2  1  0
  2  3  1  0
  2  4  1  0
  4  5  2  0
  4  6  1  0
  6  7  1  0
  7  8  1  0
  8  9  1  0
  9 10  2  0
 10 11  1  0
 11 12  1  0
 12 13  1  0
 13 14  2  0
 14 15  1  0
 15 16  2  0
 16 17  1  0
 17 18  2  0
 12 19  2  0
 19  9  1  0
 18 13  1  0
  1 20  1  0
  1 21  1  0
  1 22  1  0
  2 23  1  0
  3 24  1  0
  3 25  1  0
  3 26  1  0
  6 27  1  0
  7 28  1  0
  7 29  1  0
  8 30  1  0
  8 31  1  0
 10 32  1  0
 14 33  1  0
 15 34  1  0
 16 35  1  0
 18 36  1  0
M  END
$$$$
