
     RDKit          3D

 54 55  0  0  0  0  0  0  0  0999 V2000
    6.9878   -1.5442   -1.8596 C   0  0  0  0  0  0  0  0  0  0  0  0
    5.5404   -1.3019   -1.4542 C   0  0  0  0  0  0  0  0  0  0  0  0
    5.3837   -0.9194    0.0295 C   0  0  0  0  0  0  0  0  0  0  0  0
    5.8744    0.5095    0.3232 C   0  0  0  0  0  0  0  0  0  0  0  0
    5.8166    0.8578    1.8058 C   0  0  0  0  0  0  0  0  0  0  0  0
    3.9283   -1.1251    0.4628 C   0  0  0  0  0  0  0  0  0  0  0  0
    3.6393   -2.0086    1.2621 O   0  0  0  0  0  0  0  0  0  0  0  0
    3.0311   -0.2804   -0.1507 N   0  0  0  0  0  0  0  0  0  0  0  0
    1.6795   -0.2373    0.1155 C   0  0  0  0  0  0  0  0  0  0  0  0
    0.8420    0.5724   -1.1363 S   0  0  0  0  0  0  0  0  0  0  0  0
   -0.6609    0.2945   -0.3983 C   0  0  0  0  0  0  0  0  0  0  0  0
   -0.5391   -0.3493    0.8159 C   0  0  0  0  0  0  0  0  0  0  0  0
    0.8371   -0.6522    1.1277 C   0  0  0  0  0  0  0  0  0  0  0  0
    1.2231   -1.2482    2.3763 C   0  0  0  0  0  0  0  0  0  0  0  0
    1.4222   -1.6816    3.4356 N   0  0  0  0  0  0  0  0  0  0  0  0
   -1.7420   -0.6711    1.6521 C   0  0  0  0  0  0  0  0  0  0  0  0
   -2.9742    0.1419    1.2193 C   0  0  0  0  0  0  0  0  0  0  0  0
   -3.1803    0.1172   -0.3223 C   0  0  0  0  0  0  0  0  0  0  0  0
   -4.5677    0.7253   -0.7892 C   0  0  0  0  0  0  0  0  0  0  0  0
   -4.6184    0.7939   -2.3325 C   0  0  0  0  0  0  0  0  0  0  0  0
   -4.7709    2.1531   -0.2413 C   0  0  0  0  0  0  0  0  0  0  0  0
   -5.7184   -0.2016   -0.2765 C   0  0  0  0  0  0  0  0  0  0  0  0
   -7.1324    0.1450   -0.7342 C   0  0  0  0  0  0  0  0  0  0  0  0
   -1.9453    0.7641   -1.0168 C   0  0  0  0  0  0  0  0  0  0  0  0
    7.5862   -0.6322   -1.7824 H   0  0  0  0  0  0  0  0  0  0  0  0
    7.0336   -1.8833   -2.8996 H   0  0  0  0  0  0  0  0  0  0  0  0
    7.4477   -2.3149   -1.2331 H   0  0  0  0  0  0  0  0  0  0  0  0
    4.9705   -2.2175   -1.6571 H   0  0  0  0  0  0  0  0  0  0  0  0
    5.1161   -0.5238   -2.1000 H   0  0  0  0  0  0  0  0  0  0  0  0
    5.9832   -1.6177    0.6300 H   0  0  0  0  0  0  0  0  0  0  0  0
    5.2894    1.2470   -0.2385 H   0  0  0  0  0  0  0  0  0  0  0  0
    6.9139    0.6183   -0.0053 H   0  0  0  0  0  0  0  0  0  0  0  0
    6.2337    1.8560    1.9733 H   0  0  0  0  0  0  0  0  0  0  0  0
    6.3978    0.1446    2.3989 H   0  0  0  0  0  0  0  0  0  0  0  0
    4.7879    0.8602    2.1788 H   0  0  0  0  0  0  0  0  0  0  0  0
    3.3254    0.2312   -0.9727 H   0  0  0  0  0  0  0  0  0  0  0  0
   -1.5394   -0.4722    2.7105 H   0  0  0  0  0  0  0  0  0  0  0  0
   -1.9601   -1.7418    1.5538 H   0  0  0  0  0  0  0  0  0  0  0  0
   -3.8414   -0.2624    1.7485 H   0  0  0  0  0  0  0  0  0  0  0  0
   -2.8488    1.1793    1.5550 H   0  0  0  0  0  0  0  0  0  0  0  0
   -3.1835   -0.9421   -0.6229 H   0  0  0  0  0  0  0  0  0  0  0  0
   -4.4678   -0.1968   -2.7750 H   0  0  0  0  0  0  0  0  0  0  0  0
   -5.5762    1.1820   -2.6935 H   0  0  0  0  0  0  0  0  0  0  0  0
   -3.8553    1.4680   -2.7351 H   0  0  0  0  0  0  0  0  0  0  0  0
   -4.8807    2.1550    0.8481 H   0  0  0  0  0  0  0  0  0  0  0  0
   -3.9332    2.8093   -0.4957 H   0  0  0  0  0  0  0  0  0  0  0  0
   -5.6706    2.6184   -0.6584 H   0  0  0  0  0  0  0  0  0  0  0  0
   -5.7337   -0.2020    0.8187 H   0  0  0  0  0  0  0  0  0  0  0  0
   -5.5121   -1.2352   -0.5832 H   0  0  0  0  0  0  0  0  0  0  0  0
   -7.8488   -0.5329   -0.2575 H   0  0  0  0  0  0  0  0  0  0  0  0
   -7.4124    1.1646   -0.4568 H   0  0  0  0  0  0  0  0  0  0  0  0
   -7.2500    0.0273   -1.8148 H   0  0  0  0  0  0  0  0  0  0  0  0
   -1.9420    0.5039   -2.0816 H   0  0  0  0  0  0  0  0  0  0  0  0
   -1.9855    1.8558   -0.9369 H   0  0  0  0  0  0  0  0  0  0  0  0
  1  2  1  0
  2  3  1  0
  3  4  1  0
  4  5  1  0
  3  6  1  0
  6  7  2  0
  6  8  1  0
  8  9  1  0
  9 10  1  0
 10 11  1  0
 11 12  2  0
 12 13  1  0
 13 14  1  0
 14 15  3  0
 12 16  1  0
 16 17  1  0
 17 18  1  0
 18 19  1  0
 19 20  1  0
 19 21  1  0
 19 22  1  0
 22 23  1  0
 18 24  1  0
 13  9  2  0
 24 11  1  0
  1 25  1  0
  1 26  1  0
  1 27  1  0
  2 28  1  0
  2 29  1  0
  3 30  1  0
  4 31  1  0
  4 32  1  0
  5 33  1  0
  5 34  1  0
  5 35  1  0
  8 36  1  0
 16 37  1  0
 16 38  1  0
 17 39  1  0
 17 40  1  0
 18 41  1  0
 20 42  1  0
 20 43  1  0
 20 44  1  0
 21 45  1  0
 21 46  1  0
 21 47  1  0
 22 48  1  0
 22 49  1  0
 23 50  1  0
 23 51  1  0
 23 52  1  0
 24 53  1  0
 24 54  1  0
M  END
$$$$
