
     RDKit          3D

 40 42  0  0  0  0  0  0  0  0999 V2000
    6.9571   -1.9348    0.4034 C   0  0  0  0  0  0  0  0  0  0  0  0
    5.8175   -1.4799   -0.4166 C   0  0  0  0  0  0  0  0  0  0  0  0
    5.6014   -1.3848   -1.7737 C   0  0  0  0  0  0  0  0  0  0  0  0
    4.2939   -0.8661   -1.9312 C   0  0  0  0  0  0  0  0  0  0  0  0
    3.7872   -0.6735   -0.6609 C   0  0  0  0  0  0  0  0  0  0  0  0
    2.5242   -0.1773   -0.1882 C   0  0  0  0  0  0  0  0  0  0  0  0
    1.5939    0.1460   -1.0319 N   0  0  0  0  0  0  0  0  0  0  0  0
    0.4120    0.6513   -0.5486 N   0  0  0  0  0  0  0  0  0  0  0  0
    0.2691    1.4583    0.5725 C   0  0  0  0  0  0  0  0  0  0  0  0
    1.1798    1.7370    1.3499 O   0  0  0  0  0  0  0  0  0  0  0  0
   -1.0907    2.0438    0.8183 C   0  0  0  0  0  0  0  0  0  0  0  0
   -1.1909    3.0145    1.8325 C   0  0  0  0  0  0  0  0  0  0  0  0
   -2.4129    3.6219    2.1332 C   0  0  0  0  0  0  0  0  0  0  0  0
   -3.5565    3.2730    1.4220 C   0  0  0  0  0  0  0  0  0  0  0  0
   -3.4801    2.3111    0.4167 C   0  0  0  0  0  0  0  0  0  0  0  0
   -2.2584    1.6817    0.1280 C   0  0  0  0  0  0  0  0  0  0  0  0
   -2.2129    0.7588   -0.8941 O   0  0  0  0  0  0  0  0  0  0  0  0
   -3.0139   -0.3566   -0.7697 C   0  0  0  0  0  0  0  0  0  0  0  0
   -3.1741   -1.0565    0.4291 C   0  0  0  0  0  0  0  0  0  0  0  0
   -3.9754   -2.1990    0.4618 C   0  0  0  0  0  0  0  0  0  0  0  0
   -4.6019   -2.6479   -0.7012 C   0  0  0  0  0  0  0  0  0  0  0  0
   -4.4230   -1.9603   -1.9015 C   0  0  0  0  0  0  0  0  0  0  0  0
   -3.6228   -0.8181   -1.9377 C   0  0  0  0  0  0  0  0  0  0  0  0
    4.7191   -1.0511    0.2653 O   0  0  0  0  0  0  0  0  0  0  0  0
    7.7901   -2.2597   -0.2275 H   0  0  0  0  0  0  0  0  0  0  0  0
    6.6610   -2.7763    1.0372 H   0  0  0  0  0  0  0  0  0  0  0  0
    7.3129   -1.1247    1.0473 H   0  0  0  0  0  0  0  0  0  0  0  0
    6.3003   -1.6547   -2.5530 H   0  0  0  0  0  0  0  0  0  0  0  0
    3.7723   -0.6519   -2.8538 H   0  0  0  0  0  0  0  0  0  0  0  0
    2.4006   -0.1351    0.9061 H   0  0  0  0  0  0  0  0  0  0  0  0
   -0.3389    0.6476   -1.2346 H   0  0  0  0  0  0  0  0  0  0  0  0
   -0.3068    3.3106    2.3963 H   0  0  0  0  0  0  0  0  0  0  0  0
   -2.4658    4.3721    2.9189 H   0  0  0  0  0  0  0  0  0  0  0  0
   -4.5064    3.7519    1.6470 H   0  0  0  0  0  0  0  0  0  0  0  0
   -4.3762    2.0526   -0.1431 H   0  0  0  0  0  0  0  0  0  0  0  0
   -2.6766   -0.7338    1.3391 H   0  0  0  0  0  0  0  0  0  0  0  0
   -4.1047   -2.7444    1.3934 H   0  0  0  0  0  0  0  0  0  0  0  0
   -5.2226   -3.5402   -0.6736 H   0  0  0  0  0  0  0  0  0  0  0  0
   -4.9026   -2.3173   -2.8093 H   0  0  0  0  0  0  0  0  0  0  0  0
   -3.4783   -0.2884   -2.8754 H   0  0  0  0  0  0  0  0  0  0  0  0
  1  2  1  0
  2  3  2  0
  3  4  1  0
  4  5  2  0
  5  6  1  0
  6  7  2  0
  7  8  1  0
  8  9  1  0
  9 10  2  0
  9 11  1  0
 11 12  2  0
 12 13  1  0
 13 14  2  0
 14 15  1  0
 15 16  2  0
 16 17  1  0
 17 18  1  0
 18 19  2  0
 19 20  1  0
 20 21  2  0
 21 22  1  0
 22 23  2  0
  5 24  1  0
 24  2  1  0
 16 11  1  0
 23 18  1  0
  1 25  1  0
  1 26  1  0
  1 27  1  0
  3 28  1  0
  4 29  1  0
  6 30  1  0
  8 31  1  0
 12 32  1  0
 13 33  1  0
 14 34  1  0
 15 35  1  0
 19 36  1  0
 20 37  1  0
 21 38  1  0
 22 39  1  0
 23 40  1  0
M  END
$$$$
