
     RDKit          3D

 60 64  0  0  0  0  0  0  0  0999 V2000
   -9.6186   -2.3409    0.1637 O   0  0  0  0  0  0  0  0  0  0  0  0
   -8.4565   -1.9574    0.1764 C   0  0  0  0  0  0  0  0  0  0  0  0
   -7.5909   -2.0552    1.4083 C   0  0  0  0  0  0  0  0  0  0  0  0
   -6.5060   -0.9879    1.3976 C   0  0  0  0  0  0  0  0  0  0  0  0
   -5.6596   -1.1236    0.1320 C   0  0  2  0  0  0  0  0  0  0  0  0
   -4.5815   -0.1439    0.0420 N   0  0  0  0  0  0  0  0  0  0  0  0
   -3.3179   -0.4634   -0.6109 C   0  0  0  0  0  0  0  0  0  0  0  0
   -2.6299    0.8574   -0.6661 C   0  0  0  0  0  0  0  0  0  0  0  0
   -1.3600    1.1711   -1.1184 C   0  0  0  0  0  0  0  0  0  0  0  0
   -0.6243    0.1260   -1.5885 O   0  0  0  0  0  0  0  0  0  0  0  0
    0.6567    0.3875   -2.1672 C   0  0  0  0  0  0  0  0  0  0  0  0
    1.7552    0.3366   -1.1326 C   0  0  0  0  0  0  0  0  0  0  0  0
    2.6899    1.3729   -1.0207 C   0  0  0  0  0  0  0  0  0  0  0  0
    3.7193    1.3054   -0.0763 C   0  0  0  0  0  0  0  0  0  0  0  0
    3.8468    0.1918    0.7637 C   0  0  0  0  0  0  0  0  0  0  0  0
    4.9614    0.0890    1.7850 C   0  0  0  0  0  0  0  0  0  0  0  0
    6.2793   -0.3099    1.2900 N   0  0  0  0  0  0  0  0  0  0  0  0
    7.0421    0.7324    0.5963 C   0  0  0  0  0  0  0  0  0  0  0  0
    7.2950    0.4256   -0.8886 C   0  0  0  0  0  0  0  0  0  0  0  0
    7.9643   -0.8207   -1.1028 O   0  0  0  0  0  0  0  0  0  0  0  0
    7.6799   -1.7998   -0.0960 C   0  0  0  0  0  0  0  0  0  0  0  0
    6.3128   -1.5915    0.5758 C   0  0  0  0  0  0  0  0  0  0  0  0
    2.9062   -0.8411    0.6523 C   0  0  0  0  0  0  0  0  0  0  0  0
    1.8753   -0.7711   -0.2860 C   0  0  0  0  0  0  0  0  0  0  0  0
   -0.9637    2.5123   -1.0466 C   0  0  0  0  0  0  0  0  0  0  0  0
   -1.8346    3.5075   -0.5574 C   0  0  0  0  0  0  0  0  0  0  0  0
   -3.1177    3.1810   -0.1269 C   0  0  0  0  0  0  0  0  0  0  0  0
   -3.4804    1.8515   -0.1886 C   0  0  0  0  0  0  0  0  0  0  0  0
   -4.7447    1.2225    0.2022 C   0  0  0  0  0  0  0  0  0  0  0  0
   -5.7253    1.8309    0.5785 O   0  0  0  0  0  0  0  0  0  0  0  0
   -6.5430   -1.0951   -1.1262 C   0  0  0  0  0  0  0  0  0  0  0  0
   -6.1086   -0.8522   -2.2501 O   0  0  0  0  0  0  0  0  0  0  0  0
   -7.8548   -1.4845   -0.9601 N   0  0  0  0  0  0  0  0  0  0  0  0
   -8.2271   -1.9144    2.2890 H   0  0  0  0  0  0  0  0  0  0  0  0
   -7.1568   -3.0627    1.4502 H   0  0  0  0  0  0  0  0  0  0  0  0
   -6.9933   -0.0060    1.4541 H   0  0  0  0  0  0  0  0  0  0  0  0
   -5.8734   -1.0822    2.2883 H   0  0  0  0  0  0  0  0  0  0  0  0
   -5.1792   -2.1108    0.1499 H   0  0  0  0  0  0  0  0  0  0  0  0
   -3.5064   -0.8533   -1.6130 H   0  0  0  0  0  0  0  0  0  0  0  0
   -2.7787   -1.1880    0.0021 H   0  0  0  0  0  0  0  0  0  0  0  0
    0.6659    1.3107   -2.7575 H   0  0  0  0  0  0  0  0  0  0  0  0
    0.8470   -0.4173   -2.8880 H   0  0  0  0  0  0  0  0  0  0  0  0
    2.6284    2.2439   -1.6690 H   0  0  0  0  0  0  0  0  0  0  0  0
    4.4244    2.1331   -0.0063 H   0  0  0  0  0  0  0  0  0  0  0  0
    4.6634   -0.6344    2.5564 H   0  0  0  0  0  0  0  0  0  0  0  0
    5.0323    1.0394    2.3286 H   0  0  0  0  0  0  0  0  0  0  0  0
    8.0150    0.7903    1.0952 H   0  0  0  0  0  0  0  0  0  0  0  0
    6.5928    1.7219    0.7019 H   0  0  0  0  0  0  0  0  0  0  0  0
    7.9171    1.2074   -1.3273 H   0  0  0  0  0  0  0  0  0  0  0  0
    6.3548    0.4090   -1.4523 H   0  0  0  0  0  0  0  0  0  0  0  0
    7.7195   -2.7806   -0.5781 H   0  0  0  0  0  0  0  0  0  0  0  0
    8.4890   -1.7710    0.6447 H   0  0  0  0  0  0  0  0  0  0  0  0
    6.1206   -2.4085    1.2775 H   0  0  0  0  0  0  0  0  0  0  0  0
    5.5508   -1.6279   -0.2103 H   0  0  0  0  0  0  0  0  0  0  0  0
    2.9747   -1.7150    1.2947 H   0  0  0  0  0  0  0  0  0  0  0  0
    1.1606   -1.5853   -0.3517 H   0  0  0  0  0  0  0  0  0  0  0  0
    0.0241    2.8320   -1.3579 H   0  0  0  0  0  0  0  0  0  0  0  0
   -1.4994    4.5413   -0.5183 H   0  0  0  0  0  0  0  0  0  0  0  0
   -3.8039    3.9317    0.2484 H   0  0  0  0  0  0  0  0  0  0  0  0
   -8.4284   -1.4666   -1.7905 H   0  0  0  0  0  0  0  0  0  0  0  0
  1  2  2  0
  2  3  1  0
  3  4  1  0
  4  5  1  0
  5  6  1  0
  6  7  1  0
  7  8  1  0
  8  9  2  0
  9 10  1  0
 10 11  1  0
 11 12  1  0
 12 13  2  0
 13 14  1  0
 14 15  2  0
 15 16  1  0
 16 17  1  0
 17 18  1  0
 18 19  1  0
 19 20  1  0
 20 21  1  0
 21 22  1  0
 15 23  1  0
 23 24  2  0
  9 25  1  0
 25 26  2  0
 26 27  1  0
 27 28  2  0
 28 29  1  0
 29 30  2  0
  5 31  1  0
 31 32  2  0
 31 33  1  0
 33  2  1  0
 29  6  1  0
 28  8  1  0
 24 12  1  0
 22 17  1  0
  3 34  1  0
  3 35  1  0
  4 36  1  0
  4 37  1  0
  5 38  1  1
  7 39  1  0
  7 40  1  0
 11 41  1  0
 11 42  1  0
 13 43  1  0
 14 44  1  0
 16 45  1  0
 16 46  1  0
 18 47  1  0
 18 48  1  0
 19 49  1  0
 19 50  1  0
 21 51  1  0
 21 52  1  0
 22 53  1  0
 22 54  1  0
 23 55  1  0
 24 56  1  0
 25 57  1  0
 26 58  1  0
 27 59  1  0
 33 60  1  0
M  END
$$$$
