
     RDKit          3D

 14 13  0  0  0  0  0  0  0  0999 V2000
    0.6856    0.0000    0.0000 Cl  0  0  0  0  0  0  0  0  0  0  0  0
    2.4181    0.0147   -0.2970 N   0  0  0  0  0  0  0  0  0  0  0  0
    1.0115    0.0834   -0.1966 C   0  0  0  0  0  0  0  0  0  0  0  0
    0.1336   -0.6565   -0.7238 N   0  0  0  0  0  0  0  0  0  0  0  0
   -1.2235   -0.4079   -0.4917 C   0  0  0  0  0  0  0  0  0  0  0  0
   -1.4265    0.2630    0.8495 C   0  0  0  0  0  0  0  0  0  0  0  0
    0.1086    1.2928    0.7733 S   0  0  0  0  0  0  0  0  0  0  0  0
   -0.6856    0.0000    0.0000 H   0  0  0  0  0  0  0  0  0  0  0  0
    3.0155    0.8720   -0.4906 H   0  0  0  0  0  0  0  0  0  0  0  0
    2.9703   -0.8706   -0.1904 H   0  0  0  0  0  0  0  0  0  0  0  0
   -1.5984    0.3159   -1.2511 H   0  0  0  0  0  0  0  0  0  0  0  0
   -1.7714   -1.3728   -0.5435 H   0  0  0  0  0  0  0  0  0  0  0  0
   -1.3203   -0.4367    1.6810 H   0  0  0  0  0  0  0  0  0  0  0  0
   -2.3175    0.9026    0.8809 H   0  0  0  0  0  0  0  0  0  0  0  0
  2  3  1  0
  3  4  2  0
  4  5  1  0
  5  6  1  0
  6  7  1  0
  7  3  1  0
  1  8  1  0
  2  9  1  0
  2 10  1  0
  5 11  1  0
  5 12  1  0
  6 13  1  0
  6 14  1  0
M  END
$$$$
