
     RDKit          3D

 33 34  0  0  0  0  0  0  0  0999 V2000
   -0.5905   -1.8896    1.4684 C   0  0  0  0  0  0  0  0  0  0  0  0
   -0.1164   -1.1786    0.1736 C   0  0  0  0  0  0  0  0  0  0  0  0
    0.1761   -2.3069   -0.8502 C   0  0  0  0  0  0  0  0  0  0  0  0
   -1.2689   -0.2360   -0.2519 C   0  0  0  0  0  0  0  0  0  0  0  0
   -1.5492    0.9133    0.5188 C   0  0  0  0  0  0  0  0  0  0  0  0
   -2.5825    1.7891    0.1744 C   0  0  0  0  0  0  0  0  0  0  0  0
   -3.3545    1.5231   -0.9477 C   0  0  0  0  0  0  0  0  0  0  0  0
   -4.3725    2.3477   -1.3239 O   0  0  0  0  0  0  0  0  0  0  0  0
   -3.1086    0.3999   -1.7241 C   0  0  0  0  0  0  0  0  0  0  0  0
   -2.0739   -0.4755   -1.3791 C   0  0  0  0  0  0  0  0  0  0  0  0
    1.2069   -0.3926    0.3445 C   0  0  0  0  0  0  0  0  0  0  0  0
    1.9826   -0.4497    1.5154 C   0  0  0  0  0  0  0  0  0  0  0  0
    3.1751    0.2727    1.6250 C   0  0  0  0  0  0  0  0  0  0  0  0
    3.6094    1.0585    0.5674 C   0  0  0  0  0  0  0  0  0  0  0  0
    4.7767    1.7453    0.7209 O   0  0  0  0  0  0  0  0  0  0  0  0
    2.8713    1.1356   -0.6053 C   0  0  0  0  0  0  0  0  0  0  0  0
    1.6801    0.4127   -0.7142 C   0  0  0  0  0  0  0  0  0  0  0  0
   -0.7353   -1.1882    2.2987 H   0  0  0  0  0  0  0  0  0  0  0  0
   -1.5480   -2.4018    1.3095 H   0  0  0  0  0  0  0  0  0  0  0  0
    0.1278   -2.6492    1.7995 H   0  0  0  0  0  0  0  0  0  0  0  0
   -0.6835   -2.9772   -0.9706 H   0  0  0  0  0  0  0  0  0  0  0  0
    0.4290   -1.9132   -1.8418 H   0  0  0  0  0  0  0  0  0  0  0  0
    1.0218   -2.9259   -0.5246 H   0  0  0  0  0  0  0  0  0  0  0  0
   -0.9497    1.1395    1.3995 H   0  0  0  0  0  0  0  0  0  0  0  0
   -2.7624    2.6640    0.7904 H   0  0  0  0  0  0  0  0  0  0  0  0
   -4.4233    3.0815   -0.6899 H   0  0  0  0  0  0  0  0  0  0  0  0
   -3.7216    0.2015   -2.5989 H   0  0  0  0  0  0  0  0  0  0  0  0
   -1.9202   -1.3434   -2.0138 H   0  0  0  0  0  0  0  0  0  0  0  0
    1.6835   -1.0540    2.3669 H   0  0  0  0  0  0  0  0  0  0  0  0
    3.7632    0.2189    2.5369 H   0  0  0  0  0  0  0  0  0  0  0  0
    4.9493    2.2435   -0.0946 H   0  0  0  0  0  0  0  0  0  0  0  0
    3.1980    1.7467   -1.4402 H   0  0  0  0  0  0  0  0  0  0  0  0
    1.1105    0.4884   -1.6393 H   0  0  0  0  0  0  0  0  0  0  0  0
  1  2  1  0
  2  3  1  0
  2  4  1  0
  4  5  2  0
  5  6  1  0
  6  7  2  0
  7  8  1  0
  7  9  1  0
  9 10  2  0
  2 11  1  0
 11 12  2  0
 12 13  1  0
 13 14  2  0
 14 15  1  0
 14 16  1  0
 16 17  2  0
 10  4  1  0
 17 11  1  0
  1 18  1  0
  1 19  1  0
  1 20  1  0
  3 21  1  0
  3 22  1  0
  3 23  1  0
  5 24  1  0
  6 25  1  0
  8 26  1  0
  9 27  1  0
 10 28  1  0
 12 29  1  0
 13 30  1  0
 15 31  1  0
 16 32  1  0
 17 33  1  0
M  END
$$$$
