
     RDKit          3D

 53 56  0  0  0  0  0  0  0  0999 V2000
    2.4489    1.7549    0.1885 O   0  0  0  0  0  0  0  0  0  0  0  0
    3.5624    1.2543    0.0701 C   0  0  0  0  0  0  0  0  0  0  0  0
    3.8162   -0.0585   -0.2566 N   0  0  0  0  0  0  0  0  0  0  0  0
    2.8871   -1.1002   -0.4626 C   0  0  0  0  0  0  0  0  0  0  0  0
    3.3949   -2.3223   -0.9098 C   0  0  0  0  0  0  0  0  0  0  0  0
    2.5416   -3.4005   -1.1344 C   0  0  0  0  0  0  0  0  0  0  0  0
    1.1705   -3.2661   -0.9093 C   0  0  0  0  0  0  0  0  0  0  0  0
    0.6281   -2.0597   -0.4563 C   0  0  0  0  0  0  0  0  0  0  0  0
   -0.7346   -1.8686   -0.1904 N   0  0  0  0  0  0  0  0  0  0  0  0
   -1.8479   -2.7028   -0.1840 C   0  0  0  0  0  0  0  0  0  0  0  0
   -1.7528   -4.0154   -0.4335 N   0  0  0  0  0  0  0  0  0  0  0  0
   -2.8900   -4.7319   -0.3798 C   0  0  0  0  0  0  0  0  0  0  0  0
   -4.1159   -4.1909   -0.0793 C   0  0  0  0  0  0  0  0  0  0  0  0
   -5.6484   -5.2925   -0.0214 Br  0  0  0  0  0  0  0  0  0  0  0  0
   -4.1384   -2.8275    0.1748 C   0  0  0  0  0  0  0  0  0  0  0  0
   -5.3649   -2.1852    0.4424 N   0  0  0  0  0  0  0  0  0  0  0  0
   -5.3017   -0.7604    0.8006 C   0  0  0  0  0  0  0  0  0  0  0  0
   -5.2138    0.1310   -0.4430 C   0  0  0  0  0  0  0  0  0  0  0  0
   -5.1937    1.5893   -0.1286 C   0  0  0  0  0  0  0  0  0  0  0  0
   -4.8559    2.6379   -0.9670 C   0  0  0  0  0  0  0  0  0  0  0  0
   -5.0016    3.7659   -0.2092 N   0  0  0  0  0  0  0  0  0  0  0  0
   -5.4489    3.3773    1.0289 C   0  0  0  0  0  0  0  0  0  0  0  0
   -5.5663    2.0713    1.1119 N   0  0  0  0  0  0  0  0  0  0  0  0
   -3.0098   -2.0939    0.1101 N   0  0  0  0  0  0  0  0  0  0  0  0
    1.5112   -0.9845   -0.2332 C   0  0  0  0  0  0  0  0  0  0  0  0
    4.6993    2.0148    0.2644 N   0  0  0  0  0  0  0  0  0  0  0  0
    4.5929    3.4325    0.5645 C   0  0  0  0  0  0  0  0  0  0  0  0
    6.0168    3.9535    0.4502 C   0  0  0  0  0  0  0  0  0  0  0  0
    6.8451    2.7585    0.8969 C   0  0  0  0  0  0  0  0  0  0  0  0
    6.0852    1.5753    0.3116 C   0  0  0  0  0  0  0  0  0  0  0  0
    4.7715   -0.2739   -0.4846 H   0  0  0  0  0  0  0  0  0  0  0  0
    4.4570   -2.4538   -1.0904 H   0  0  0  0  0  0  0  0  0  0  0  0
    2.9386   -4.3474   -1.4907 H   0  0  0  0  0  0  0  0  0  0  0  0
    0.5367   -4.1260   -1.1020 H   0  0  0  0  0  0  0  0  0  0  0  0
   -1.0219   -0.9317    0.0554 H   0  0  0  0  0  0  0  0  0  0  0  0
   -2.7707   -5.7897   -0.5928 H   0  0  0  0  0  0  0  0  0  0  0  0
   -5.8748   -2.7241    1.1416 H   0  0  0  0  0  0  0  0  0  0  0  0
   -4.4869   -0.5587    1.5072 H   0  0  0  0  0  0  0  0  0  0  0  0
   -6.2298   -0.5239    1.3376 H   0  0  0  0  0  0  0  0  0  0  0  0
   -6.0733   -0.0729   -1.1003 H   0  0  0  0  0  0  0  0  0  0  0  0
   -4.3154   -0.1152   -1.0285 H   0  0  0  0  0  0  0  0  0  0  0  0
   -4.5294    2.6713   -2.0004 H   0  0  0  0  0  0  0  0  0  0  0  0
   -4.8291    4.7167   -0.5103 H   0  0  0  0  0  0  0  0  0  0  0  0
   -5.6638    4.0838    1.8227 H   0  0  0  0  0  0  0  0  0  0  0  0
    1.0964   -0.0518    0.1383 H   0  0  0  0  0  0  0  0  0  0  0  0
    4.2120    3.5346    1.5868 H   0  0  0  0  0  0  0  0  0  0  0  0
    3.9043    3.9287   -0.1241 H   0  0  0  0  0  0  0  0  0  0  0  0
    6.2468    4.1927   -0.5945 H   0  0  0  0  0  0  0  0  0  0  0  0
    6.1910    4.8483    1.0556 H   0  0  0  0  0  0  0  0  0  0  0  0
    7.8819    2.8033    0.5554 H   0  0  0  0  0  0  0  0  0  0  0  0
    6.8467    2.6999    1.9914 H   0  0  0  0  0  0  0  0  0  0  0  0
    6.1908    0.6714    0.9193 H   0  0  0  0  0  0  0  0  0  0  0  0
    6.4060    1.3628   -0.7137 H   0  0  0  0  0  0  0  0  0  0  0  0
  1  2  2  0
  2  3  1  0
  3  4  1  0
  4  5  2  0
  5  6  1  0
  6  7  2  0
  7  8  1  0
  8  9  1  0
  9 10  1  0
 10 11  2  0
 11 12  1  0
 12 13  2  0
 13 14  1  0
 13 15  1  0
 15 16  1  0
 16 17  1  0
 17 18  1  0
 18 19  1  0
 19 20  2  0
 20 21  1  0
 21 22  1  0
 22 23  2  0
 15 24  2  0
  8 25  2  0
  2 26  1  0
 26 27  1  0
 27 28  1  0
 28 29  1  0
 29 30  1  0
 25  4  1  0
 30 26  1  0
 24 10  1  0
 23 19  1  0
  3 31  1  0
  5 32  1  0
  6 33  1  0
  7 34  1  0
  9 35  1  0
 12 36  1  0
 16 37  1  0
 17 38  1  0
 17 39  1  0
 18 40  1  0
 18 41  1  0
 20 42  1  0
 21 43  1  0
 22 44  1  0
 25 45  1  0
 27 46  1  0
 27 47  1  0
 28 48  1  0
 28 49  1  0
 29 50  1  0
 29 51  1  0
 30 52  1  0
 30 53  1  0
M  END
$$$$
