
     RDKit          3D

 66 70  0  0  0  0  0  0  0  0999 V2000
   -6.4286    1.6002   -4.5458 C   0  0  0  0  0  0  0  0  0  0  0  0
   -5.5674    1.0696   -3.5265 N   0  0  0  0  0  0  0  0  0  0  0  0
   -5.6892    1.3822   -2.1834 C   0  0  0  0  0  0  0  0  0  0  0  0
   -6.6111    2.0577   -1.7217 O   0  0  0  0  0  0  0  0  0  0  0  0
   -4.5536    0.8644   -1.3953 C   0  0  0  0  0  0  0  0  0  0  0  0
   -3.3999    0.5923   -2.0413 N   0  0  0  0  0  0  0  0  0  0  0  0
   -2.5612    0.1481   -1.0867 N   0  0  0  0  0  0  0  0  0  0  0  0
   -1.2400   -0.2810   -1.4829 C   0  0  0  0  0  0  0  0  0  0  0  0
   -3.1339    0.0921    0.1499 C   0  0  0  0  0  0  0  0  0  0  0  0
   -4.4467    0.5223   -0.0085 C   0  0  0  0  0  0  0  0  0  0  0  0
   -5.4664    0.4170    1.1211 C   0  0  0  0  0  0  0  0  0  0  0  0
   -6.3198    1.6828    1.2974 C   0  0  0  0  0  0  0  0  0  0  0  0
   -6.4046   -0.7821    0.8268 C   0  0  0  0  0  0  0  0  0  0  0  0
   -4.7560    0.1558    2.5109 C   0  0  0  0  0  0  0  0  0  0  0  0
   -3.4038   -0.5012    2.4882 C   0  0  0  0  0  0  0  0  0  0  0  0
   -2.8391   -1.0948    3.5923 C   0  0  0  0  0  0  0  0  0  0  0  0
   -1.5788   -1.5666    3.6164 N   0  0  0  0  0  0  0  0  0  0  0  0
   -0.8317   -1.3942    2.5063 C   0  0  0  0  0  0  0  0  0  0  0  0
    0.4888   -1.8305    2.6099 N   0  0  0  0  0  0  0  0  0  0  0  0
    1.6749   -1.3408    2.0462 C   0  0  0  0  0  0  0  0  0  0  0  0
    2.8718   -2.0158    2.2963 C   0  0  0  0  0  0  0  0  0  0  0  0
    4.0838   -1.5995    1.7229 C   0  0  0  0  0  0  0  0  0  0  0  0
    4.1670   -0.4898    0.8689 C   0  0  0  0  0  0  0  0  0  0  0  0
    5.3635   -0.0871    0.3026 N   0  0  0  0  0  0  0  0  0  0  0  0
    5.4385    0.9146   -0.7859 C   0  0  0  0  0  0  0  0  0  0  0  0
    6.6622    0.6375   -1.6972 C   0  0  0  0  0  0  0  0  0  0  0  0
    7.9780    0.6461   -1.0089 N   0  0  0  0  0  0  0  0  0  0  0  0
    8.8712   -0.3361   -1.6204 C   0  0  0  0  0  0  0  0  0  0  0  0
    7.8135    0.3762    0.4400 C   0  0  0  0  0  0  0  0  0  0  0  0
    6.6574   -0.5916    0.7963 C   0  0  0  0  0  0  0  0  0  0  0  0
    2.9558    0.1666    0.6191 C   0  0  0  0  0  0  0  0  0  0  0  0
    1.7382   -0.2543    1.1798 C   0  0  0  0  0  0  0  0  0  0  0  0
   -1.3021   -0.8623    1.3663 N   0  0  0  0  0  0  0  0  0  0  0  0
   -2.5776   -0.4432    1.3828 C   0  0  0  0  0  0  0  0  0  0  0  0
   -6.7147    0.7809   -5.2124 H   0  0  0  0  0  0  0  0  0  0  0  0
   -7.3247    2.0627   -4.1189 H   0  0  0  0  0  0  0  0  0  0  0  0
   -5.8645    2.3497   -5.1102 H   0  0  0  0  0  0  0  0  0  0  0  0
   -4.6745    0.6490   -3.7826 H   0  0  0  0  0  0  0  0  0  0  0  0
   -1.0999   -0.0826   -2.5516 H   0  0  0  0  0  0  0  0  0  0  0  0
   -0.5063    0.2970   -0.9146 H   0  0  0  0  0  0  0  0  0  0  0  0
   -1.1451   -1.3557   -1.2934 H   0  0  0  0  0  0  0  0  0  0  0  0
   -7.0794    1.7842    0.5166 H   0  0  0  0  0  0  0  0  0  0  0  0
   -6.8696    1.6522    2.2519 H   0  0  0  0  0  0  0  0  0  0  0  0
   -5.7002    2.5904    1.2960 H   0  0  0  0  0  0  0  0  0  0  0  0
   -5.8424   -1.7187    0.7399 H   0  0  0  0  0  0  0  0  0  0  0  0
   -6.9551   -0.6372   -0.1089 H   0  0  0  0  0  0  0  0  0  0  0  0
   -7.1416   -0.9120    1.6251 H   0  0  0  0  0  0  0  0  0  0  0  0
   -4.6016    1.1226    3.0222 H   0  0  0  0  0  0  0  0  0  0  0  0
   -5.4268   -0.4248    3.1614 H   0  0  0  0  0  0  0  0  0  0  0  0
   -3.3861   -1.1996    4.5263 H   0  0  0  0  0  0  0  0  0  0  0  0
    0.6001   -2.2465    3.5273 H   0  0  0  0  0  0  0  0  0  0  0  0
    2.8791   -2.8890    2.9421 H   0  0  0  0  0  0  0  0  0  0  0  0
    4.9666   -2.1894    1.9513 H   0  0  0  0  0  0  0  0  0  0  0  0
    5.5061    1.9220   -0.3561 H   0  0  0  0  0  0  0  0  0  0  0  0
    4.5518    0.8803   -1.4300 H   0  0  0  0  0  0  0  0  0  0  0  0
    6.4852   -0.3341   -2.1842 H   0  0  0  0  0  0  0  0  0  0  0  0
    6.6948    1.3927   -2.4941 H   0  0  0  0  0  0  0  0  0  0  0  0
    9.8756   -0.2537   -1.1902 H   0  0  0  0  0  0  0  0  0  0  0  0
    8.5071   -1.3573   -1.4632 H   0  0  0  0  0  0  0  0  0  0  0  0
    8.9763   -0.1733   -2.6968 H   0  0  0  0  0  0  0  0  0  0  0  0
    7.6234    1.3428    0.9239 H   0  0  0  0  0  0  0  0  0  0  0  0
    8.7510    0.0196    0.8807 H   0  0  0  0  0  0  0  0  0  0  0  0
    6.6481   -0.7045    1.8858 H   0  0  0  0  0  0  0  0  0  0  0  0
    6.8490   -1.5763    0.3408 H   0  0  0  0  0  0  0  0  0  0  0  0
    2.9163    1.0389   -0.0220 H   0  0  0  0  0  0  0  0  0  0  0  0
    0.8489    0.3152    0.9334 H   0  0  0  0  0  0  0  0  0  0  0  0
  1  2  1  0
  2  3  1  0
  3  4  2  0
  3  5  1  0
  5  6  2  0
  6  7  1  0
  7  8  1  0
  7  9  1  0
  9 10  2  0
 10 11  1  0
 11 12  1  0
 11 13  1  0
 11 14  1  0
 14 15  1  0
 15 16  2  0
 16 17  1  0
 17 18  2  0
 18 19  1  0
 19 20  1  0
 20 21  2  0
 21 22  1  0
 22 23  2  0
 23 24  1  0
 24 25  1  0
 25 26  1  0
 26 27  1  0
 27 28  1  0
 27 29  1  0
 29 30  1  0
 23 31  1  0
 31 32  2  0
 18 33  1  0
 33 34  2  0
 10  5  1  0
 34 15  1  0
 34  9  1  0
 32 20  1  0
 30 24  1  0
  1 35  1  0
  1 36  1  0
  1 37  1  0
  2 38  1  0
  8 39  1  0
  8 40  1  0
  8 41  1  0
 12 42  1  0
 12 43  1  0
 12 44  1  0
 13 45  1  0
 13 46  1  0
 13 47  1  0
 14 48  1  0
 14 49  1  0
 16 50  1  0
 19 51  1  0
 21 52  1  0
 22 53  1  0
 25 54  1  0
 25 55  1  0
 26 56  1  0
 26 57  1  0
 28 58  1  0
 28 59  1  0
 28 60  1  0
 29 61  1  0
 29 62  1  0
 30 63  1  0
 30 64  1  0
 31 65  1  0
 32 66  1  0
M  END
$$$$
