
     RDKit          3D

 68 72  0  0  0  0  0  0  0  0999 V2000
    9.4965   -0.9754    0.7574 C   0  0  0  0  0  0  0  0  0  0  0  0
    8.5700   -0.0425    1.3473 N   0  0  0  0  0  0  0  0  0  0  0  0
    7.2050   -0.2301    1.2900 C   0  0  0  0  0  0  0  0  0  0  0  0
    6.7121   -1.2363    0.7807 O   0  0  0  0  0  0  0  0  0  0  0  0
    6.3194    0.8369    1.8701 C   0  0  0  0  0  0  0  0  0  0  0  0
    6.8706    1.9374    2.5441 C   0  0  0  0  0  0  0  0  0  0  0  0
    8.2002    2.0832    2.6706 F   0  0  0  0  0  0  0  0  0  0  0  0
    6.0693    2.9254    3.1123 C   0  0  0  0  0  0  0  0  0  0  0  0
    4.6892    2.8289    3.0130 C   0  0  0  0  0  0  0  0  0  0  0  0
    4.1192    1.7471    2.3376 C   0  0  0  0  0  0  0  0  0  0  0  0
    4.9059    0.7360    1.7537 C   0  0  0  0  0  0  0  0  0  0  0  0
    4.3150   -0.3424    1.0608 N   0  0  0  0  0  0  0  0  0  0  0  0
    3.0179   -0.6001    0.6003 C   0  0  0  0  0  0  0  0  0  0  0  0
    2.0481    0.3540    0.6054 N   0  0  0  0  0  0  0  0  0  0  0  0
    0.8066    0.0877    0.1463 C   0  0  0  0  0  0  0  0  0  0  0  0
   -0.0631    1.1726    0.1836 N   0  0  0  0  0  0  0  0  0  0  0  0
   -1.3864    1.3922   -0.2433 C   0  0  0  0  0  0  0  0  0  0  0  0
   -2.2424    0.3591   -0.6585 C   0  0  0  0  0  0  0  0  0  0  0  0
   -3.5341    0.6624   -1.0597 C   0  0  0  0  0  0  0  0  0  0  0  0
   -3.9849    1.9817   -1.0658 C   0  0  0  0  0  0  0  0  0  0  0  0
   -3.1699    3.0284   -0.6619 C   0  0  0  0  0  0  0  0  0  0  0  0
   -1.8707    2.7334   -0.2363 C   0  0  0  0  0  0  0  0  0  0  0  0
   -0.9600    3.6726    0.2002 O   0  0  0  0  0  0  0  0  0  0  0  0
   -1.4145    5.0155    0.3058 C   0  0  0  0  0  0  0  0  0  0  0  0
   -5.3786    2.0767   -1.5985 C   0  0  0  0  0  0  0  0  0  0  0  0
   -5.7890    0.6017   -1.6565 C   0  0  0  0  0  0  0  0  0  0  0  0
   -4.5642   -0.2013   -1.4886 N   0  0  0  0  0  0  0  0  0  0  0  0
   -4.4786   -1.5811   -1.5990 C   0  0  0  0  0  0  0  0  0  0  0  0
   -3.4562   -2.2414   -1.3931 O   0  0  0  0  0  0  0  0  0  0  0  0
   -5.7506   -2.3216   -2.0468 C   0  0  0  0  0  0  0  0  0  0  0  0
   -6.8439   -2.2465   -1.0465 N   0  0  0  0  0  0  0  0  0  0  0  0
   -6.4297   -2.8435    0.2301 C   0  0  0  0  0  0  0  0  0  0  0  0
   -8.0228   -2.9504   -1.5538 C   0  0  0  0  0  0  0  0  0  0  0  0
    0.4075   -1.0956   -0.3307 N   0  0  0  0  0  0  0  0  0  0  0  0
    1.3707   -2.0189   -0.3373 C   0  0  0  0  0  0  0  0  0  0  0  0
    1.2094   -3.3027   -0.7775 N   0  0  0  0  0  0  0  0  0  0  0  0
    2.3947   -3.9841   -0.6536 C   0  0  0  0  0  0  0  0  0  0  0  0
    3.3233   -3.1143   -0.1192 C   0  0  0  0  0  0  0  0  0  0  0  0
    2.6744   -1.8619    0.0885 C   0  0  0  0  0  0  0  0  0  0  0  0
   10.4416   -0.9162    1.3046 H   0  0  0  0  0  0  0  0  0  0  0  0
    9.1056   -1.9951    0.8043 H   0  0  0  0  0  0  0  0  0  0  0  0
    9.6565   -0.6892   -0.2864 H   0  0  0  0  0  0  0  0  0  0  0  0
    8.9401    0.8273    1.7180 H   0  0  0  0  0  0  0  0  0  0  0  0
    6.5301    3.7603    3.6310 H   0  0  0  0  0  0  0  0  0  0  0  0
    4.0480    3.5872    3.4579 H   0  0  0  0  0  0  0  0  0  0  0  0
    3.0345    1.6954    2.2925 H   0  0  0  0  0  0  0  0  0  0  0  0
    4.9854   -1.0754    0.8087 H   0  0  0  0  0  0  0  0  0  0  0  0
    0.4314    2.0128    0.4543 H   0  0  0  0  0  0  0  0  0  0  0  0
   -1.9043   -0.6689   -0.6523 H   0  0  0  0  0  0  0  0  0  0  0  0
   -3.5567    4.0389   -0.6920 H   0  0  0  0  0  0  0  0  0  0  0  0
   -1.6534    5.4284   -0.6802 H   0  0  0  0  0  0  0  0  0  0  0  0
   -0.5989    5.6104    0.7269 H   0  0  0  0  0  0  0  0  0  0  0  0
   -2.2690    5.0979    0.9884 H   0  0  0  0  0  0  0  0  0  0  0  0
   -6.0413    2.6533   -0.9475 H   0  0  0  0  0  0  0  0  0  0  0  0
   -5.3682    2.5194   -2.6004 H   0  0  0  0  0  0  0  0  0  0  0  0
   -6.4652    0.3688   -0.8261 H   0  0  0  0  0  0  0  0  0  0  0  0
   -6.2907    0.3570   -2.5979 H   0  0  0  0  0  0  0  0  0  0  0  0
   -5.4784   -3.3686   -2.2416 H   0  0  0  0  0  0  0  0  0  0  0  0
   -6.0683   -1.8920   -3.0050 H   0  0  0  0  0  0  0  0  0  0  0  0
   -5.6221   -2.2684    0.6965 H   0  0  0  0  0  0  0  0  0  0  0  0
   -6.0962   -3.8799    0.1125 H   0  0  0  0  0  0  0  0  0  0  0  0
   -7.2612   -2.8311    0.9439 H   0  0  0  0  0  0  0  0  0  0  0  0
   -7.8304   -4.0162   -1.7221 H   0  0  0  0  0  0  0  0  0  0  0  0
   -8.8590   -2.8520   -0.8511 H   0  0  0  0  0  0  0  0  0  0  0  0
   -8.3586   -2.5080   -2.4981 H   0  0  0  0  0  0  0  0  0  0  0  0
    0.3354   -3.6647   -1.1323 H   0  0  0  0  0  0  0  0  0  0  0  0
    2.4721   -5.0216   -0.9494 H   0  0  0  0  0  0  0  0  0  0  0  0
    4.3558   -3.3527    0.1056 H   0  0  0  0  0  0  0  0  0  0  0  0
  1  2  1  0
  2  3  1  0
  3  4  2  0
  3  5  1  0
  5  6  2  0
  6  7  1  0
  6  8  1  0
  8  9  2  0
  9 10  1  0
 10 11  2  0
 11 12  1  0
 12 13  1  0
 13 14  2  0
 14 15  1  0
 15 16  1  0
 16 17  1  0
 17 18  2  0
 18 19  1  0
 19 20  2  0
 20 21  1  0
 21 22  2  0
 22 23  1  0
 23 24  1  0
 20 25  1  0
 25 26  1  0
 26 27  1  0
 27 28  1  0
 28 29  2  0
 28 30  1  0
 30 31  1  0
 31 32  1  0
 31 33  1  0
 15 34  2  0
 34 35  1  0
 35 36  1  0
 36 37  1  0
 37 38  2  0
 38 39  1  0
 11  5  1  0
 39 13  1  0
 22 17  1  0
 39 35  2  0
 27 19  1  0
  1 40  1  0
  1 41  1  0
  1 42  1  0
  2 43  1  0
  8 44  1  0
  9 45  1  0
 10 46  1  0
 12 47  1  0
 16 48  1  0
 18 49  1  0
 21 50  1  0
 24 51  1  0
 24 52  1  0
 24 53  1  0
 25 54  1  0
 25 55  1  0
 26 56  1  0
 26 57  1  0
 30 58  1  0
 30 59  1  0
 32 60  1  0
 32 61  1  0
 32 62  1  0
 33 63  1  0
 33 64  1  0
 33 65  1  0
 36 66  1  0
 37 67  1  0
 38 68  1  0
M  END
$$$$
