
     RDKit          3D

 54 58  0  0  0  0  0  0  0  0999 V2000
    1.3181   -2.5100   -4.3159 O   0  0  0  0  0  0  0  0  0  0  0  0
    0.7416   -1.5107   -3.8869 C   0  0  0  0  0  0  0  0  0  0  0  0
    0.2724   -0.4058   -4.8235 C   0  0  0  0  0  0  0  0  0  0  0  0
   -0.8739    0.3340   -4.4509 O   0  0  0  0  0  0  0  0  0  0  0  0
   -0.9084    0.6271   -3.1151 C   0  0  0  0  0  0  0  0  0  0  0  0
   -1.7087    1.7199   -2.7679 C   0  0  0  0  0  0  0  0  0  0  0  0
   -1.8404    2.0945   -1.4344 C   0  0  0  0  0  0  0  0  0  0  0  0
   -1.1897    1.3483   -0.4515 C   0  0  0  0  0  0  0  0  0  0  0  0
   -1.3141    1.8461    1.2574 S   0  0  0  0  0  6  0  0  0  0  0  0
   -0.0852    1.4530    1.9131 O   0  0  0  0  0  0  0  0  0  0  0  0
   -1.7600    3.2233    1.2704 O   0  0  0  0  0  0  0  0  0  0  0  0
   -2.5754    0.8773    1.8452 N   0  0  0  0  0  0  0  0  0  0  0  0
   -2.3021   -0.5534    2.1158 C   0  0  0  0  0  0  0  0  0  0  0  0
   -3.2503   -1.4530    1.3338 C   0  0  0  0  0  0  0  0  0  0  0  0
   -4.7119   -1.1758    1.6814 C   0  0  0  0  0  0  0  0  0  0  0  0
   -4.9547    0.2806    2.0755 C   0  0  0  0  0  0  0  0  0  0  0  0
   -3.9506    1.2163    1.4122 C   0  0  0  0  0  0  0  0  0  0  0  0
   -0.3882    0.2504   -0.7958 C   0  0  0  0  0  0  0  0  0  0  0  0
   -0.2409   -0.1283   -2.1370 C   0  0  0  0  0  0  0  0  0  0  0  0
    0.5271   -1.2604   -2.5374 N   0  0  0  0  0  0  0  0  0  0  0  0
    1.1379   -2.1721   -1.5697 C   0  0  0  0  0  0  0  0  0  0  0  0
    2.3632   -1.5778   -0.9594 C   0  0  0  0  0  0  0  0  0  0  0  0
    3.4420   -1.2136   -1.6667 N   0  0  0  0  0  0  0  0  0  0  0  0
    4.2811   -0.6533   -0.7031 O   0  0  0  0  0  0  0  0  0  0  0  0
    3.6207   -0.7350    0.4921 C   0  0  0  0  0  0  0  0  0  0  0  0
    4.1765   -0.1744    1.8404 C   0  0  0  0  0  0  0  0  0  0  0  0
    5.6599    0.2639    1.8197 C   0  0  0  0  0  0  0  0  0  0  0  0
    5.1833    1.6960    1.5059 C   0  0  0  0  0  0  0  0  0  0  0  0
    3.8135    1.3077    2.0967 C   0  0  0  0  0  0  0  0  0  0  0  0
    2.4443   -1.3146    0.3871 N   0  0  0  0  0  0  0  0  0  0  0  0
    1.1090    0.2862   -4.9787 H   0  0  0  0  0  0  0  0  0  0  0  0
    0.0477   -0.8698   -5.7900 H   0  0  0  0  0  0  0  0  0  0  0  0
   -2.2182    2.2858   -3.5448 H   0  0  0  0  0  0  0  0  0  0  0  0
   -2.4429    2.9620   -1.1739 H   0  0  0  0  0  0  0  0  0  0  0  0
   -2.4182   -0.7230    3.1929 H   0  0  0  0  0  0  0  0  0  0  0  0
   -1.2708   -0.8211    1.8700 H   0  0  0  0  0  0  0  0  0  0  0  0
   -3.0196   -2.5070    1.5263 H   0  0  0  0  0  0  0  0  0  0  0  0
   -3.1000   -1.2917    0.2583 H   0  0  0  0  0  0  0  0  0  0  0  0
   -5.3376   -1.4415    0.8210 H   0  0  0  0  0  0  0  0  0  0  0  0
   -5.0325   -1.8251    2.5056 H   0  0  0  0  0  0  0  0  0  0  0  0
   -4.8720    0.3756    3.1659 H   0  0  0  0  0  0  0  0  0  0  0  0
   -5.9783    0.5692    1.8117 H   0  0  0  0  0  0  0  0  0  0  0  0
   -4.0393    1.1420    0.3234 H   0  0  0  0  0  0  0  0  0  0  0  0
   -4.1812    2.2450    1.7092 H   0  0  0  0  0  0  0  0  0  0  0  0
    0.1179   -0.2794    0.0045 H   0  0  0  0  0  0  0  0  0  0  0  0
    0.3968   -2.4230   -0.8016 H   0  0  0  0  0  0  0  0  0  0  0  0
    1.4087   -3.1199   -2.0484 H   0  0  0  0  0  0  0  0  0  0  0  0
    3.9269   -0.8437    2.6718 H   0  0  0  0  0  0  0  0  0  0  0  0
    6.1517    0.1709    2.7963 H   0  0  0  0  0  0  0  0  0  0  0  0
    6.3047   -0.1955    1.0644 H   0  0  0  0  0  0  0  0  0  0  0  0
    5.1543    1.9271    0.4353 H   0  0  0  0  0  0  0  0  0  0  0  0
    5.7125    2.4978    2.0261 H   0  0  0  0  0  0  0  0  0  0  0  0
    3.7090    1.5520    3.1604 H   0  0  0  0  0  0  0  0  0  0  0  0
    2.9446    1.7039    1.5630 H   0  0  0  0  0  0  0  0  0  0  0  0
  1  2  2  0
  2  3  1  0
  3  4  1  0
  4  5  1  0
  5  6  2  0
  6  7  1  0
  7  8  2  0
  8  9  1  0
  9 10  2  0
  9 11  2  0
  9 12  1  0
 12 13  1  0
 13 14  1  0
 14 15  1  0
 15 16  1  0
 16 17  1  0
  8 18  1  0
 18 19  2  0
 19 20  1  0
 20 21  1  0
 21 22  1  0
 22 23  2  0
 23 24  1  0
 24 25  1  0
 25 26  1  0
 26 27  1  0
 27 28  1  0
 28 29  1  0
 25 30  2  0
 20  2  1  0
 30 22  1  0
 19  5  1  0
 29 26  1  0
 17 12  1  0
  3 31  1  0
  3 32  1  0
  6 33  1  0
  7 34  1  0
 13 35  1  0
 13 36  1  0
 14 37  1  0
 14 38  1  0
 15 39  1  0
 15 40  1  0
 16 41  1  0
 16 42  1  0
 17 43  1  0
 17 44  1  0
 18 45  1  0
 21 46  1  0
 21 47  1  0
 26 48  1  0
 27 49  1  0
 27 50  1  0
 28 51  1  0
 28 52  1  0
 29 53  1  0
 29 54  1  0
M  END
$$$$
