
     RDKit          3D

 53 56  0  0  0  0  0  0  0  0999 V2000
   -6.6632    0.5445   -0.2674 C   0  0  0  0  0  0  0  0  0  0  0  0
   -5.5424    1.4510   -0.3915 N   0  0  0  0  0  0  0  0  0  0  0  0
   -5.5729    2.7871   -0.0890 C   0  0  0  0  0  0  0  0  0  0  0  0
   -4.3476    3.3231   -0.4147 C   0  0  0  0  0  0  0  0  0  0  0  0
   -3.5491    2.2678   -0.9139 C   0  0  0  0  0  0  0  0  0  0  0  0
   -4.2878    1.0982   -0.8397 C   0  0  0  0  0  0  0  0  0  0  0  0
   -3.9121   -0.2362   -1.2460 C   0  0  0  0  0  0  0  0  0  0  0  0
   -4.3350   -0.7306   -2.2889 O   0  0  0  0  0  0  0  0  0  0  0  0
   -3.1224   -0.9655   -0.3675 N   0  0  0  0  0  0  0  0  0  0  0  0
   -2.8347   -2.3552   -0.6813 C   0  0  0  0  0  0  0  0  0  0  0  0
   -2.0298   -2.8760    0.4956 C   0  0  0  0  0  0  0  0  0  0  0  0
   -2.5232   -2.0223    1.6570 C   0  0  0  0  0  0  0  0  0  0  0  0
   -2.7932   -0.6455    1.0273 C   0  0  1  0  0  0  0  0  0  0  0  0
   -1.6390    0.3518    1.2459 C   0  0  0  0  0  0  0  0  0  0  0  0
   -0.3629   -0.0156    0.6798 N   0  0  0  0  0  0  0  0  0  0  0  0
    0.7265   -0.5117    1.3293 C   0  0  0  0  0  0  0  0  0  0  0  0
    1.6821   -0.6295    0.3414 C   0  0  0  0  0  0  0  0  0  0  0  0
    3.0421   -1.1291    0.4759 C   0  0  0  0  0  0  0  0  0  0  0  0
    3.4999   -1.5233    1.5441 O   0  0  0  0  0  0  0  0  0  0  0  0
    3.7492   -1.1116   -0.7035 N   0  0  0  0  0  0  0  0  0  0  0  0
    5.1558   -1.4149   -0.7665 C   0  0  0  0  0  0  0  0  0  0  0  0
    5.9773   -0.1526   -0.7688 C   0  0  0  0  0  0  0  0  0  0  0  0
    6.3286    0.4653    0.4401 C   0  0  0  0  0  0  0  0  0  0  0  0
    7.0705    1.6471    0.4419 C   0  0  0  0  0  0  0  0  0  0  0  0
    7.4633    2.2261   -0.7631 C   0  0  0  0  0  0  0  0  0  0  0  0
    7.1112    1.6267   -1.9709 C   0  0  0  0  0  0  0  0  0  0  0  0
    6.3683    0.4449   -1.9754 C   0  0  0  0  0  0  0  0  0  0  0  0
    1.1483   -0.1830   -0.8458 N   0  0  0  0  0  0  0  0  0  0  0  0
   -0.0987    0.2074   -0.6192 N   0  0  0  0  0  0  0  0  0  0  0  0
   -6.3714   -0.2801    0.3875 H   0  0  0  0  0  0  0  0  0  0  0  0
   -7.5154    1.0749    0.1648 H   0  0  0  0  0  0  0  0  0  0  0  0
   -6.9222    0.1771   -1.2633 H   0  0  0  0  0  0  0  0  0  0  0  0
   -6.4671    3.2565    0.3002 H   0  0  0  0  0  0  0  0  0  0  0  0
   -4.0679    4.3652   -0.3268 H   0  0  0  0  0  0  0  0  0  0  0  0
   -2.5362    2.3426   -1.2930 H   0  0  0  0  0  0  0  0  0  0  0  0
   -3.7864   -2.8914   -0.7731 H   0  0  0  0  0  0  0  0  0  0  0  0
   -2.2962   -2.4290   -1.6310 H   0  0  0  0  0  0  0  0  0  0  0  0
   -0.9607   -2.7181    0.3248 H   0  0  0  0  0  0  0  0  0  0  0  0
   -2.1831   -3.9459    0.6636 H   0  0  0  0  0  0  0  0  0  0  0  0
   -1.8223   -1.9971    2.4963 H   0  0  0  0  0  0  0  0  0  0  0  0
   -3.4673   -2.4412    2.0284 H   0  0  0  0  0  0  0  0  0  0  0  0
   -3.6856   -0.2160    1.4993 H   0  0  0  0  0  0  0  0  0  0  0  0
   -1.4832    0.4863    2.3240 H   0  0  0  0  0  0  0  0  0  0  0  0
   -1.8797    1.3410    0.8532 H   0  0  0  0  0  0  0  0  0  0  0  0
    0.7444   -0.7387    2.3849 H   0  0  0  0  0  0  0  0  0  0  0  0
    3.3110   -0.6541   -1.4953 H   0  0  0  0  0  0  0  0  0  0  0  0
    5.4508   -2.0594    0.0693 H   0  0  0  0  0  0  0  0  0  0  0  0
    5.3274   -1.9822   -1.6879 H   0  0  0  0  0  0  0  0  0  0  0  0
    6.0180    0.0280    1.3876 H   0  0  0  0  0  0  0  0  0  0  0  0
    7.3374    2.1183    1.3840 H   0  0  0  0  0  0  0  0  0  0  0  0
    8.0394    3.1476   -0.7610 H   0  0  0  0  0  0  0  0  0  0  0  0
    7.4122    2.0824   -2.9107 H   0  0  0  0  0  0  0  0  0  0  0  0
    6.0952   -0.0052   -2.9272 H   0  0  0  0  0  0  0  0  0  0  0  0
  1  2  1  0
  2  3  1  0
  3  4  2  0
  4  5  1  0
  5  6  2  0
  6  7  1  0
  7  8  2  0
  7  9  1  0
  9 10  1  0
 10 11  1  0
 11 12  1  0
 12 13  1  0
 13 14  1  0
 14 15  1  0
 15 16  1  0
 16 17  2  0
 17 18  1  0
 18 19  2  0
 18 20  1  0
 20 21  1  0
 21 22  1  0
 22 23  2  0
 23 24  1  0
 24 25  2  0
 25 26  1  0
 26 27  2  0
 17 28  1  0
 28 29  2  0
  6  2  1  0
 13  9  1  0
 29 15  1  0
 27 22  1  0
  1 30  1  0
  1 31  1  0
  1 32  1  0
  3 33  1  0
  4 34  1  0
  5 35  1  0
 10 36  1  0
 10 37  1  0
 11 38  1  0
 11 39  1  0
 12 40  1  0
 12 41  1  0
 13 42  1  1
 14 43  1  0
 14 44  1  0
 16 45  1  0
 20 46  1  0
 21 47  1  0
 21 48  1  0
 23 49  1  0
 24 50  1  0
 25 51  1  0
 26 52  1  0
 27 53  1  0
M  END
$$$$
