
     RDKit          3D

 33 35  0  0  0  0  0  0  0  0999 V2000
   -2.4466    2.4377   -0.6871 C   0  0  0  0  0  0  0  0  0  0  0  0
   -1.9442    1.5340    0.2945 O   0  0  0  0  0  0  0  0  0  0  0  0
   -2.4686    0.2696    0.1932 C   0  0  0  0  0  0  0  0  0  0  0  0
   -3.8384    0.0330    0.0536 C   0  0  0  0  0  0  0  0  0  0  0  0
   -4.3160   -1.2774   -0.0283 C   0  0  0  0  0  0  0  0  0  0  0  0
   -3.4310   -2.3537    0.0367 C   0  0  0  0  0  0  0  0  0  0  0  0
   -2.0642   -2.1248    0.1963 C   0  0  0  0  0  0  0  0  0  0  0  0
   -1.5814   -0.8160    0.2918 C   0  0  0  0  0  0  0  0  0  0  0  0
   -0.1681   -0.6088    0.4207 N   0  0  0  0  0  0  0  0  0  0  0  0
    0.2758   -0.1306    1.6599 C   0  0  0  0  0  0  0  0  0  0  0  0
   -0.4243   -0.1054    2.6715 O   0  0  0  0  0  0  0  0  0  0  0  0
    1.5773    0.2697    1.7835 N   0  0  0  0  0  0  0  0  0  0  0  0
    2.5656    0.2501    0.8023 C   0  0  0  0  0  0  0  0  0  0  0  0
    3.8692    0.6009    1.1672 C   0  0  0  0  0  0  0  0  0  0  0  0
    4.8986    0.5748    0.2211 C   0  0  0  0  0  0  0  0  0  0  0  0
    4.6323    0.2004   -1.0953 C   0  0  0  0  0  0  0  0  0  0  0  0
    3.3342   -0.1415   -1.4673 C   0  0  0  0  0  0  0  0  0  0  0  0
    2.3116   -0.1069   -0.5119 C   0  0  0  0  0  0  0  0  0  0  0  0
    0.6785   -0.5002   -1.0062 S   0  0  0  0  0  6  0  0  0  0  0  0
    0.7427   -1.8245   -1.5966 O   0  0  0  0  0  0  0  0  0  0  0  0
    0.2087    0.6302   -1.7828 O   0  0  0  0  0  0  0  0  0  0  0  0
   -2.5170    1.9721   -1.6767 H   0  0  0  0  0  0  0  0  0  0  0  0
   -3.4165    2.8396   -0.3782 H   0  0  0  0  0  0  0  0  0  0  0  0
   -1.7454    3.2747   -0.7592 H   0  0  0  0  0  0  0  0  0  0  0  0
   -4.5472    0.8543    0.0239 H   0  0  0  0  0  0  0  0  0  0  0  0
   -5.3824   -1.4590   -0.1390 H   0  0  0  0  0  0  0  0  0  0  0  0
   -3.8056   -3.3720   -0.0327 H   0  0  0  0  0  0  0  0  0  0  0  0
   -1.3788   -2.9670    0.2438 H   0  0  0  0  0  0  0  0  0  0  0  0
    1.8122    0.5559    2.7256 H   0  0  0  0  0  0  0  0  0  0  0  0
    4.1050    0.8917    2.1883 H   0  0  0  0  0  0  0  0  0  0  0  0
    5.9111    0.8456    0.5129 H   0  0  0  0  0  0  0  0  0  0  0  0
    5.4339    0.1795   -1.8302 H   0  0  0  0  0  0  0  0  0  0  0  0
    3.1187   -0.4260   -2.4955 H   0  0  0  0  0  0  0  0  0  0  0  0
  1  2  1  0
  2  3  1  0
  3  4  2  0
  4  5  1  0
  5  6  2  0
  6  7  1  0
  7  8  2  0
  8  9  1  0
  9 10  1  0
 10 11  2  0
 10 12  1  0
 12 13  1  0
 13 14  2  0
 14 15  1  0
 15 16  2  0
 16 17  1  0
 17 18  2  0
 18 19  1  0
 19 20  2  0
 19 21  2  0
  8  3  1  0
 19  9  1  0
 18 13  1  0
  1 22  1  0
  1 23  1  0
  1 24  1  0
  4 25  1  0
  5 26  1  0
  6 27  1  0
  7 28  1  0
 12 29  1  0
 14 30  1  0
 15 31  1  0
 16 32  1  0
 17 33  1  0
M  END
$$$$
