
     RDKit          3D

 51 55  0  0  0  0  0  0  0  0999 V2000
    4.5532    2.0152   -1.4277 O   0  0  0  0  0  0  0  0  0  0  0  0
    4.3104    0.8244   -1.3712 C   0  0  0  0  0  0  0  0  0  0  0  0
    5.2588   -0.1009   -1.5899 O   0  0  0  0  0  0  0  0  0  0  0  0
    2.9720    0.2219   -1.1790 C   0  0  0  0  0  0  0  0  0  0  0  0
    1.9459    0.8076   -1.9396 C   0  0  0  0  0  0  0  0  0  0  0  0
    0.6462    0.3097   -1.8795 C   0  0  0  0  0  0  0  0  0  0  0  0
    0.3568   -0.7797   -1.0586 C   0  0  0  0  0  0  0  0  0  0  0  0
   -0.9956   -1.3087   -1.0009 C   0  0  0  0  0  0  0  0  0  0  0  0
   -1.2863   -2.6525   -1.1625 C   0  0  0  0  0  0  0  0  0  0  0  0
   -2.6464   -2.8063   -1.0740 N   0  0  0  0  0  0  0  0  0  0  0  0
   -3.2378   -1.5938   -0.8562 C   0  0  0  0  0  0  0  0  0  0  0  0
   -4.5629   -1.4123   -0.7210 N   0  0  0  0  0  0  0  0  0  0  0  0
   -4.8917   -0.1124   -0.5061 C   0  0  0  0  0  0  0  0  0  0  0  0
   -4.0126    0.9731   -0.4156 C   0  0  0  0  0  0  0  0  0  0  0  0
   -4.4968    2.3396   -0.1694 C   0  0  0  0  0  0  0  0  0  0  0  0
   -4.1220    3.4022   -1.0092 C   0  0  0  0  0  0  0  0  0  0  0  0
   -4.5821    4.7013   -0.7776 C   0  0  0  0  0  0  0  0  0  0  0  0
   -5.4245    4.9609    0.3001 C   0  0  0  0  0  0  0  0  0  0  0  0
   -5.8067    3.9233    1.1461 C   0  0  0  0  0  0  0  0  0  0  0  0
   -5.3468    2.6243    0.9129 C   0  0  0  0  0  0  0  0  0  0  0  0
   -2.6440    0.6982   -0.5696 C   0  0  0  0  0  0  0  0  0  0  0  0
   -2.2382   -0.6298   -0.8032 C   0  0  0  0  0  0  0  0  0  0  0  0
    1.3806   -1.3514   -0.2836 C   0  0  0  0  0  0  0  0  0  0  0  0
    2.7021   -0.8562   -0.3041 C   0  0  0  0  0  0  0  0  0  0  0  0
    3.7722   -1.4584    0.5913 C   0  0  0  0  0  0  0  0  0  0  0  0
    3.3642   -2.6169    1.5156 C   0  0  0  0  0  0  0  0  0  0  0  0
    4.5514   -2.7401    2.4569 C   0  0  0  0  0  0  0  0  0  0  0  0
    4.9654   -1.3002    2.7319 C   0  0  0  0  0  0  0  0  0  0  0  0
    4.3706   -0.4602    1.5987 C   0  0  0  0  0  0  0  0  0  0  0  0
    6.0679    0.4243   -1.7612 H   0  0  0  0  0  0  0  0  0  0  0  0
    2.1638    1.6500   -2.5942 H   0  0  0  0  0  0  0  0  0  0  0  0
   -0.1281    0.7658   -2.4917 H   0  0  0  0  0  0  0  0  0  0  0  0
   -0.6492   -3.5080   -1.3446 H   0  0  0  0  0  0  0  0  0  0  0  0
   -3.1613   -3.6705   -1.1562 H   0  0  0  0  0  0  0  0  0  0  0  0
   -5.9645    0.0485   -0.4084 H   0  0  0  0  0  0  0  0  0  0  0  0
   -3.4727    3.2221   -1.8639 H   0  0  0  0  0  0  0  0  0  0  0  0
   -4.2828    5.5088   -1.4409 H   0  0  0  0  0  0  0  0  0  0  0  0
   -5.7815    5.9713    0.4813 H   0  0  0  0  0  0  0  0  0  0  0  0
   -6.4602    4.1236    1.9913 H   0  0  0  0  0  0  0  0  0  0  0  0
   -5.6483    1.8335    1.5974 H   0  0  0  0  0  0  0  0  0  0  0  0
   -1.9038    1.4888   -0.4917 H   0  0  0  0  0  0  0  0  0  0  0  0
    1.1180   -2.1901    0.3570 H   0  0  0  0  0  0  0  0  0  0  0  0
    4.5691   -1.8492   -0.0549 H   0  0  0  0  0  0  0  0  0  0  0  0
    3.1780   -3.5456    0.9669 H   0  0  0  0  0  0  0  0  0  0  0  0
    2.4684   -2.3747    2.1006 H   0  0  0  0  0  0  0  0  0  0  0  0
    5.3701   -3.2754    1.9612 H   0  0  0  0  0  0  0  0  0  0  0  0
    4.3023   -3.2827    3.3736 H   0  0  0  0  0  0  0  0  0  0  0  0
    6.0559   -1.2088    2.7721 H   0  0  0  0  0  0  0  0  0  0  0  0
    4.5722   -0.9595    3.6963 H   0  0  0  0  0  0  0  0  0  0  0  0
    5.1367    0.1797    1.1509 H   0  0  0  0  0  0  0  0  0  0  0  0
    3.5945    0.2015    2.0041 H   0  0  0  0  0  0  0  0  0  0  0  0
  1  2  2  0
  2  3  1  0
  2  4  1  0
  4  5  2  0
  5  6  1  0
  6  7  2  0
  7  8  1  0
  8  9  2  0
  9 10  1  0
 10 11  1  0
 11 12  2  0
 12 13  1  0
 13 14  2  0
 14 15  1  0
 15 16  2  0
 16 17  1  0
 17 18  2  0
 18 19  1  0
 19 20  2  0
 14 21  1  0
 21 22  2  0
  7 23  1  0
 23 24  2  0
 24 25  1  0
 25 26  1  0
 26 27  1  0
 27 28  1  0
 28 29  1  0
 24  4  1  0
 29 25  1  0
 22  8  1  0
 22 11  1  0
 20 15  1  0
  3 30  1  0
  5 31  1  0
  6 32  1  0
  9 33  1  0
 10 34  1  0
 13 35  1  0
 16 36  1  0
 17 37  1  0
 18 38  1  0
 19 39  1  0
 20 40  1  0
 21 41  1  0
 23 42  1  0
 25 43  1  0
 26 44  1  0
 26 45  1  0
 27 46  1  0
 27 47  1  0
 28 48  1  0
 28 49  1  0
 29 50  1  0
 29 51  1  0
M  END
$$$$
