
     RDKit          3D

 57 59  0  0  0  0  0  0  0  0999 V2000
   -8.4918   -0.2138    0.1658 C   0  0  0  0  0  0  0  0  0  0  0  0
   -6.9840   -0.3892    0.1303 C   0  0  0  0  0  0  0  0  0  0  0  0
   -6.5004   -0.2918    1.4754 O   0  0  0  0  0  0  0  0  0  0  0  0
   -5.1813    0.0856    1.5307 C   0  0  0  0  0  0  0  0  0  0  0  0
   -4.9255    1.2718    2.2248 C   0  0  0  0  0  0  0  0  0  0  0  0
   -3.6189    1.7373    2.3640 C   0  0  0  0  0  0  0  0  0  0  0  0
   -2.5527    1.0092    1.8244 C   0  0  0  0  0  0  0  0  0  0  0  0
   -1.1332    1.4967    1.9792 C   0  0  0  0  0  0  0  0  0  0  0  0
   -0.5165    1.7089    0.6869 N   0  0  0  0  0  0  0  0  0  0  0  0
    0.4221    0.8306    0.1813 C   0  0  0  0  0  0  0  0  0  0  0  0
    0.9134   -0.0759    0.8490 O   0  0  0  0  0  0  0  0  0  0  0  0
    0.8340    1.1351   -1.2628 C   0  0  0  0  0  0  0  0  0  0  0  0
    1.4437   -0.0325   -1.9023 N   0  0  0  0  0  0  0  0  0  0  0  0
    0.5593   -0.9291   -2.5140 C   0  0  0  0  0  0  0  0  0  0  0  0
   -0.6667   -0.7787   -2.4425 O   0  0  0  0  0  0  0  0  0  0  0  0
    1.1260   -2.0180   -3.4098 C   0  0  0  0  0  0  0  0  0  0  0  0
    2.4831   -2.9334   -2.6648 S   0  0  0  0  0  0  0  0  0  0  0  0
    3.3729   -1.5575   -2.0598 C   0  0  0  0  0  0  0  0  0  0  0  0
    5.0426   -1.6347   -1.7446 S   0  0  0  0  0  0  0  0  0  0  0  0
    5.0658   -0.0379   -1.1536 C   0  0  0  0  0  0  0  0  0  0  0  0
    6.6154    0.6140   -0.5708 S   0  0  0  0  0  6  0  0  0  0  0  0
    6.6486    1.9574   -1.1105 O   0  0  0  0  0  0  0  0  0  0  0  0
    7.6519   -0.3483   -0.8763 O   0  0  0  0  0  0  0  0  0  0  0  0
    6.4927    0.7389    1.1313 N   0  0  0  0  0  0  0  0  0  0  0  0
    6.3748   -0.5585    1.8355 C   0  0  0  0  0  0  0  0  0  0  0  0
    7.5529    1.5850    1.7226 C   0  0  0  0  0  0  0  0  0  0  0  0
    3.8092    0.5363   -1.2023 C   0  0  0  0  0  0  0  0  0  0  0  0
    2.8140   -0.3339   -1.7497 C   0  0  0  0  0  0  0  0  0  0  0  0
   -2.8189   -0.2019    1.1562 C   0  0  0  0  0  0  0  0  0  0  0  0
   -4.1276   -0.6749    1.0019 C   0  0  0  0  0  0  0  0  0  0  0  0
   -4.4562   -1.8568    0.3911 O   0  0  0  0  0  0  0  0  0  0  0  0
   -3.4006   -2.6109   -0.1932 C   0  0  0  0  0  0  0  0  0  0  0  0
   -8.9557   -0.9797    0.7974 H   0  0  0  0  0  0  0  0  0  0  0  0
   -8.9173   -0.2825   -0.8399 H   0  0  0  0  0  0  0  0  0  0  0  0
   -8.7579    0.7576    0.5969 H   0  0  0  0  0  0  0  0  0  0  0  0
   -6.7517   -1.3768   -0.2800 H   0  0  0  0  0  0  0  0  0  0  0  0
   -6.5448    0.3860   -0.5116 H   0  0  0  0  0  0  0  0  0  0  0  0
   -5.7523    1.8345    2.6510 H   0  0  0  0  0  0  0  0  0  0  0  0
   -3.4442    2.6653    2.9030 H   0  0  0  0  0  0  0  0  0  0  0  0
   -1.1132    2.4631    2.4939 H   0  0  0  0  0  0  0  0  0  0  0  0
   -0.5618    0.7856    2.5846 H   0  0  0  0  0  0  0  0  0  0  0  0
   -1.0044    2.3258    0.0496 H   0  0  0  0  0  0  0  0  0  0  0  0
   -0.0526    1.4414   -1.8308 H   0  0  0  0  0  0  0  0  0  0  0  0
    1.5239    1.9837   -1.2703 H   0  0  0  0  0  0  0  0  0  0  0  0
    1.4534   -1.5566   -4.3476 H   0  0  0  0  0  0  0  0  0  0  0  0
    0.3267   -2.7289   -3.6443 H   0  0  0  0  0  0  0  0  0  0  0  0
    5.5177   -1.1288    1.4627 H   0  0  0  0  0  0  0  0  0  0  0  0
    7.2885   -1.1517    1.7315 H   0  0  0  0  0  0  0  0  0  0  0  0
    6.1963   -0.3827    2.9013 H   0  0  0  0  0  0  0  0  0  0  0  0
    7.4081    1.6674    2.8047 H   0  0  0  0  0  0  0  0  0  0  0  0
    7.5009    2.5994    1.3169 H   0  0  0  0  0  0  0  0  0  0  0  0
    8.5459    1.1644    1.5332 H   0  0  0  0  0  0  0  0  0  0  0  0
    3.6477    1.5483   -0.8524 H   0  0  0  0  0  0  0  0  0  0  0  0
   -1.9724   -0.7688    0.7751 H   0  0  0  0  0  0  0  0  0  0  0  0
   -3.8420   -3.5020   -0.6511 H   0  0  0  0  0  0  0  0  0  0  0  0
   -2.8982   -2.0435   -0.9845 H   0  0  0  0  0  0  0  0  0  0  0  0
   -2.6892   -2.9498    0.5670 H   0  0  0  0  0  0  0  0  0  0  0  0
  1  2  1  0
  2  3  1  0
  3  4  1  0
  4  5  2  0
  5  6  1  0
  6  7  2  0
  7  8  1  0
  8  9  1  0
  9 10  1  0
 10 11  2  0
 10 12  1  0
 12 13  1  0
 13 14  1  0
 14 15  2  0
 14 16  1  0
 16 17  1  0
 17 18  1  0
 18 19  1  0
 19 20  1  0
 20 21  1  0
 21 22  2  0
 21 23  2  0
 21 24  1  0
 24 25  1  0
 24 26  1  0
 20 27  2  0
 27 28  1  0
  7 29  1  0
 29 30  2  0
 30 31  1  0
 31 32  1  0
 30  4  1  0
 28 13  1  0
 28 18  2  0
  1 33  1  0
  1 34  1  0
  1 35  1  0
  2 36  1  0
  2 37  1  0
  5 38  1  0
  6 39  1  0
  8 40  1  0
  8 41  1  0
  9 42  1  0
 12 43  1  0
 12 44  1  0
 16 45  1  0
 16 46  1  0
 25 47  1  0
 25 48  1  0
 25 49  1  0
 26 50  1  0
 26 51  1  0
 26 52  1  0
 27 53  1  0
 29 54  1  0
 32 55  1  0
 32 56  1  0
 32 57  1  0
M  END
$$$$
