
     RDKit          3D

 54 57  0  0  0  0  0  0  0  0999 V2000
   11.7646    2.1197    2.2789 O   0  0  0  0  0  0  0  0  0  0  0  0
   11.0540    1.8651    1.3172 C   0  0  0  0  0  0  0  0  0  0  0  0
   11.5996    1.7329    0.0916 O   0  0  0  0  0  0  0  0  0  0  0  0
    9.5423    1.7452    1.3457 C   0  0  0  0  0  0  0  0  0  0  0  0
    9.0833    0.7769    0.4111 O   0  0  0  0  0  0  0  0  0  0  0  0
    7.7323    0.5887    0.3221 C   0  0  0  0  0  0  0  0  0  0  0  0
    6.7596    1.2338    1.0881 C   0  0  0  0  0  0  0  0  0  0  0  0
    5.4045    0.9428    0.8923 C   0  0  0  0  0  0  0  0  0  0  0  0
    5.0207    0.0057   -0.0704 C   0  0  0  0  0  0  0  0  0  0  0  0
    3.5966   -0.3168   -0.2970 C   0  0  0  0  0  0  0  0  0  0  0  0
    2.6537    0.2588    0.3811 N   0  0  0  0  0  0  0  0  0  0  0  0
    1.3603   -0.1305    0.1394 N   0  0  0  0  0  0  0  0  0  0  0  0
    0.9560   -1.4341   -0.1331 C   0  0  0  0  0  0  0  0  0  0  0  0
    1.6912   -2.4050   -0.2839 O   0  0  0  0  0  0  0  0  0  0  0  0
   -0.5202   -1.6339   -0.1980 C   0  0  0  0  0  0  0  0  0  0  0  0
   -1.3877   -0.6238   -0.6270 C   0  0  0  0  0  0  0  0  0  0  0  0
   -2.7663   -0.8607   -0.6734 C   0  0  0  0  0  0  0  0  0  0  0  0
   -3.3009   -2.1062   -0.3070 C   0  0  0  0  0  0  0  0  0  0  0  0
   -4.7463   -2.3078   -0.3699 C   0  0  0  0  0  0  0  0  0  0  0  0
   -5.3683   -3.5362   -0.4506 C   0  0  0  0  0  0  0  0  0  0  0  0
   -7.0662   -3.3302   -0.5191 S   0  0  0  0  0  0  0  0  0  0  0  0
   -6.8670   -1.6124   -0.4406 C   0  0  0  0  0  0  0  0  0  0  0  0
   -7.9758   -0.8359   -0.4659 N   0  0  0  0  0  0  0  0  0  0  0  0
   -8.0949    0.5607   -0.3470 C   0  0  0  0  0  0  0  0  0  0  0  0
   -9.3672    1.1370   -0.5155 C   0  0  0  0  0  0  0  0  0  0  0  0
   -9.5596    2.5203   -0.4289 C   0  0  0  0  0  0  0  0  0  0  0  0
   -8.4749    3.3516   -0.1753 C   0  0  0  0  0  0  0  0  0  0  0  0
   -8.7038    5.0524   -0.0673 Cl  0  0  0  0  0  0  0  0  0  0  0  0
   -7.2055    2.8095   -0.0104 C   0  0  0  0  0  0  0  0  0  0  0  0
   -7.0204    1.4240   -0.0992 C   0  0  0  0  0  0  0  0  0  0  0  0
   -5.6130   -1.2254   -0.3751 N   0  0  0  0  0  0  0  0  0  0  0  0
   -2.4217   -3.1147    0.1119 C   0  0  0  0  0  0  0  0  0  0  0  0
   -1.0420   -2.8824    0.1598 C   0  0  0  0  0  0  0  0  0  0  0  0
    5.9883   -0.6448   -0.8370 C   0  0  0  0  0  0  0  0  0  0  0  0
    7.3392   -0.3500   -0.6372 C   0  0  0  0  0  0  0  0  0  0  0  0
   12.5618    1.8390    0.2392 H   0  0  0  0  0  0  0  0  0  0  0  0
    9.2645    1.4368    2.3604 H   0  0  0  0  0  0  0  0  0  0  0  0
    9.1355    2.7361    1.1142 H   0  0  0  0  0  0  0  0  0  0  0  0
    7.0147    1.9653    1.8475 H   0  0  0  0  0  0  0  0  0  0  0  0
    4.6543    1.4491    1.4955 H   0  0  0  0  0  0  0  0  0  0  0  0
    3.3938   -1.0501   -1.0962 H   0  0  0  0  0  0  0  0  0  0  0  0
    0.6787    0.4909    0.5641 H   0  0  0  0  0  0  0  0  0  0  0  0
   -1.0144    0.3429   -0.9546 H   0  0  0  0  0  0  0  0  0  0  0  0
   -3.4281   -0.0643   -1.0126 H   0  0  0  0  0  0  0  0  0  0  0  0
   -4.9349   -4.5247   -0.4845 H   0  0  0  0  0  0  0  0  0  0  0  0
   -8.8585   -1.3245   -0.5419 H   0  0  0  0  0  0  0  0  0  0  0  0
  -10.2313    0.5094   -0.7212 H   0  0  0  0  0  0  0  0  0  0  0  0
  -10.5542    2.9365   -0.5624 H   0  0  0  0  0  0  0  0  0  0  0  0
   -6.3517    3.4516    0.1876 H   0  0  0  0  0  0  0  0  0  0  0  0
   -6.0143    1.0398    0.0399 H   0  0  0  0  0  0  0  0  0  0  0  0
   -2.7873   -4.0912    0.4185 H   0  0  0  0  0  0  0  0  0  0  0  0
   -0.3745   -3.6791    0.4849 H   0  0  0  0  0  0  0  0  0  0  0  0
    5.7072   -1.3808   -1.5857 H   0  0  0  0  0  0  0  0  0  0  0  0
    8.0943   -0.8570   -1.2341 H   0  0  0  0  0  0  0  0  0  0  0  0
  1  2  2  0
  2  3  1  0
  2  4  1  0
  4  5  1  0
  5  6  1  0
  6  7  2  0
  7  8  1  0
  8  9  2  0
  9 10  1  0
 10 11  2  0
 11 12  1  0
 12 13  1  0
 13 14  2  0
 13 15  1  0
 15 16  2  0
 16 17  1  0
 17 18  2  0
 18 19  1  0
 19 20  2  0
 20 21  1  0
 21 22  1  0
 22 23  1  0
 23 24  1  0
 24 25  2  0
 25 26  1  0
 26 27  2  0
 27 28  1  0
 27 29  1  0
 29 30  2  0
 22 31  2  0
 18 32  1  0
 32 33  2  0
  9 34  1  0
 34 35  2  0
 35  6  1  0
 33 15  1  0
 31 19  1  0
 30 24  1  0
  3 36  1  0
  4 37  1  0
  4 38  1  0
  7 39  1  0
  8 40  1  0
 10 41  1  0
 12 42  1  0
 16 43  1  0
 17 44  1  0
 20 45  1  0
 23 46  1  0
 25 47  1  0
 26 48  1  0
 29 49  1  0
 30 50  1  0
 32 51  1  0
 33 52  1  0
 34 53  1  0
 35 54  1  0
M  END
$$$$
