
     RDKit          3D

 54 57  0  0  0  0  0  0  0  0999 V2000
    4.8879   -0.6042   -1.2921 C   0  0  0  0  0  0  0  0  0  0  0  0
    4.3307   -1.0790    0.0249 C   0  0  0  0  0  0  0  0  0  0  0  0
    5.0951   -1.3746    0.9529 O   0  0  0  0  0  0  0  0  0  0  0  0
    2.7963   -1.1807    0.2354 C   0  0  0  0  0  0  0  0  0  0  0  0
    2.6426   -2.1951    1.2430 O   0  0  0  0  0  0  0  0  0  0  0  0
    2.0492   -1.6748   -0.9964 C   0  0  0  0  0  0  0  0  0  0  0  0
    1.5957   -0.4155   -1.7096 C   0  0  0  0  0  0  0  0  0  0  0  0
    1.2964    0.6271   -0.6139 C   0  0  0  0  0  0  0  0  0  0  0  0
   -0.2307    0.8116   -0.4192 C   0  0  0  0  0  0  0  0  0  0  0  0
   -0.5821    2.1542    0.2695 C   0  0  0  0  0  0  0  0  0  0  0  0
   -1.8826    2.1136    1.0783 C   0  0  0  0  0  0  0  0  0  0  0  0
   -2.8777    1.2098    0.4049 C   0  0  0  0  0  0  0  0  0  0  0  0
   -3.9939    1.7089   -0.1531 C   0  0  0  0  0  0  0  0  0  0  0  0
   -4.9212    0.8570   -0.9343 C   0  0  0  0  0  0  0  0  0  0  0  0
   -5.9899    1.3298   -1.3162 O   0  0  0  0  0  0  0  0  0  0  0  0
   -4.5336   -0.5735   -1.2230 C   0  0  0  0  0  0  0  0  0  0  0  0
   -3.0380   -0.8187   -1.0341 C   0  0  0  0  0  0  0  0  0  0  0  0
   -2.4727   -0.2603    0.3069 C   0  0  0  0  0  0  0  0  0  0  0  0
   -3.1125   -1.0469    1.4734 C   0  0  0  0  0  0  0  0  0  0  0  0
   -0.8918   -0.4024    0.2769 C   0  0  0  0  0  0  0  0  0  0  0  0
   -0.2004   -0.7299    1.6199 C   0  0  0  0  0  0  0  0  0  0  0  0
    1.1294   -0.0215    1.8757 C   0  0  0  0  0  0  0  0  0  0  0  0
    2.0749    0.1524    0.6587 C   0  0  0  0  0  0  0  0  0  0  0  0
    3.0899    1.2458    1.0753 C   0  0  0  0  0  0  0  0  0  0  0  0
    4.6761   -1.3309   -2.0785 H   0  0  0  0  0  0  0  0  0  0  0  0
    4.4826    0.3739   -1.5538 H   0  0  0  0  0  0  0  0  0  0  0  0
    5.9744   -0.5043   -1.2061 H   0  0  0  0  0  0  0  0  0  0  0  0
    3.4072   -2.0980    1.8492 H   0  0  0  0  0  0  0  0  0  0  0  0
    2.6601   -2.3067   -1.6491 H   0  0  0  0  0  0  0  0  0  0  0  0
    1.1893   -2.2905   -0.7111 H   0  0  0  0  0  0  0  0  0  0  0  0
    0.7419   -0.6162   -2.3651 H   0  0  0  0  0  0  0  0  0  0  0  0
    2.3951   -0.0409   -2.3576 H   0  0  0  0  0  0  0  0  0  0  0  0
    1.6927    1.5867   -0.9734 H   0  0  0  0  0  0  0  0  0  0  0  0
   -0.6639    0.8858   -1.4272 H   0  0  0  0  0  0  0  0  0  0  0  0
   -0.6751    2.9181   -0.5149 H   0  0  0  0  0  0  0  0  0  0  0  0
    0.2255    2.5124    0.9149 H   0  0  0  0  0  0  0  0  0  0  0  0
   -1.6900    1.7501    2.0941 H   0  0  0  0  0  0  0  0  0  0  0  0
   -2.2679    3.1340    1.1926 H   0  0  0  0  0  0  0  0  0  0  0  0
   -4.2647    2.7572   -0.0915 H   0  0  0  0  0  0  0  0  0  0  0  0
   -4.7991   -0.7962   -2.2627 H   0  0  0  0  0  0  0  0  0  0  0  0
   -5.1287   -1.2288   -0.5796 H   0  0  0  0  0  0  0  0  0  0  0  0
   -2.5111   -0.3566   -1.8798 H   0  0  0  0  0  0  0  0  0  0  0  0
   -2.8440   -1.8966   -1.1065 H   0  0  0  0  0  0  0  0  0  0  0  0
   -2.7693   -2.0873    1.4786 H   0  0  0  0  0  0  0  0  0  0  0  0
   -4.2056   -1.0647    1.4145 H   0  0  0  0  0  0  0  0  0  0  0  0
   -2.8864   -0.6022    2.4479 H   0  0  0  0  0  0  0  0  0  0  0  0
   -0.6957   -1.2774   -0.3555 H   0  0  0  0  0  0  0  0  0  0  0  0
   -0.8356   -0.4876    2.4751 H   0  0  0  0  0  0  0  0  0  0  0  0
   -0.0465   -1.8152    1.6710 H   0  0  0  0  0  0  0  0  0  0  0  0
    1.6511   -0.5245    2.7004 H   0  0  0  0  0  0  0  0  0  0  0  0
    0.8881    0.9649    2.2921 H   0  0  0  0  0  0  0  0  0  0  0  0
    2.5791    2.1695    1.3710 H   0  0  0  0  0  0  0  0  0  0  0  0
    3.7655    1.5195    0.2604 H   0  0  0  0  0  0  0  0  0  0  0  0
    3.6941    0.9193    1.9291 H   0  0  0  0  0  0  0  0  0  0  0  0
  1  2  1  0
  2  3  2  0
  2  4  1  0
  4  5  1  0
  4  6  1  0
  6  7  1  0
  7  8  1  0
  8  9  1  0
  9 10  1  0
 10 11  1  0
 11 12  1  0
 12 13  2  0
 13 14  1  0
 14 15  2  0
 14 16  1  0
 16 17  1  0
 17 18  1  0
 18 19  1  0
 18 20  1  0
 20 21  1  0
 21 22  1  0
 22 23  1  0
 23 24  1  0
 23  4  1  0
 23  8  1  0
 20  9  1  0
 18 12  1  0
  1 25  1  0
  1 26  1  0
  1 27  1  0
  5 28  1  0
  6 29  1  0
  6 30  1  0
  7 31  1  0
  7 32  1  0
  8 33  1  0
  9 34  1  0
 10 35  1  0
 10 36  1  0
 11 37  1  0
 11 38  1  0
 13 39  1  0
 16 40  1  0
 16 41  1  0
 17 42  1  0
 17 43  1  0
 19 44  1  0
 19 45  1  0
 19 46  1  0
 20 47  1  0
 21 48  1  0
 21 49  1  0
 22 50  1  0
 22 51  1  0
 24 52  1  0
 24 53  1  0
 24 54  1  0
M  END
$$$$
