
     RDKit          3D

 84 89  0  0  0  0  0  0  0  0999 V2000
   -1.6968   -3.6534    1.1333 C   0  0  0  0  0  0  0  0  0  0  0  0
   -0.7655   -2.6383    0.7444 O   0  0  0  0  0  0  0  0  0  0  0  0
   -0.6649   -1.6044    1.6129 C   0  0  0  0  0  0  0  0  0  0  0  0
   -1.3537   -1.4836    2.6222 O   0  0  0  0  0  0  0  0  0  0  0  0
    0.3898   -0.5855    1.2224 C   0  0  1  0  0  0  0  0  0  0  0  0
    1.4450   -0.9419    0.1527 C   0  0  1  0  0  0  0  0  0  0  0  0
    2.2071   -2.2644    0.3732 C   0  0  0  0  0  0  0  0  0  0  0  0
    3.2896   -2.4667   -0.7155 C   0  0  2  0  0  0  0  0  0  0  0  0
    4.3926   -1.4530   -0.5765 C   0  0  0  0  0  0  0  0  0  0  0  0
    5.1524   -1.2550    0.5414 N   0  0  0  0  0  0  0  0  0  0  0  0
    6.0604   -0.2419    0.3223 C   0  0  0  0  0  0  0  0  0  0  0  0
    7.0265    0.3073    1.1755 C   0  0  0  0  0  0  0  0  0  0  0  0
    7.8333    1.3392    0.6838 C   0  0  0  0  0  0  0  0  0  0  0  0
    8.7542    1.8052    1.5840 O   0  0  0  0  0  0  0  0  0  0  0  0
    9.5807    2.8780    1.1500 C   0  0  0  0  0  0  0  0  0  0  0  0
    7.6620    1.8034   -0.6205 C   0  0  0  0  0  0  0  0  0  0  0  0
    6.6915    1.2442   -1.4666 C   0  0  0  0  0  0  0  0  0  0  0  0
    5.8756    0.2042   -0.9893 C   0  0  0  0  0  0  0  0  0  0  0  0
    4.8348   -0.5760   -1.5461 C   0  0  0  0  0  0  0  0  0  0  0  0
    4.2383   -0.5875   -2.9059 C   0  0  0  0  0  0  0  0  0  0  0  0
    3.6012   -1.9744   -3.1511 C   0  0  0  0  0  0  0  0  0  0  0  0
    2.7048   -2.4645   -2.0783 N   0  0  0  0  0  0  0  0  0  0  0  0
    1.3275   -1.9847   -2.1775 C   0  0  0  0  0  0  0  0  0  0  0  0
    0.9771   -0.7622   -1.3120 C   0  0  1  0  0  0  0  0  0  0  0  0
   -0.5163   -0.4541   -1.4311 C   0  0  0  0  0  0  0  0  0  0  0  0
   -1.0034    0.6759   -0.5115 C   0  0  1  0  0  0  0  0  0  0  0  0
   -2.4175    0.4361   -0.3051 O   0  0  0  0  0  0  0  0  0  0  0  0
   -3.1604    1.5214    0.0324 C   0  0  0  0  0  0  0  0  0  0  0  0
   -2.7582    2.6676    0.1371 O   0  0  0  0  0  0  0  0  0  0  0  0
   -4.5627    1.1251    0.2794 C   0  0  0  0  0  0  0  0  0  0  0  0
   -4.8702   -0.1163    0.8454 C   0  0  0  0  0  0  0  0  0  0  0  0
   -6.1958   -0.4279    1.1371 C   0  0  0  0  0  0  0  0  0  0  0  0
   -6.5623   -1.6293    1.6934 O   0  0  0  0  0  0  0  0  0  0  0  0
   -5.7706   -1.9838    2.8281 C   0  0  0  0  0  0  0  0  0  0  0  0
   -7.2106    0.4827    0.8080 C   0  0  0  0  0  0  0  0  0  0  0  0
   -8.5059    0.1813    1.1545 O   0  0  0  0  0  0  0  0  0  0  0  0
   -9.1749   -0.4376    0.0501 C   0  0  0  0  0  0  0  0  0  0  0  0
   -6.9073    1.7349    0.2453 C   0  0  0  0  0  0  0  0  0  0  0  0
   -7.9687    2.5610   -0.0107 O   0  0  0  0  0  0  0  0  0  0  0  0
   -7.6860    3.8808   -0.4611 C   0  0  0  0  0  0  0  0  0  0  0  0
   -5.5725    2.0518   -0.0114 C   0  0  0  0  0  0  0  0  0  0  0  0
   -0.2951    0.7488    0.8665 C   0  0  2  0  0  0  0  0  0  0  0  0
    0.7356    1.7551    0.8766 O   0  0  0  0  0  0  0  0  0  0  0  0
    0.2544    3.0897    0.9333 C   0  0  0  0  0  0  0  0  0  0  0  0
   -2.6872   -3.2243    1.3348 H   0  0  0  0  0  0  0  0  0  0  0  0
   -1.3129   -4.1866    2.0125 H   0  0  0  0  0  0  0  0  0  0  0  0
   -1.7947   -4.3636    0.3033 H   0  0  0  0  0  0  0  0  0  0  0  0
    0.9604   -0.4329    2.1503 H   0  0  0  0  0  0  0  0  0  0  0  0
    2.2179   -0.1684    0.2913 H   0  0  0  0  0  0  0  0  0  0  0  0
    2.6600   -2.2619    1.3722 H   0  0  0  0  0  0  0  0  0  0  0  0
    1.5295   -3.1260    0.3530 H   0  0  0  0  0  0  0  0  0  0  0  0
    3.7420   -3.4541   -0.5673 H   0  0  0  0  0  0  0  0  0  0  0  0
    5.0607   -1.7534    1.4174 H   0  0  0  0  0  0  0  0  0  0  0  0
    7.1582   -0.0584    2.1876 H   0  0  0  0  0  0  0  0  0  0  0  0
   10.2692    3.1243    1.9617 H   0  0  0  0  0  0  0  0  0  0  0  0
    8.9843    3.7689    0.9431 H   0  0  0  0  0  0  0  0  0  0  0  0
   10.1829    2.5864    0.2837 H   0  0  0  0  0  0  0  0  0  0  0  0
    8.2638    2.6133   -1.0221 H   0  0  0  0  0  0  0  0  0  0  0  0
    6.5749    1.6131   -2.4808 H   0  0  0  0  0  0  0  0  0  0  0  0
    3.4823    0.2003   -2.9824 H   0  0  0  0  0  0  0  0  0  0  0  0
    5.0034   -0.3946   -3.6704 H   0  0  0  0  0  0  0  0  0  0  0  0
    3.0778   -1.9633   -4.1167 H   0  0  0  0  0  0  0  0  0  0  0  0
    4.4035   -2.7179   -3.2698 H   0  0  0  0  0  0  0  0  0  0  0  0
    1.0489   -1.7956   -3.2238 H   0  0  0  0  0  0  0  0  0  0  0  0
    0.6817   -2.8201   -1.8728 H   0  0  0  0  0  0  0  0  0  0  0  0
    1.5141    0.1052   -1.7215 H   0  0  0  0  0  0  0  0  0  0  0  0
   -1.1106   -1.3618   -1.2733 H   0  0  0  0  0  0  0  0  0  0  0  0
   -0.7538   -0.1735   -2.4644 H   0  0  0  0  0  0  0  0  0  0  0  0
   -0.8783    1.6060   -1.0764 H   0  0  0  0  0  0  0  0  0  0  0  0
   -4.0803   -0.8243    1.0668 H   0  0  0  0  0  0  0  0  0  0  0  0
   -4.8484   -2.4822    2.5067 H   0  0  0  0  0  0  0  0  0  0  0  0
   -6.3531   -2.6935    3.4256 H   0  0  0  0  0  0  0  0  0  0  0  0
   -5.5409   -1.1175    3.4627 H   0  0  0  0  0  0  0  0  0  0  0  0
  -10.0574   -0.9456    0.4470 H   0  0  0  0  0  0  0  0  0  0  0  0
   -8.5574   -1.1954   -0.4477 H   0  0  0  0  0  0  0  0  0  0  0  0
   -9.5056    0.3208   -0.6656 H   0  0  0  0  0  0  0  0  0  0  0  0
   -8.6367    4.4093   -0.5731 H   0  0  0  0  0  0  0  0  0  0  0  0
   -7.0826    4.4322    0.2702 H   0  0  0  0  0  0  0  0  0  0  0  0
   -7.1982    3.8627   -1.4442 H   0  0  0  0  0  0  0  0  0  0  0  0
   -5.2912    3.0104   -0.4342 H   0  0  0  0  0  0  0  0  0  0  0  0
   -1.0028    1.0026    1.6654 H   0  0  0  0  0  0  0  0  0  0  0  0
   -0.2052    3.3750   -0.0160 H   0  0  0  0  0  0  0  0  0  0  0  0
    1.1151    3.7567    1.0829 H   0  0  0  0  0  0  0  0  0  0  0  0
   -0.4481    3.2205    1.7619 H   0  0  0  0  0  0  0  0  0  0  0  0
  1  2  1  0
  2  3  1  0
  3  4  2  0
  3  5  1  0
  5  6  1  0
  6  7  1  0
  7  8  1  0
  8  9  1  0
  9 10  1  0
 10 11  1  0
 11 12  2  0
 12 13  1  0
 13 14  1  0
 14 15  1  0
 13 16  2  0
 16 17  1  0
 17 18  2  0
 18 19  1  0
 19 20  1  0
 20 21  1  0
 21 22  1  0
 22 23  1  0
 23 24  1  0
 24 25  1  0
 25 26  1  0
 26 27  1  0
 27 28  1  0
 28 29  2  0
 28 30  1  0
 30 31  2  0
 31 32  1  0
 32 33  1  0
 33 34  1  0
 32 35  2  0
 35 36  1  0
 36 37  1  0
 35 38  1  0
 38 39  1  0
 39 40  1  0
 38 41  2  0
 26 42  1  0
 42 43  1  0
 43 44  1  0
 42  5  1  0
 24  6  1  0
 41 30  1  0
 22  8  1  0
 19  9  2  0
 18 11  1  0
  1 45  1  0
  1 46  1  0
  1 47  1  0
  5 48  1  1
  6 49  1  1
  7 50  1  0
  7 51  1  0
  8 52  1  1
 10 53  1  0
 12 54  1  0
 15 55  1  0
 15 56  1  0
 15 57  1  0
 16 58  1  0
 17 59  1  0
 20 60  1  0
 20 61  1  0
 21 62  1  0
 21 63  1  0
 23 64  1  0
 23 65  1  0
 24 66  1  6
 25 67  1  0
 25 68  1  0
 26 69  1  6
 31 70  1  0
 34 71  1  0
 34 72  1  0
 34 73  1  0
 37 74  1  0
 37 75  1  0
 37 76  1  0
 40 77  1  0
 40 78  1  0
 40 79  1  0
 41 80  1  0
 42 81  1  1
 44 82  1  0
 44 83  1  0
 44 84  1  0
M  END
$$$$
