
     RDKit          3D

 53 55  0  0  0  0  0  0  0  0999 V2000
    3.9027   -0.9844    2.4393 C   0  0  0  0  0  0  0  0  0  0  0  0
    2.5841   -0.9298    1.7130 C   0  0  0  0  0  0  0  0  0  0  0  0
    1.5816   -1.3335    2.3071 O   0  0  0  0  0  0  0  0  0  0  0  0
    2.5256   -0.4011    0.4223 N   0  0  0  0  0  0  0  0  0  0  0  0
    3.6934   -0.0566   -0.4279 C   0  0  0  0  0  0  0  0  0  0  0  0
    4.6142    1.0329    0.1268 C   0  0  0  0  0  0  0  0  0  0  0  0
    5.6611    1.4171   -0.9208 C   0  0  0  0  0  0  0  0  0  0  0  0
    5.9757    0.3566   -1.8266 O   0  0  0  0  0  0  0  0  0  0  0  0
    5.9215   -0.9321   -1.2243 C   0  0  0  0  0  0  0  0  0  0  0  0
    4.4744   -1.2892   -0.9062 C   0  0  0  0  0  0  0  0  0  0  0  0
    1.2102   -0.3624   -0.2498 C   0  0  0  0  0  0  0  0  0  0  0  0
    0.5625   -1.7281   -0.5114 C   0  0  0  0  0  0  0  0  0  0  0  0
   -0.8832   -1.3633   -0.8309 C   0  0  0  0  0  0  0  0  0  0  0  0
   -1.1344   -0.1196   -0.1179 N   0  0  0  0  0  0  0  0  0  0  0  0
   -2.3480    0.5203    0.0514 C   0  0  0  0  0  0  0  0  0  0  0  0
   -2.4258    1.5835    0.6658 O   0  0  0  0  0  0  0  0  0  0  0  0
   -3.5537   -0.1781   -0.5686 C   0  0  0  0  0  0  0  0  0  0  0  0
   -4.8533    0.5960   -0.4754 C   0  0  0  0  0  0  0  0  0  0  0  0
   -5.2310    1.4119   -1.5571 C   0  0  0  0  0  0  0  0  0  0  0  0
   -6.4195    2.1404   -1.5247 C   0  0  0  0  0  0  0  0  0  0  0  0
   -7.2461    2.0682   -0.4093 C   0  0  0  0  0  0  0  0  0  0  0  0
   -6.8808    1.2740    0.6772 C   0  0  0  0  0  0  0  0  0  0  0  0
   -5.6841    0.5388    0.6639 C   0  0  0  0  0  0  0  0  0  0  0  0
   -5.3291   -0.2953    1.8645 C   0  0  0  0  0  0  0  0  0  0  0  0
    0.0914    0.4263    0.4503 C   0  0  0  0  0  0  0  0  0  0  0  0
    4.7150   -1.3504    1.8143 H   0  0  0  0  0  0  0  0  0  0  0  0
    3.8137   -1.6830    3.2784 H   0  0  0  0  0  0  0  0  0  0  0  0
    4.1353    0.0022    2.8471 H   0  0  0  0  0  0  0  0  0  0  0  0
    3.2811    0.3989   -1.3389 H   0  0  0  0  0  0  0  0  0  0  0  0
    5.1541    0.6875    1.0108 H   0  0  0  0  0  0  0  0  0  0  0  0
    4.0488    1.9177    0.4408 H   0  0  0  0  0  0  0  0  0  0  0  0
    5.2942    2.2524   -1.5267 H   0  0  0  0  0  0  0  0  0  0  0  0
    6.5840    1.7525   -0.4349 H   0  0  0  0  0  0  0  0  0  0  0  0
    6.5485   -0.9466   -0.3248 H   0  0  0  0  0  0  0  0  0  0  0  0
    6.3407   -1.6597   -1.9266 H   0  0  0  0  0  0  0  0  0  0  0  0
    4.4453   -2.1229   -0.1981 H   0  0  0  0  0  0  0  0  0  0  0  0
    3.9856   -1.6631   -1.8157 H   0  0  0  0  0  0  0  0  0  0  0  0
    1.3385    0.1141   -1.2311 H   0  0  0  0  0  0  0  0  0  0  0  0
    0.5890   -2.3768    0.3694 H   0  0  0  0  0  0  0  0  0  0  0  0
    1.0445   -2.2713   -1.3303 H   0  0  0  0  0  0  0  0  0  0  0  0
   -1.0148   -1.1684   -1.9007 H   0  0  0  0  0  0  0  0  0  0  0  0
   -1.5864   -2.1416   -0.5221 H   0  0  0  0  0  0  0  0  0  0  0  0
   -3.6781   -1.1577   -0.0939 H   0  0  0  0  0  0  0  0  0  0  0  0
   -3.3363   -0.3718   -1.6264 H   0  0  0  0  0  0  0  0  0  0  0  0
   -4.5937    1.4891   -2.4352 H   0  0  0  0  0  0  0  0  0  0  0  0
   -6.6960    2.7678   -2.3674 H   0  0  0  0  0  0  0  0  0  0  0  0
   -8.1713    2.6370   -0.3790 H   0  0  0  0  0  0  0  0  0  0  0  0
   -7.5359    1.2393    1.5451 H   0  0  0  0  0  0  0  0  0  0  0  0
   -5.3714   -1.3592    1.6110 H   0  0  0  0  0  0  0  0  0  0  0  0
   -6.0243   -0.1227    2.6931 H   0  0  0  0  0  0  0  0  0  0  0  0
   -4.3276   -0.0445    2.2271 H   0  0  0  0  0  0  0  0  0  0  0  0
    0.0447    0.2878    1.5332 H   0  0  0  0  0  0  0  0  0  0  0  0
    0.1635    1.5009    0.2511 H   0  0  0  0  0  0  0  0  0  0  0  0
  1  2  1  0
  2  3  2  0
  2  4  1  0
  4  5  1  0
  5  6  1  0
  6  7  1  0
  7  8  1  0
  8  9  1  0
  9 10  1  0
  4 11  1  0
 11 12  1  0
 12 13  1  0
 13 14  1  0
 14 15  1  0
 15 16  2  0
 15 17  1  0
 17 18  1  0
 18 19  2  0
 19 20  1  0
 20 21  2  0
 21 22  1  0
 22 23  2  0
 23 24  1  0
 14 25  1  0
 10  5  1  0
 25 11  1  0
 23 18  1  0
  1 26  1  0
  1 27  1  0
  1 28  1  0
  5 29  1  0
  6 30  1  0
  6 31  1  0
  7 32  1  0
  7 33  1  0
  9 34  1  0
  9 35  1  0
 10 36  1  0
 10 37  1  0
 11 38  1  0
 12 39  1  0
 12 40  1  0
 13 41  1  0
 13 42  1  0
 17 43  1  0
 17 44  1  0
 19 45  1  0
 20 46  1  0
 21 47  1  0
 22 48  1  0
 24 49  1  0
 24 50  1  0
 24 51  1  0
 25 52  1  0
 25 53  1  0
M  END
$$$$
