
     RDKit          3D

 34 37  0  0  0  0  0  0  0  0999 V2000
   -2.6262   -2.0441   -1.1643 O   0  0  0  0  0  0  0  0  0  0  0  0
   -2.4129   -1.0099   -0.5456 C   0  0  0  0  0  0  0  0  0  0  0  0
   -1.1797   -0.4335   -0.2898 N   0  0  0  0  0  0  0  0  0  0  0  0
    0.0756   -0.8605   -0.7773 C   0  0  0  0  0  0  0  0  0  0  0  0
    0.2362   -1.8744   -1.7322 C   0  0  0  0  0  0  0  0  0  0  0  0
    1.4988   -2.2432   -2.1913 C   0  0  0  0  0  0  0  0  0  0  0  0
    1.6463   -3.4932   -3.3691 Cl  0  0  0  0  0  0  0  0  0  0  0  0
    2.6522   -1.6165   -1.7217 C   0  0  0  0  0  0  0  0  0  0  0  0
    2.5294   -0.5921   -0.7639 C   0  0  0  0  0  0  0  0  0  0  0  0
    1.2536   -0.2367   -0.3134 C   0  0  0  0  0  0  0  0  0  0  0  0
    1.4408    0.7692    0.6129 N   0  0  0  0  0  0  0  0  0  0  0  0
    2.7710    1.0755    0.7609 C   0  0  0  0  0  0  0  0  0  0  0  0
    3.3984    2.0127    1.5713 C   0  0  0  0  0  0  0  0  0  0  0  0
    4.7450    2.1184    1.5320 N   0  0  0  0  0  0  0  0  0  0  0  0
    5.4433    1.3072    0.7076 C   0  0  0  0  0  0  0  0  0  0  0  0
    4.8796    0.3513   -0.1240 C   0  0  0  0  0  0  0  0  0  0  0  0
    3.4817    0.2370   -0.0906 C   0  0  0  0  0  0  0  0  0  0  0  0
   -3.5716   -0.2982    0.0438 C   0  0  0  0  0  0  0  0  0  0  0  0
   -3.6376    1.0939    0.1489 C   0  0  0  0  0  0  0  0  0  0  0  0
   -4.7681    1.6809    0.7155 C   0  0  0  0  0  0  0  0  0  0  0  0
   -5.7929    0.8551    1.1521 C   0  0  0  0  0  0  0  0  0  0  0  0
   -5.7632   -0.4913    1.0531 N   0  0  0  0  0  0  0  0  0  0  0  0
   -4.6588   -1.0398    0.4878 C   0  0  0  0  0  0  0  0  0  0  0  0
   -1.1670    0.3286    0.3701 H   0  0  0  0  0  0  0  0  0  0  0  0
   -0.6238   -2.3927   -2.1461 H   0  0  0  0  0  0  0  0  0  0  0  0
    3.6303   -1.9125   -2.0886 H   0  0  0  0  0  0  0  0  0  0  0  0
    0.7026    1.2225    1.1281 H   0  0  0  0  0  0  0  0  0  0  0  0
    2.8726    2.6774    2.2454 H   0  0  0  0  0  0  0  0  0  0  0  0
    6.5207    1.4496    0.7319 H   0  0  0  0  0  0  0  0  0  0  0  0
    5.4947   -0.2704   -0.7627 H   0  0  0  0  0  0  0  0  0  0  0  0
   -2.8451    1.7293   -0.2342 H   0  0  0  0  0  0  0  0  0  0  0  0
   -4.8570    2.7586    0.8033 H   0  0  0  0  0  0  0  0  0  0  0  0
   -6.6945    1.2664    1.5984 H   0  0  0  0  0  0  0  0  0  0  0  0
   -4.6742   -2.1245    0.4084 H   0  0  0  0  0  0  0  0  0  0  0  0
  1  2  2  0
  2  3  1  0
  3  4  1  0
  4  5  2  0
  5  6  1  0
  6  7  1  0
  6  8  2  0
  8  9  1  0
  9 10  2  0
 10 11  1  0
 11 12  1  0
 12 13  2  0
 13 14  1  0
 14 15  2  0
 15 16  1  0
 16 17  2  0
  2 18  1  0
 18 19  2  0
 19 20  1  0
 20 21  2  0
 21 22  1  0
 22 23  2  0
 10  4  1  0
 17 12  1  0
 23 18  1  0
 17  9  1  0
  3 24  1  0
  5 25  1  0
  8 26  1  0
 11 27  1  0
 13 28  1  0
 15 29  1  0
 16 30  1  0
 19 31  1  0
 20 32  1  0
 21 33  1  0
 23 34  1  0
M  END
$$$$
