
     RDKit          3D

 49 51  0  0  0  0  0  0  0  0999 V2000
    9.5318   -0.9690    0.0651 C   0  0  0  0  0  0  0  0  0  0  0  0
    8.1449   -0.4909   -0.3258 C   0  0  0  0  0  0  0  0  0  0  0  0
    7.2637   -0.7607    0.7633 O   0  0  0  0  0  0  0  0  0  0  0  0
    5.9555   -0.3968    0.6083 C   0  0  0  0  0  0  0  0  0  0  0  0
    5.1369   -0.6775    1.7020 C   0  0  0  0  0  0  0  0  0  0  0  0
    3.7763   -0.3562    1.6756 C   0  0  0  0  0  0  0  0  0  0  0  0
    3.2111    0.2515    0.5497 C   0  0  0  0  0  0  0  0  0  0  0  0
    1.8348    0.5480    0.6007 N   0  0  0  0  0  0  0  0  0  0  0  0
    1.0466    1.0921   -0.4019 C   0  0  0  0  0  0  0  0  0  0  0  0
    1.4089    1.3932   -1.5359 O   0  0  0  0  0  0  0  0  0  0  0  0
   -0.3914    1.3097    0.0364 C   0  0  0  0  0  0  0  0  0  0  0  0
   -1.2554   -0.2897    0.0946 S   0  0  0  0  0  0  0  0  0  0  0  0
   -2.9069    0.3154    0.3710 C   0  0  0  0  0  0  0  0  0  0  0  0
   -2.9566    1.0990    1.3850 N   0  0  0  0  0  0  0  0  0  0  0  0
   -4.3363    1.8078    1.7796 S   0  0  0  0  0  6  0  0  0  0  0  0
   -4.5914    1.5488    3.1838 O   0  0  0  0  0  0  0  0  0  0  0  0
   -4.3082    3.1687    1.2791 O   0  0  0  0  0  0  0  0  0  0  0  0
   -5.6196    1.0002    0.8958 C   0  0  0  0  0  0  0  0  0  0  0  0
   -6.9440    1.2757    1.2751 C   0  0  0  0  0  0  0  0  0  0  0  0
   -7.9914    0.6795    0.5891 C   0  0  0  0  0  0  0  0  0  0  0  0
   -7.7053   -0.1809   -0.4620 C   0  0  0  0  0  0  0  0  0  0  0  0
   -6.3744   -0.4452   -0.8224 C   0  0  0  0  0  0  0  0  0  0  0  0
   -5.2819    0.1386   -0.1502 C   0  0  0  0  0  0  0  0  0  0  0  0
   -3.9269   -0.1195   -0.4732 N   0  0  0  0  0  0  0  0  0  0  0  0
   -3.6579   -0.8752   -1.7147 C   0  0  0  0  0  0  0  0  0  0  0  0
   -3.6474   -2.3805   -1.4739 C   0  0  0  0  0  0  0  0  0  0  0  0
    4.0324    0.5331   -0.5421 C   0  0  0  0  0  0  0  0  0  0  0  0
    5.3972    0.2104   -0.5144 C   0  0  0  0  0  0  0  0  0  0  0  0
    9.5207   -2.0402    0.2926 H   0  0  0  0  0  0  0  0  0  0  0  0
    9.8763   -0.4549    0.9686 H   0  0  0  0  0  0  0  0  0  0  0  0
   10.2486   -0.7862   -0.7404 H   0  0  0  0  0  0  0  0  0  0  0  0
    7.8193   -1.0322   -1.2217 H   0  0  0  0  0  0  0  0  0  0  0  0
    8.1818    0.5858   -0.5280 H   0  0  0  0  0  0  0  0  0  0  0  0
    5.5619   -1.1506    2.5839 H   0  0  0  0  0  0  0  0  0  0  0  0
    3.1728   -0.5910    2.5482 H   0  0  0  0  0  0  0  0  0  0  0  0
    1.3538    0.2788    1.4516 H   0  0  0  0  0  0  0  0  0  0  0  0
   -0.8803    1.9758   -0.6821 H   0  0  0  0  0  0  0  0  0  0  0  0
   -0.3995    1.7959    1.0175 H   0  0  0  0  0  0  0  0  0  0  0  0
   -7.1509    1.9565    2.0990 H   0  0  0  0  0  0  0  0  0  0  0  0
   -9.0212    0.8841    0.8703 H   0  0  0  0  0  0  0  0  0  0  0  0
   -8.5176   -0.6574   -1.0072 H   0  0  0  0  0  0  0  0  0  0  0  0
   -6.2389   -1.1423   -1.6442 H   0  0  0  0  0  0  0  0  0  0  0  0
   -2.7013   -0.5715   -2.1556 H   0  0  0  0  0  0  0  0  0  0  0  0
   -4.3774   -0.6212   -2.5025 H   0  0  0  0  0  0  0  0  0  0  0  0
   -4.6049   -2.7393   -1.0853 H   0  0  0  0  0  0  0  0  0  0  0  0
   -2.8769   -2.6714   -0.7544 H   0  0  0  0  0  0  0  0  0  0  0  0
   -3.4465   -2.9079   -2.4119 H   0  0  0  0  0  0  0  0  0  0  0  0
    3.6458    1.0085   -1.4382 H   0  0  0  0  0  0  0  0  0  0  0  0
    5.9895    0.4509   -1.3909 H   0  0  0  0  0  0  0  0  0  0  0  0
  1  2  1  0
  2  3  1  0
  3  4  1  0
  4  5  2  0
  5  6  1  0
  6  7  2  0
  7  8  1  0
  8  9  1  0
  9 10  2  0
  9 11  1  0
 11 12  1  0
 12 13  1  0
 13 14  2  0
 14 15  1  0
 15 16  2  0
 15 17  2  0
 15 18  1  0
 18 19  2  0
 19 20  1  0
 20 21  2  0
 21 22  1  0
 22 23  2  0
 23 24  1  0
 24 25  1  0
 25 26  1  0
  7 27  1  0
 27 28  2  0
 28  4  1  0
 24 13  1  0
 23 18  1  0
  1 29  1  0
  1 30  1  0
  1 31  1  0
  2 32  1  0
  2 33  1  0
  5 34  1  0
  6 35  1  0
  8 36  1  0
 11 37  1  0
 11 38  1  0
 19 39  1  0
 20 40  1  0
 21 41  1  0
 22 42  1  0
 25 43  1  0
 25 44  1  0
 26 45  1  0
 26 46  1  0
 26 47  1  0
 27 48  1  0
 28 49  1  0
M  END
$$$$
