
     RDKit          3D

 56 59  0  0  0  0  0  0  0  0999 V2000
   -0.2225    2.0289    1.4211 O   0  0  0  0  0  0  0  0  0  0  0  0
   -0.5158    0.9286    0.9544 C   0  0  0  0  0  0  0  0  0  0  0  0
    0.4826   -0.2251    0.9405 C   0  0  0  0  0  0  0  0  0  0  0  0
    1.8209    0.1099    1.6271 C   0  0  0  0  0  0  0  0  0  0  0  0
    2.6946    1.0702    0.7948 C   0  0  0  0  0  0  0  0  0  0  0  0
    3.7248    0.3388   -0.0559 C   0  0  0  0  0  0  0  0  0  0  0  0
    4.6302   -0.5088    0.7665 N   0  0  0  0  0  0  0  0  0  0  0  0
    6.2574   -0.0143    0.8504 S   0  0  0  0  0  6  0  0  0  0  0  0
    6.2759    1.3726    1.2632 O   0  0  0  0  0  0  0  0  0  0  0  0
    7.0114   -1.0239    1.5621 O   0  0  0  0  0  0  0  0  0  0  0  0
    6.9335   -0.0024   -0.7908 C   0  0  0  0  0  0  0  0  0  0  0  0
    7.6304    0.9611   -1.4996 C   0  0  0  0  0  0  0  0  0  0  0  0
    7.9734    0.5209   -2.8137 C   0  0  0  0  0  0  0  0  0  0  0  0
    7.5256   -0.7564   -3.0361 C   0  0  0  0  0  0  0  0  0  0  0  0
    7.7240   -1.6707   -4.4754 Cl  0  0  0  0  0  0  0  0  0  0  0  0
    6.7087   -1.4279   -1.7146 S   0  0  0  0  0  0  0  0  0  0  0  0
    4.0762   -0.9371    2.0768 C   0  0  0  0  0  0  0  0  0  0  0  0
    2.5799   -1.1893    1.9496 C   0  0  0  0  0  0  0  0  0  0  0  0
   -1.7643    0.6706    0.4120 N   0  0  0  0  0  0  0  0  0  0  0  0
   -2.7887    1.7168    0.4378 C   0  0  0  0  0  0  0  0  0  0  0  0
   -4.1576    1.1818    0.8936 C   0  0  0  0  0  0  0  0  0  0  0  0
   -4.6012    0.0261    0.0851 N   0  0  0  0  0  0  0  0  0  0  0  0
   -5.9572   -0.2270   -0.0723 C   0  0  0  0  0  0  0  0  0  0  0  0
   -6.4676   -0.9081   -1.1925 C   0  0  0  0  0  0  0  0  0  0  0  0
   -7.8364   -1.1660   -1.3414 C   0  0  0  0  0  0  0  0  0  0  0  0
   -8.7231   -0.7470   -0.3625 C   0  0  0  0  0  0  0  0  0  0  0  0
  -10.0326   -0.9916   -0.5026 F   0  0  0  0  0  0  0  0  0  0  0  0
   -8.2652   -0.0786    0.7603 C   0  0  0  0  0  0  0  0  0  0  0  0
   -6.8951    0.1739    0.9005 C   0  0  0  0  0  0  0  0  0  0  0  0
   -3.5859   -0.6356   -0.7503 C   0  0  0  0  0  0  0  0  0  0  0  0
   -2.2086   -0.6474   -0.0556 C   0  0  0  0  0  0  0  0  0  0  0  0
    0.6643   -0.5221   -0.0983 H   0  0  0  0  0  0  0  0  0  0  0  0
    0.0181   -1.0661    1.4690 H   0  0  0  0  0  0  0  0  0  0  0  0
    1.6007    0.6148    2.5777 H   0  0  0  0  0  0  0  0  0  0  0  0
    2.0802    1.7090    0.1505 H   0  0  0  0  0  0  0  0  0  0  0  0
    3.2224    1.7457    1.4821 H   0  0  0  0  0  0  0  0  0  0  0  0
    4.2909    1.0704   -0.6423 H   0  0  0  0  0  0  0  0  0  0  0  0
    3.2254   -0.3138   -0.7822 H   0  0  0  0  0  0  0  0  0  0  0  0
    7.8726    1.9314   -1.0863 H   0  0  0  0  0  0  0  0  0  0  0  0
    8.5170    1.1095   -3.5428 H   0  0  0  0  0  0  0  0  0  0  0  0
    4.2694   -0.1793    2.8446 H   0  0  0  0  0  0  0  0  0  0  0  0
    4.5668   -1.8692    2.3789 H   0  0  0  0  0  0  0  0  0  0  0  0
    2.4057   -1.9378    1.1651 H   0  0  0  0  0  0  0  0  0  0  0  0
    2.1920   -1.6150    2.8828 H   0  0  0  0  0  0  0  0  0  0  0  0
   -2.8617    2.1073   -0.5861 H   0  0  0  0  0  0  0  0  0  0  0  0
   -2.4872    2.5487    1.0836 H   0  0  0  0  0  0  0  0  0  0  0  0
   -4.0942    0.8700    1.9431 H   0  0  0  0  0  0  0  0  0  0  0  0
   -4.8748    2.0082    0.8236 H   0  0  0  0  0  0  0  0  0  0  0  0
   -5.8104   -1.2373   -1.9928 H   0  0  0  0  0  0  0  0  0  0  0  0
   -8.2079   -1.6871   -2.2181 H   0  0  0  0  0  0  0  0  0  0  0  0
   -8.9681    0.2397    1.5244 H   0  0  0  0  0  0  0  0  0  0  0  0
   -6.5692    0.6772    1.8076 H   0  0  0  0  0  0  0  0  0  0  0  0
   -3.8592   -1.6799   -0.9468 H   0  0  0  0  0  0  0  0  0  0  0  0
   -3.5125   -0.1136   -1.7138 H   0  0  0  0  0  0  0  0  0  0  0  0
   -2.2509   -1.2984    0.8251 H   0  0  0  0  0  0  0  0  0  0  0  0
   -1.4572   -1.0555   -0.7363 H   0  0  0  0  0  0  0  0  0  0  0  0
  1  2  2  0
  2  3  1  0
  3  4  1  0
  4  5  1  0
  5  6  1  0
  6  7  1  0
  7  8  1  0
  8  9  2  0
  8 10  2  0
  8 11  1  0
 11 12  2  0
 12 13  1  0
 13 14  2  0
 14 15  1  0
 14 16  1  0
  7 17  1  0
 17 18  1  0
  2 19  1  0
 19 20  1  0
 20 21  1  0
 21 22  1  0
 22 23  1  0
 23 24  2  0
 24 25  1  0
 25 26  2  0
 26 27  1  0
 26 28  1  0
 28 29  2  0
 22 30  1  0
 30 31  1  0
 18  4  1  0
 31 19  1  0
 16 11  1  0
 29 23  1  0
  3 32  1  0
  3 33  1  0
  4 34  1  0
  5 35  1  0
  5 36  1  0
  6 37  1  0
  6 38  1  0
 12 39  1  0
 13 40  1  0
 17 41  1  0
 17 42  1  0
 18 43  1  0
 18 44  1  0
 20 45  1  0
 20 46  1  0
 21 47  1  0
 21 48  1  0
 24 49  1  0
 25 50  1  0
 28 51  1  0
 29 52  1  0
 30 53  1  0
 30 54  1  0
 31 55  1  0
 31 56  1  0
M  END
$$$$
