
     RDKit          3D

 57 61  0  0  0  0  0  0  0  0999 V2000
   -0.7674   -1.4051   -3.0978 C   0  0  0  0  0  0  0  0  0  0  0  0
   -0.1487   -0.7920   -1.9749 O   0  0  0  0  0  0  0  0  0  0  0  0
   -0.9585   -0.4553   -0.9104 C   0  0  0  0  0  0  0  0  0  0  0  0
   -2.3394   -0.7091   -0.8431 C   0  0  0  0  0  0  0  0  0  0  0  0
   -3.1084   -0.3563    0.2784 C   0  0  0  0  0  0  0  0  0  0  0  0
   -4.4803   -0.5886    0.3557 N   0  0  0  0  0  0  0  0  0  0  0  0
   -5.0684   -1.0167    1.6276 C   0  0  0  0  0  0  0  0  0  0  0  0
   -6.4120   -0.3141    1.8389 C   0  0  0  0  0  0  0  0  0  0  0  0
   -7.1401   -0.0221    0.5184 C   0  0  0  0  0  0  0  0  0  0  0  0
   -8.5907   -0.0015    0.7355 N   0  0  0  0  0  0  0  0  0  0  0  0
   -6.7465   -1.0314   -0.5591 C   0  0  0  0  0  0  0  0  0  0  0  0
   -5.2409   -0.9572   -0.8454 C   0  0  0  0  0  0  0  0  0  0  0  0
   -2.4283    0.2991    1.3146 C   0  0  0  0  0  0  0  0  0  0  0  0
   -1.0515    0.5597    1.2617 C   0  0  0  0  0  0  0  0  0  0  0  0
   -0.2931    0.1843    0.1566 C   0  0  0  0  0  0  0  0  0  0  0  0
    1.0862    0.4125    0.0444 N   0  0  0  0  0  0  0  0  0  0  0  0
    2.0538    0.9901    0.8505 C   0  0  0  0  0  0  0  0  0  0  0  0
    1.7624    1.5018    2.0554 N   0  0  0  0  0  0  0  0  0  0  0  0
    2.7775    2.0373    2.7667 C   0  0  0  0  0  0  0  0  0  0  0  0
    4.0787    2.0938    2.3299 C   0  0  0  0  0  0  0  0  0  0  0  0
    5.2911    2.7652    3.3440 Cl  0  0  0  0  0  0  0  0  0  0  0  0
    4.2871    1.5521    1.0772 C   0  0  0  0  0  0  0  0  0  0  0  0
    5.5912    1.5086    0.4318 C   0  0  0  0  0  0  0  0  0  0  0  0
    6.3581    2.6273    0.1672 C   0  0  0  0  0  0  0  0  0  0  0  0
    7.5041    2.2176   -0.4622 N   0  0  0  0  0  0  0  0  0  0  0  0
    7.4903    0.8535   -0.6399 C   0  0  0  0  0  0  0  0  0  0  0  0
    8.4361    0.0123   -1.2384 C   0  0  0  0  0  0  0  0  0  0  0  0
    8.1478   -1.3548   -1.2893 C   0  0  0  0  0  0  0  0  0  0  0  0
    6.9602   -1.8580   -0.7639 C   0  0  0  0  0  0  0  0  0  0  0  0
    6.0261   -1.0032   -0.1681 C   0  0  0  0  0  0  0  0  0  0  0  0
    6.2927    0.3807   -0.1004 C   0  0  0  0  0  0  0  0  0  0  0  0
    3.2936    0.9954    0.3398 N   0  0  0  0  0  0  0  0  0  0  0  0
    0.0077   -1.5836   -3.8494 H   0  0  0  0  0  0  0  0  0  0  0  0
   -1.5178   -0.7455   -3.5457 H   0  0  0  0  0  0  0  0  0  0  0  0
   -1.1986   -2.3751   -2.8298 H   0  0  0  0  0  0  0  0  0  0  0  0
   -2.8247   -1.2082   -1.6711 H   0  0  0  0  0  0  0  0  0  0  0  0
   -4.4361   -0.8417    2.5037 H   0  0  0  0  0  0  0  0  0  0  0  0
   -5.2227   -2.1036    1.5924 H   0  0  0  0  0  0  0  0  0  0  0  0
   -7.0203   -0.9378    2.5068 H   0  0  0  0  0  0  0  0  0  0  0  0
   -6.2551    0.6341    2.3693 H   0  0  0  0  0  0  0  0  0  0  0  0
   -6.8501    0.9804    0.1782 H   0  0  0  0  0  0  0  0  0  0  0  0
   -8.9173   -0.9307    0.9972 H   0  0  0  0  0  0  0  0  0  0  0  0
   -9.0630    0.2288   -0.1381 H   0  0  0  0  0  0  0  0  0  0  0  0
   -7.3001   -0.8582   -1.4900 H   0  0  0  0  0  0  0  0  0  0  0  0
   -7.0047   -2.0467   -0.2289 H   0  0  0  0  0  0  0  0  0  0  0  0
   -4.9132   -1.9273   -1.2378 H   0  0  0  0  0  0  0  0  0  0  0  0
   -5.0753   -0.2004   -1.6226 H   0  0  0  0  0  0  0  0  0  0  0  0
   -2.9680    0.6620    2.1854 H   0  0  0  0  0  0  0  0  0  0  0  0
   -0.5988    1.0734    2.1033 H   0  0  0  0  0  0  0  0  0  0  0  0
    1.4887    0.0842   -0.8253 H   0  0  0  0  0  0  0  0  0  0  0  0
    2.4909    2.4279    3.7390 H   0  0  0  0  0  0  0  0  0  0  0  0
    6.1910    3.6771    0.3692 H   0  0  0  0  0  0  0  0  0  0  0  0
    8.2501    2.8262   -0.7691 H   0  0  0  0  0  0  0  0  0  0  0  0
    9.3607    0.4004   -1.6529 H   0  0  0  0  0  0  0  0  0  0  0  0
    8.8612   -2.0349   -1.7491 H   0  0  0  0  0  0  0  0  0  0  0  0
    6.7529   -2.9238   -0.8169 H   0  0  0  0  0  0  0  0  0  0  0  0
    5.0997   -1.4027    0.2352 H   0  0  0  0  0  0  0  0  0  0  0  0
  1  2  1  0
  2  3  1  0
  3  4  2  0
  4  5  1  0
  5  6  1  0
  6  7  1  0
  7  8  1  0
  8  9  1  0
  9 10  1  0
  9 11  1  0
 11 12  1  0
  5 13  2  0
 13 14  1  0
 14 15  2  0
 15 16  1  0
 16 17  1  0
 17 18  2  0
 18 19  1  0
 19 20  2  0
 20 21  1  0
 20 22  1  0
 22 23  1  0
 23 24  2  0
 24 25  1  0
 25 26  1  0
 26 27  2  0
 27 28  1  0
 28 29  2  0
 29 30  1  0
 30 31  2  0
 22 32  2  0
 15  3  1  0
 32 17  1  0
 12  6  1  0
 31 23  1  0
 31 26  1  0
  1 33  1  0
  1 34  1  0
  1 35  1  0
  4 36  1  0
  7 37  1  0
  7 38  1  0
  8 39  1  0
  8 40  1  0
  9 41  1  0
 10 42  1  0
 10 43  1  0
 11 44  1  0
 11 45  1  0
 12 46  1  0
 12 47  1  0
 13 48  1  0
 14 49  1  0
 16 50  1  0
 19 51  1  0
 24 52  1  0
 25 53  1  0
 27 54  1  0
 28 55  1  0
 29 56  1  0
 30 57  1  0
M  END
$$$$
