
     RDKit          3D

 41 44  0  0  0  0  0  0  0  0999 V2000
   -0.6143    5.3744    1.5711 F   0  0  0  0  0  0  0  0  0  0  0  0
   -0.6488    4.0565    1.3354 C   0  0  0  0  0  0  0  0  0  0  0  0
   -0.7987    3.1746    2.3998 C   0  0  0  0  0  0  0  0  0  0  0  0
   -0.8348    1.8006    2.1560 C   0  0  0  0  0  0  0  0  0  0  0  0
   -0.7164    1.3170    0.8466 C   0  0  0  0  0  0  0  0  0  0  0  0
   -0.7484   -0.1151    0.5868 C   0  0  0  0  0  0  0  0  0  0  0  0
   -1.7698   -0.9471    0.1895 C   0  0  0  0  0  0  0  0  0  0  0  0
   -3.0865   -0.5573   -0.0439 C   0  0  0  0  0  0  0  0  0  0  0  0
   -3.8821   -1.6486   -0.4371 C   0  0  0  0  0  0  0  0  0  0  0  0
   -3.3846   -2.9814   -0.5745 C   0  0  0  0  0  0  0  0  0  0  0  0
   -2.0332   -3.3599   -0.3312 C   0  0  0  0  0  0  0  0  0  0  0  0
   -1.5358   -4.7557   -0.4822 C   0  0  0  0  0  0  0  0  0  0  0  0
   -0.5386   -4.8785   -1.4020 F   0  0  0  0  0  0  0  0  0  0  0  0
   -1.0597   -5.2898    0.6764 F   0  0  0  0  0  0  0  0  0  0  0  0
   -2.5119   -5.6180   -0.8980 F   0  0  0  0  0  0  0  0  0  0  0  0
   -1.2264   -2.2784    0.0639 C   0  0  0  0  0  0  0  0  0  0  0  0
    0.0779   -2.2466    0.3748 N   0  0  0  0  0  0  0  0  0  0  0  0
    0.3444   -0.9521    0.6754 N   0  0  0  0  0  0  0  0  0  0  0  0
    1.7120   -0.5928    1.0575 C   0  0  0  0  0  0  0  0  0  0  0  0
    2.4415    0.1380   -0.0486 C   0  0  0  0  0  0  0  0  0  0  0  0
    2.5538   -0.4723   -1.3156 C   0  0  0  0  0  0  0  0  0  0  0  0
    3.2154    0.1677   -2.3637 C   0  0  0  0  0  0  0  0  0  0  0  0
    3.7805    1.4167   -2.1524 C   0  0  0  0  0  0  0  0  0  0  0  0
    4.4143    2.0325   -3.1584 F   0  0  0  0  0  0  0  0  0  0  0  0
    3.7049    2.0347   -0.9124 C   0  0  0  0  0  0  0  0  0  0  0  0
    3.0439    1.3954    0.1393 C   0  0  0  0  0  0  0  0  0  0  0  0
    3.0162    2.2133    1.6607 Cl  0  0  0  0  0  0  0  0  0  0  0  0
   -0.5755    2.2191   -0.2168 C   0  0  0  0  0  0  0  0  0  0  0  0
   -0.5383    3.5921    0.0298 C   0  0  0  0  0  0  0  0  0  0  0  0
   -0.8859    3.5619    3.4099 H   0  0  0  0  0  0  0  0  0  0  0  0
   -0.9576    1.1132    2.9900 H   0  0  0  0  0  0  0  0  0  0  0  0
   -3.4718    0.4483    0.0589 H   0  0  0  0  0  0  0  0  0  0  0  0
   -4.9376   -1.4697   -0.6487 H   0  0  0  0  0  0  0  0  0  0  0  0
   -4.0933   -3.7524   -0.8865 H   0  0  0  0  0  0  0  0  0  0  0  0
    1.6291   -0.0272    1.9887 H   0  0  0  0  0  0  0  0  0  0  0  0
    2.2495   -1.5188    1.2963 H   0  0  0  0  0  0  0  0  0  0  0  0
    2.1194   -1.4568   -1.4939 H   0  0  0  0  0  0  0  0  0  0  0  0
    3.2938   -0.3023   -3.3395 H   0  0  0  0  0  0  0  0  0  0  0  0
    4.1669    3.0079   -0.7776 H   0  0  0  0  0  0  0  0  0  0  0  0
   -0.4893    1.8568   -1.2391 H   0  0  0  0  0  0  0  0  0  0  0  0
   -0.4244    4.2999   -0.7850 H   0  0  0  0  0  0  0  0  0  0  0  0
  1  2  1  0
  2  3  2  0
  3  4  1  0
  4  5  2  0
  5  6  1  0
  6  7  2  0
  7  8  1  0
  8  9  2  0
  9 10  1  0
 10 11  2  0
 11 12  1  0
 12 13  1  0
 12 14  1  0
 12 15  1  0
 11 16  1  0
 16 17  2  0
 17 18  1  0
 18 19  1  0
 19 20  1  0
 20 21  2  0
 21 22  1  0
 22 23  2  0
 23 24  1  0
 23 25  1  0
 25 26  2  0
 26 27  1  0
  5 28  1  0
 28 29  2  0
 29  2  1  0
 18  6  1  0
 26 20  1  0
 16  7  1  0
  3 30  1  0
  4 31  1  0
  8 32  1  0
  9 33  1  0
 10 34  1  0
 19 35  1  0
 19 36  1  0
 21 37  1  0
 22 38  1  0
 25 39  1  0
 28 40  1  0
 29 41  1  0
M  END
$$$$
