
     RDKit          3D

 35 37  0  0  0  0  0  0  0  0999 V2000
    6.6684    0.6634    0.5867 C   0  0  0  0  0  0  0  0  0  0  0  0
    5.9219   -0.4976    0.9286 O   0  0  0  0  0  0  0  0  0  0  0  0
    4.5872   -0.4835    0.6337 C   0  0  0  0  0  0  0  0  0  0  0  0
    3.8879    0.5645    0.0383 C   0  0  0  0  0  0  0  0  0  0  0  0
    2.5137    0.4443   -0.2076 C   0  0  0  0  0  0  0  0  0  0  0  0
    1.8176   -0.7252    0.1301 C   0  0  0  0  0  0  0  0  0  0  0  0
    0.3685   -0.8239   -0.1301 C   0  0  0  0  0  0  0  0  0  0  0  0
   -0.1803   -1.9355   -0.6420 C   0  0  0  0  0  0  0  0  0  0  0  0
   -1.6307   -1.9750   -0.8899 C   0  0  0  0  0  0  0  0  0  0  0  0
   -2.1628   -2.9750   -1.3525 O   0  0  0  0  0  0  0  0  0  0  0  0
   -2.3868   -0.7609   -0.5521 C   0  0  0  0  0  0  0  0  0  0  0  0
   -3.7693   -0.6990   -0.7458 C   0  0  0  0  0  0  0  0  0  0  0  0
   -4.4703    0.4644   -0.4178 C   0  0  0  0  0  0  0  0  0  0  0  0
   -5.8159    0.4042   -0.6514 O   0  0  0  0  0  0  0  0  0  0  0  0
   -6.5812    1.5591   -0.3310 C   0  0  0  0  0  0  0  0  0  0  0  0
   -3.7766    1.5602    0.1032 C   0  0  0  0  0  0  0  0  0  0  0  0
   -2.3915    1.4929    0.2947 C   0  0  0  0  0  0  0  0  0  0  0  0
   -1.6977    0.3301   -0.0340 C   0  0  0  0  0  0  0  0  0  0  0  0
   -0.3424    0.3269    0.1756 O   0  0  0  0  0  0  0  0  0  0  0  0
    2.5281   -1.7691    0.7368 C   0  0  0  0  0  0  0  0  0  0  0  0
    3.8996   -1.6472    0.9823 C   0  0  0  0  0  0  0  0  0  0  0  0
    7.7081    0.4911    0.8813 H   0  0  0  0  0  0  0  0  0  0  0  0
    6.6532    0.8387   -0.4941 H   0  0  0  0  0  0  0  0  0  0  0  0
    6.3080    1.5400    1.1352 H   0  0  0  0  0  0  0  0  0  0  0  0
    4.3767    1.4898   -0.2476 H   0  0  0  0  0  0  0  0  0  0  0  0
    1.9915    1.2768   -0.6755 H   0  0  0  0  0  0  0  0  0  0  0  0
    0.3792   -2.8246   -0.9020 H   0  0  0  0  0  0  0  0  0  0  0  0
   -4.3028   -1.5561   -1.1518 H   0  0  0  0  0  0  0  0  0  0  0  0
   -7.6266    1.3455   -0.5735 H   0  0  0  0  0  0  0  0  0  0  0  0
   -6.2685    2.4188   -0.9327 H   0  0  0  0  0  0  0  0  0  0  0  0
   -6.5267    1.7841    0.7393 H   0  0  0  0  0  0  0  0  0  0  0  0
   -4.2831    2.4820    0.3713 H   0  0  0  0  0  0  0  0  0  0  0  0
   -1.8583    2.3484    0.7014 H   0  0  0  0  0  0  0  0  0  0  0  0
    2.0260   -2.6854    1.0387 H   0  0  0  0  0  0  0  0  0  0  0  0
    4.4361   -2.4672    1.4542 H   0  0  0  0  0  0  0  0  0  0  0  0
  1  2  1  0
  2  3  1  0
  3  4  2  0
  4  5  1  0
  5  6  2  0
  6  7  1  0
  7  8  2  0
  8  9  1  0
  9 10  2  0
  9 11  1  0
 11 12  2  0
 12 13  1  0
 13 14  1  0
 14 15  1  0
 13 16  2  0
 16 17  1  0
 17 18  2  0
 18 19  1  0
  6 20  1  0
 20 21  2  0
 21  3  1  0
 19  7  1  0
 18 11  1  0
  1 22  1  0
  1 23  1  0
  1 24  1  0
  4 25  1  0
  5 26  1  0
  8 27  1  0
 12 28  1  0
 15 29  1  0
 15 30  1  0
 15 31  1  0
 16 32  1  0
 17 33  1  0
 20 34  1  0
 21 35  1  0
M  END
$$$$
