
     RDKit          3D

 53 56  0  0  0  0  0  0  0  0999 V2000
    3.7151    0.4149   -1.7283 O   0  0  0  0  0  0  0  0  0  0  0  0
    3.2518    0.2923   -0.5976 C   0  0  0  0  0  0  0  0  0  0  0  0
    3.8067   -0.4640    0.4099 N   0  0  0  0  0  0  0  0  0  0  0  0
    4.9680   -1.2617    0.3601 C   0  0  0  0  0  0  0  0  0  0  0  0
    5.3483   -1.9074    1.5469 C   0  0  0  0  0  0  0  0  0  0  0  0
    6.4868   -2.7164    1.5853 C   0  0  0  0  0  0  0  0  0  0  0  0
    7.2461   -2.8817    0.4352 C   0  0  0  0  0  0  0  0  0  0  0  0
    8.3382   -3.6561    0.4702 F   0  0  0  0  0  0  0  0  0  0  0  0
    6.8853   -2.2553   -0.7495 C   0  0  0  0  0  0  0  0  0  0  0  0
    5.7452   -1.4456   -0.7874 C   0  0  0  0  0  0  0  0  0  0  0  0
    2.0914    0.9509   -0.2376 N   0  0  0  0  0  0  0  0  0  0  0  0
    1.3887    1.7758   -1.2019 C   0  0  0  0  0  0  0  0  0  0  0  0
    0.4044    2.5808   -0.3680 C   0  0  0  0  0  0  0  0  0  0  0  0
    0.0265    1.6141    0.7554 C   0  0  0  0  0  0  0  0  0  0  0  0
   -0.9953    0.7440    0.2528 O   0  0  0  0  0  0  0  0  0  0  0  0
   -1.6389   -0.0068    1.2150 C   0  0  0  0  0  0  0  0  0  0  0  0
   -1.2173    0.0830    2.5016 N   0  0  0  0  0  0  0  0  0  0  0  0
   -1.8548   -0.6926    3.4092 C   0  0  0  0  0  0  0  0  0  0  0  0
   -2.8935   -1.5568    3.0977 C   0  0  0  0  0  0  0  0  0  0  0  0
   -3.3139   -1.6295    1.7738 C   0  0  0  0  0  0  0  0  0  0  0  0
   -2.6871   -0.8281    0.8182 C   0  0  0  0  0  0  0  0  0  0  0  0
   -3.1127   -0.9297   -0.5839 C   0  0  0  0  0  0  0  0  0  0  0  0
   -2.8628   -1.9818   -1.1673 O   0  0  0  0  0  0  0  0  0  0  0  0
   -3.8254    0.1199   -1.1565 N   0  0  0  0  0  0  0  0  0  0  0  0
   -4.0575    1.4238   -0.5241 C   0  0  0  0  0  0  0  0  0  0  0  0
   -5.3537    2.0674   -1.0269 C   0  0  0  0  0  0  0  0  0  0  0  0
   -5.3811    2.1329   -2.4589 O   0  0  0  0  0  0  0  0  0  0  0  0
   -5.3080    0.8125   -3.0186 C   0  0  0  0  0  0  0  0  0  0  0  0
   -4.0131    0.1075   -2.6089 C   0  0  0  0  0  0  0  0  0  0  0  0
    1.3410    0.8635    1.0133 C   0  0  0  0  0  0  0  0  0  0  0  0
    3.3450   -0.4170    1.3015 H   0  0  0  0  0  0  0  0  0  0  0  0
    4.7647   -1.7898    2.4561 H   0  0  0  0  0  0  0  0  0  0  0  0
    6.7839   -3.2163    2.5013 H   0  0  0  0  0  0  0  0  0  0  0  0
    7.4883   -2.3971   -1.6408 H   0  0  0  0  0  0  0  0  0  0  0  0
    5.4903   -0.9748   -1.7316 H   0  0  0  0  0  0  0  0  0  0  0  0
    2.0821    2.4099   -1.7628 H   0  0  0  0  0  0  0  0  0  0  0  0
    0.8715    1.1101   -1.9024 H   0  0  0  0  0  0  0  0  0  0  0  0
    0.9107    3.4576    0.0532 H   0  0  0  0  0  0  0  0  0  0  0  0
   -0.4498    2.9155   -0.9639 H   0  0  0  0  0  0  0  0  0  0  0  0
   -0.3325    2.1753    1.6263 H   0  0  0  0  0  0  0  0  0  0  0  0
   -1.4929   -0.6035    4.4304 H   0  0  0  0  0  0  0  0  0  0  0  0
   -3.3585   -2.1655    3.8660 H   0  0  0  0  0  0  0  0  0  0  0  0
   -4.1120   -2.3077    1.4831 H   0  0  0  0  0  0  0  0  0  0  0  0
   -3.2035    2.0568   -0.7912 H   0  0  0  0  0  0  0  0  0  0  0  0
   -4.0935    1.3305    0.5642 H   0  0  0  0  0  0  0  0  0  0  0  0
   -5.4363    3.0890   -0.6428 H   0  0  0  0  0  0  0  0  0  0  0  0
   -6.2300    1.5077   -0.6789 H   0  0  0  0  0  0  0  0  0  0  0  0
   -6.1860    0.2405   -2.6954 H   0  0  0  0  0  0  0  0  0  0  0  0
   -5.3538    0.9079   -4.1079 H   0  0  0  0  0  0  0  0  0  0  0  0
   -3.1515    0.6367   -3.0337 H   0  0  0  0  0  0  0  0  0  0  0  0
   -4.0040   -0.9158   -2.9970 H   0  0  0  0  0  0  0  0  0  0  0  0
    1.9363    1.3675    1.7820 H   0  0  0  0  0  0  0  0  0  0  0  0
    1.2033   -0.1875    1.2818 H   0  0  0  0  0  0  0  0  0  0  0  0
  1  2  2  0
  2  3  1  0
  3  4  1  0
  4  5  2  0
  5  6  1  0
  6  7  2  0
  7  8  1  0
  7  9  1  0
  9 10  2  0
  2 11  1  0
 11 12  1  0
 12 13  1  0
 13 14  1  0
 14 15  1  0
 15 16  1  0
 16 17  2  0
 17 18  1  0
 18 19  2  0
 19 20  1  0
 20 21  2  0
 21 22  1  0
 22 23  2  0
 22 24  1  0
 24 25  1  0
 25 26  1  0
 26 27  1  0
 27 28  1  0
 28 29  1  0
 14 30  1  0
 10  4  1  0
 30 11  1  0
 21 16  1  0
 29 24  1  0
  3 31  1  0
  5 32  1  0
  6 33  1  0
  9 34  1  0
 10 35  1  0
 12 36  1  0
 12 37  1  0
 13 38  1  0
 13 39  1  0
 14 40  1  0
 18 41  1  0
 19 42  1  0
 20 43  1  0
 25 44  1  0
 25 45  1  0
 26 46  1  0
 26 47  1  0
 28 48  1  0
 28 49  1  0
 29 50  1  0
 29 51  1  0
 30 52  1  0
 30 53  1  0
M  END
$$$$
