
     RDKit          3D

 40 43  0  0  0  0  0  0  0  0999 V2000
    0.9110    5.5485   -0.5349 Cl  0  0  0  0  0  0  0  0  0  0  0  0
    1.1903    3.8587   -0.3128 C   0  0  0  0  0  0  0  0  0  0  0  0
    0.0803    3.0099   -0.2976 C   0  0  0  0  0  0  0  0  0  0  0  0
    0.2073    1.6095   -0.1163 C   0  0  0  0  0  0  0  0  0  0  0  0
   -0.9056    0.7372   -0.0758 C   0  0  0  0  0  0  0  0  0  0  0  0
   -2.2042    1.2680   -0.1876 N   0  0  0  0  0  0  0  0  0  0  0  0
   -3.3743    0.3893   -0.2467 C   0  0  0  0  0  0  0  0  0  0  0  0
   -3.4197   -0.5277   -1.4711 C   0  0  0  0  0  0  0  0  0  0  0  0
   -4.2136   -1.7326   -0.9864 C   0  0  0  0  0  0  0  0  0  0  0  0
   -3.7383   -1.9174    0.4468 C   0  0  0  0  0  0  0  0  0  0  0  0
   -3.5884   -0.4969    0.9876 C   0  0  0  0  0  0  0  0  0  0  0  0
   -0.7186   -0.5884    0.0620 N   0  0  0  0  0  0  0  0  0  0  0  0
    0.5330   -1.1262    0.1881 N   0  0  0  0  0  0  0  0  0  0  0  0
    1.6202   -0.3298    0.1610 C   0  0  0  0  0  0  0  0  0  0  0  0
    2.8897   -1.0560    0.2834 C   0  0  0  0  0  0  0  0  0  0  0  0
    3.2299   -1.7000    1.4786 C   0  0  0  0  0  0  0  0  0  0  0  0
    4.4374   -2.3739    1.5550 C   0  0  0  0  0  0  0  0  0  0  0  0
    5.3171   -2.4520    0.5351 N   0  0  0  0  0  0  0  0  0  0  0  0
    4.9665   -1.8474   -0.6183 C   0  0  0  0  0  0  0  0  0  0  0  0
    3.7824   -1.1496   -0.7917 C   0  0  0  0  0  0  0  0  0  0  0  0
    1.5069    1.0654    0.0204 C   0  0  0  0  0  0  0  0  0  0  0  0
    2.6189    1.9464    0.0173 C   0  0  0  0  0  0  0  0  0  0  0  0
    2.4644    3.3255   -0.1473 C   0  0  0  0  0  0  0  0  0  0  0  0
    3.8881    4.3028   -0.1405 Cl  0  0  0  0  0  0  0  0  0  0  0  0
   -0.9061    3.4479   -0.4447 H   0  0  0  0  0  0  0  0  0  0  0  0
   -2.3245    1.9734    0.5355 H   0  0  0  0  0  0  0  0  0  0  0  0
   -4.2434    1.0580   -0.3138 H   0  0  0  0  0  0  0  0  0  0  0  0
   -2.4270   -0.8447   -1.8055 H   0  0  0  0  0  0  0  0  0  0  0  0
   -3.9036   -0.0412   -2.3246 H   0  0  0  0  0  0  0  0  0  0  0  0
   -5.2872   -1.5103   -1.0032 H   0  0  0  0  0  0  0  0  0  0  0  0
   -4.0381   -2.6203   -1.6007 H   0  0  0  0  0  0  0  0  0  0  0  0
   -4.4369   -2.5133    1.0416 H   0  0  0  0  0  0  0  0  0  0  0  0
   -2.7691   -2.4288    0.4571 H   0  0  0  0  0  0  0  0  0  0  0  0
   -4.5191   -0.1995    1.4869 H   0  0  0  0  0  0  0  0  0  0  0  0
   -2.7957   -0.4312    1.7390 H   0  0  0  0  0  0  0  0  0  0  0  0
    2.5630   -1.6826    2.3353 H   0  0  0  0  0  0  0  0  0  0  0  0
    4.7365   -2.8854    2.4655 H   0  0  0  0  0  0  0  0  0  0  0  0
    5.6844   -1.9434   -1.4281 H   0  0  0  0  0  0  0  0  0  0  0  0
    3.5589   -0.6973   -1.7528 H   0  0  0  0  0  0  0  0  0  0  0  0
    3.6270    1.5554    0.1500 H   0  0  0  0  0  0  0  0  0  0  0  0
  1  2  1  0
  2  3  2  0
  3  4  1  0
  4  5  2  0
  5  6  1  0
  6  7  1  0
  7  8  1  0
  8  9  1  0
  9 10  1  0
 10 11  1  0
  5 12  1  0
 12 13  2  0
 13 14  1  0
 14 15  1  0
 15 16  2  0
 16 17  1  0
 17 18  2  0
 18 19  1  0
 19 20  2  0
 14 21  2  0
 21 22  1  0
 22 23  2  0
 23 24  1  0
 23  2  1  0
 21  4  1  0
 11  7  1  0
 20 15  1  0
  3 25  1  0
  6 26  1  0
  7 27  1  0
  8 28  1  0
  8 29  1  0
  9 30  1  0
  9 31  1  0
 10 32  1  0
 10 33  1  0
 11 34  1  0
 11 35  1  0
 16 36  1  0
 17 37  1  0
 19 38  1  0
 20 39  1  0
 22 40  1  0
M  END
$$$$
