
     RDKit          3D

 55 58  0  0  0  0  0  0  0  0999 V2000
    1.2716   -3.2241   -0.5199 C   0  0  0  0  0  0  0  0  0  0  0  0
    2.7012   -3.1028   -0.0299 C   0  0  0  0  0  0  0  0  0  0  0  0
    3.3248   -1.8594   -0.4427 N   0  0  0  0  0  0  0  0  0  0  0  0
    3.5370   -0.7509    0.3266 C   0  0  0  0  0  0  0  0  0  0  0  0
    4.2141    0.1553   -0.4683 C   0  0  0  0  0  0  0  0  0  0  0  0
    4.7229    1.4717   -0.1314 C   0  0  0  0  0  0  0  0  0  0  0  0
    5.8712    1.7888   -0.4325 O   0  0  0  0  0  0  0  0  0  0  0  0
    3.8652    2.3627    0.4982 N   0  0  0  0  0  0  0  0  0  0  0  0
    4.3651    3.6532    0.9451 C   0  0  0  0  0  0  0  0  0  0  0  0
    3.1253    4.4634    1.2905 C   0  0  0  0  0  0  0  0  0  0  0  0
    2.1076    3.3954    1.6696 C   0  0  0  0  0  0  0  0  0  0  0  0
    2.4103    2.2496    0.6919 C   0  0  1  0  0  0  0  0  0  0  0  0
    1.6462    2.3820   -0.6377 C   0  0  0  0  0  0  0  0  0  0  0  0
    0.3376    1.7680   -0.5735 N   0  0  0  0  0  0  0  0  0  0  0  0
   -0.0320    0.5449   -1.0403 C   0  0  0  0  0  0  0  0  0  0  0  0
   -1.3663    0.4484   -0.7056 C   0  0  0  0  0  0  0  0  0  0  0  0
   -2.2659   -0.6688   -0.9496 C   0  0  0  0  0  0  0  0  0  0  0  0
   -1.8937   -1.7269   -1.4465 O   0  0  0  0  0  0  0  0  0  0  0  0
   -3.5615   -0.4258   -0.5469 N   0  0  0  0  0  0  0  0  0  0  0  0
   -4.5743   -1.4528   -0.5655 C   0  0  0  0  0  0  0  0  0  0  0  0
   -4.4523   -2.4328    0.6055 C   0  0  0  0  0  0  0  0  0  0  0  0
   -5.8829   -2.8111    0.9927 C   0  0  0  0  0  0  0  0  0  0  0  0
   -6.7925   -2.0956    0.0029 C   0  0  0  0  0  0  0  0  0  0  0  0
   -5.9833   -0.8871   -0.4345 C   0  0  0  0  0  0  0  0  0  0  0  0
   -1.7455    1.6050   -0.0617 N   0  0  0  0  0  0  0  0  0  0  0  0
   -0.6899    2.4052    0.0113 N   0  0  0  0  0  0  0  0  0  0  0  0
    4.3891   -0.5343   -1.6877 C   0  0  0  0  0  0  0  0  0  0  0  0
    3.8082   -1.7365   -1.6907 N   0  0  0  0  0  0  0  0  0  0  0  0
    1.2170   -3.1827   -1.6122 H   0  0  0  0  0  0  0  0  0  0  0  0
    0.8399   -4.1726   -0.1923 H   0  0  0  0  0  0  0  0  0  0  0  0
    0.6518   -2.4130   -0.1253 H   0  0  0  0  0  0  0  0  0  0  0  0
    2.7281   -3.1443    1.0647 H   0  0  0  0  0  0  0  0  0  0  0  0
    3.3178   -3.9225   -0.4140 H   0  0  0  0  0  0  0  0  0  0  0  0
    3.2289   -0.7170    1.3623 H   0  0  0  0  0  0  0  0  0  0  0  0
    4.9918    3.4813    1.8275 H   0  0  0  0  0  0  0  0  0  0  0  0
    4.9707    4.1324    0.1696 H   0  0  0  0  0  0  0  0  0  0  0  0
    2.7801    5.0171    0.4096 H   0  0  0  0  0  0  0  0  0  0  0  0
    3.3060    5.1843    2.0929 H   0  0  0  0  0  0  0  0  0  0  0  0
    2.3042    3.0614    2.6970 H   0  0  0  0  0  0  0  0  0  0  0  0
    1.0788    3.7617    1.6287 H   0  0  0  0  0  0  0  0  0  0  0  0
    2.1758    1.2985    1.1757 H   0  0  0  0  0  0  0  0  0  0  0  0
    1.5069    3.4278   -0.9351 H   0  0  0  0  0  0  0  0  0  0  0  0
    2.1796    1.8907   -1.4589 H   0  0  0  0  0  0  0  0  0  0  0  0
    0.6415   -0.1340   -1.5457 H   0  0  0  0  0  0  0  0  0  0  0  0
   -3.7248    0.4381   -0.0386 H   0  0  0  0  0  0  0  0  0  0  0  0
   -4.4868   -2.0086   -1.5077 H   0  0  0  0  0  0  0  0  0  0  0  0
   -3.8718   -3.3154    0.3150 H   0  0  0  0  0  0  0  0  0  0  0  0
   -3.9412   -1.9829    1.4649 H   0  0  0  0  0  0  0  0  0  0  0  0
   -6.0922   -2.4695    2.0135 H   0  0  0  0  0  0  0  0  0  0  0  0
   -6.0387   -3.8943    0.9707 H   0  0  0  0  0  0  0  0  0  0  0  0
   -6.9944   -2.7456   -0.8567 H   0  0  0  0  0  0  0  0  0  0  0  0
   -7.7523   -1.8164    0.4475 H   0  0  0  0  0  0  0  0  0  0  0  0
   -6.3477   -0.4606   -1.3741 H   0  0  0  0  0  0  0  0  0  0  0  0
   -6.0280   -0.1016    0.3309 H   0  0  0  0  0  0  0  0  0  0  0  0
    4.9018   -0.1972   -2.5795 H   0  0  0  0  0  0  0  0  0  0  0  0
  1  2  1  0
  2  3  1  0
  3  4  1  0
  4  5  2  0
  5  6  1  0
  6  7  2  0
  6  8  1  0
  8  9  1  0
  9 10  1  0
 10 11  1  0
 11 12  1  0
 12 13  1  0
 13 14  1  0
 14 15  1  0
 15 16  2  0
 16 17  1  0
 17 18  2  0
 17 19  1  0
 19 20  1  0
 20 21  1  0
 21 22  1  0
 22 23  1  0
 23 24  1  0
 16 25  1  0
 25 26  2  0
  5 27  1  0
 27 28  2  0
 28  3  1  0
 12  8  1  0
 26 14  1  0
 24 20  1  0
  1 29  1  0
  1 30  1  0
  1 31  1  0
  2 32  1  0
  2 33  1  0
  4 34  1  0
  9 35  1  0
  9 36  1  0
 10 37  1  0
 10 38  1  0
 11 39  1  0
 11 40  1  0
 12 41  1  1
 13 42  1  0
 13 43  1  0
 15 44  1  0
 19 45  1  0
 20 46  1  0
 21 47  1  0
 21 48  1  0
 22 49  1  0
 22 50  1  0
 23 51  1  0
 23 52  1  0
 24 53  1  0
 24 54  1  0
 27 55  1  0
M  END
$$$$
