
     RDKit          3D

 69 71  0  0  0  0  0  0  0  0999 V2000
    4.4226    4.9192   -0.4663 C   0  0  0  0  0  0  0  0  0  0  0  0
    3.4716    3.8189   -0.8693 C   0  0  0  0  0  0  0  0  0  0  0  0
    2.4217    4.0900   -1.4561 O   0  0  0  0  0  0  0  0  0  0  0  0
    3.8344    2.5179   -0.5496 N   0  0  0  0  0  0  0  0  0  0  0  0
    5.0830    2.1445    0.1123 C   0  0  0  0  0  0  0  0  0  0  0  0
    5.5401    0.7601   -0.3154 C   0  0  0  0  0  0  0  0  0  0  0  0
    4.4926   -0.3187   -0.0265 C   0  0  0  0  0  0  0  0  0  0  0  0
    3.0291    0.1963    0.0098 C   0  0  0  0  0  0  0  0  0  0  0  0
    2.0551   -0.8945   -0.2891 N   0  0  0  0  0  0  0  0  0  0  0  0
    0.6591   -0.4170   -0.3864 C   0  0  0  0  0  0  0  0  0  0  0  0
    0.2005   -0.3244   -1.8540 C   0  0  0  0  0  0  0  0  0  0  0  0
   -1.1300    0.2434   -1.9709 N   0  0  0  0  0  0  0  0  0  0  0  0
   -2.2572   -0.5241   -1.7312 C   0  0  0  0  0  0  0  0  0  0  0  0
   -2.1998   -1.7290   -1.4892 O   0  0  0  0  0  0  0  0  0  0  0  0
   -3.5711    0.2721   -1.7764 C   0  0  0  0  0  0  0  0  0  0  0  0
   -4.3273    0.1668   -0.5083 N   0  0  0  0  0  0  0  0  0  0  0  0
   -5.6411    0.7998   -0.6240 C   0  0  0  0  0  0  0  0  0  0  0  0
   -6.7038   -0.0264    0.1090 C   0  0  0  0  0  0  0  0  0  0  0  0
   -6.6697    0.0426    1.6344 C   0  0  0  0  0  0  0  0  0  0  0  0
   -5.3183   -0.2646    2.2729 C   0  0  0  0  0  0  0  0  0  0  0  0
   -4.2796    0.8136    1.9685 C   0  0  0  0  0  0  0  0  0  0  0  0
   -3.5358    0.6227    0.6404 C   0  0  0  0  0  0  0  0  0  0  0  0
    2.1908   -2.0916    0.5820 C   0  0  0  0  0  0  0  0  0  0  0  0
    1.8391   -1.8546    2.0649 C   0  0  0  0  0  0  0  0  0  0  0  0
    1.4512   -3.1537    2.7655 C   0  0  0  0  0  0  0  0  0  0  0  0
    2.1704   -4.2482    2.2075 O   0  0  0  0  0  0  0  0  0  0  0  0
    1.7448   -4.5539    0.8763 C   0  0  0  0  0  0  0  0  0  0  0  0
    1.4241   -3.3116    0.0397 C   0  0  0  0  0  0  0  0  0  0  0  0
    2.9261    1.4301   -0.9281 C   0  0  0  0  0  0  0  0  0  0  0  0
    3.9579    5.8876   -0.6676 H   0  0  0  0  0  0  0  0  0  0  0  0
    5.3418    4.8553   -1.0542 H   0  0  0  0  0  0  0  0  0  0  0  0
    4.6443    4.8632    0.6026 H   0  0  0  0  0  0  0  0  0  0  0  0
    5.8674    2.8723   -0.1121 H   0  0  0  0  0  0  0  0  0  0  0  0
    4.9007    2.1720    1.1934 H   0  0  0  0  0  0  0  0  0  0  0  0
    5.7423    0.7712   -1.3951 H   0  0  0  0  0  0  0  0  0  0  0  0
    6.4853    0.5005    0.1759 H   0  0  0  0  0  0  0  0  0  0  0  0
    4.7307   -0.7816    0.9403 H   0  0  0  0  0  0  0  0  0  0  0  0
    4.6082   -1.1015   -0.7878 H   0  0  0  0  0  0  0  0  0  0  0  0
    2.8350    0.5587    1.0295 H   0  0  0  0  0  0  0  0  0  0  0  0
    0.5272    0.5472    0.1216 H   0  0  0  0  0  0  0  0  0  0  0  0
   -0.0422   -1.0752    0.1389 H   0  0  0  0  0  0  0  0  0  0  0  0
    0.8638    0.3160   -2.4425 H   0  0  0  0  0  0  0  0  0  0  0  0
    0.2013   -1.3200   -2.3123 H   0  0  0  0  0  0  0  0  0  0  0  0
   -1.2136    1.2509   -2.0265 H   0  0  0  0  0  0  0  0  0  0  0  0
   -3.3759    1.3237   -2.0213 H   0  0  0  0  0  0  0  0  0  0  0  0
   -4.1484   -0.1581   -2.6052 H   0  0  0  0  0  0  0  0  0  0  0  0
   -5.9544    0.8272   -1.6778 H   0  0  0  0  0  0  0  0  0  0  0  0
   -5.6337    1.8448   -0.2881 H   0  0  0  0  0  0  0  0  0  0  0  0
   -6.6320   -1.0759   -0.2069 H   0  0  0  0  0  0  0  0  0  0  0  0
   -7.6932    0.3162   -0.2192 H   0  0  0  0  0  0  0  0  0  0  0  0
   -7.4101   -0.6688    2.0261 H   0  0  0  0  0  0  0  0  0  0  0  0
   -7.0029    1.0376    1.9552 H   0  0  0  0  0  0  0  0  0  0  0  0
   -5.4704   -0.3013    3.3584 H   0  0  0  0  0  0  0  0  0  0  0  0
   -4.9592   -1.2559    1.9721 H   0  0  0  0  0  0  0  0  0  0  0  0
   -3.5263    0.8138    2.7697 H   0  0  0  0  0  0  0  0  0  0  0  0
   -4.7493    1.8048    1.9948 H   0  0  0  0  0  0  0  0  0  0  0  0
   -2.7439   -0.1146    0.8244 H   0  0  0  0  0  0  0  0  0  0  0  0
   -3.0320    1.5712    0.4077 H   0  0  0  0  0  0  0  0  0  0  0  0
    3.2399   -2.4112    0.5454 H   0  0  0  0  0  0  0  0  0  0  0  0
    1.0251   -1.1340    2.1967 H   0  0  0  0  0  0  0  0  0  0  0  0
    2.7144   -1.4206    2.5645 H   0  0  0  0  0  0  0  0  0  0  0  0
    1.6819   -3.0896    3.8328 H   0  0  0  0  0  0  0  0  0  0  0  0
    0.3737   -3.3438    2.6826 H   0  0  0  0  0  0  0  0  0  0  0  0
    2.5574   -5.1205    0.4068 H   0  0  0  0  0  0  0  0  0  0  0  0
    0.8766   -5.2203    0.9240 H   0  0  0  0  0  0  0  0  0  0  0  0
    1.6665   -3.5032   -1.0122 H   0  0  0  0  0  0  0  0  0  0  0  0
    0.3401   -3.1461    0.0847 H   0  0  0  0  0  0  0  0  0  0  0  0
    3.1735    1.1500   -1.9605 H   0  0  0  0  0  0  0  0  0  0  0  0
    1.9098    1.8323   -0.9351 H   0  0  0  0  0  0  0  0  0  0  0  0
  1  2  1  0
  2  3  2  0
  2  4  1  0
  4  5  1  0
  5  6  1  0
  6  7  1  0
  7  8  1  0
  8  9  1  0
  9 10  1  0
 10 11  1  0
 11 12  1  0
 12 13  1  0
 13 14  2  0
 13 15  1  0
 15 16  1  0
 16 17  1  0
 17 18  1  0
 18 19  1  0
 19 20  1  0
 20 21  1  0
 21 22  1  0
  9 23  1  0
 23 24  1  0
 24 25  1  0
 25 26  1  0
 26 27  1  0
 27 28  1  0
  8 29  1  0
 29  4  1  0
 22 16  1  0
 28 23  1  0
  1 30  1  0
  1 31  1  0
  1 32  1  0
  5 33  1  0
  5 34  1  0
  6 35  1  0
  6 36  1  0
  7 37  1  0
  7 38  1  0
  8 39  1  0
 10 40  1  0
 10 41  1  0
 11 42  1  0
 11 43  1  0
 12 44  1  0
 15 45  1  0
 15 46  1  0
 17 47  1  0
 17 48  1  0
 18 49  1  0
 18 50  1  0
 19 51  1  0
 19 52  1  0
 20 53  1  0
 20 54  1  0
 21 55  1  0
 21 56  1  0
 22 57  1  0
 22 58  1  0
 23 59  1  0
 24 60  1  0
 24 61  1  0
 25 62  1  0
 25 63  1  0
 27 64  1  0
 27 65  1  0
 28 66  1  0
 28 67  1  0
 29 68  1  0
 29 69  1  0
M  END
$$$$
