
     RDKit          3D

 29 31  0  0  0  0  0  0  0  0999 V2000
    6.6353   -1.3457    0.4338 O   0  0  0  0  0  0  0  0  0  0  0  0
    5.7509   -0.5165    0.5831 C   0  0  0  0  0  0  0  0  0  0  0  0
    6.0391    0.7138    1.0592 O   0  0  0  0  0  0  0  0  0  0  0  0
    4.3579   -0.7300    0.2869 C   0  0  0  0  0  0  0  0  0  0  0  0
    3.7510   -1.8995   -0.2186 C   0  0  0  0  0  0  0  0  0  0  0  0
    2.4300   -1.7738   -0.3849 N   0  0  0  0  0  0  0  0  0  0  0  0
    2.1771   -0.5030    0.0193 N   0  0  0  0  0  0  0  0  0  0  0  0
    0.8682   -0.0503   -0.0305 C   0  0  0  0  0  0  0  0  0  0  0  0
    0.4562    1.1495    0.3227 N   0  0  0  0  0  0  0  0  0  0  0  0
   -0.9005    1.1334    0.1016 C   0  0  0  0  0  0  0  0  0  0  0  0
   -1.8457    2.1500    0.2962 C   0  0  0  0  0  0  0  0  0  0  0  0
   -3.1844    1.8805   -0.0091 C   0  0  0  0  0  0  0  0  0  0  0  0
   -4.3425    3.1438    0.2129 Cl  0  0  0  0  0  0  0  0  0  0  0  0
   -3.5774    0.6191   -0.4810 C   0  0  0  0  0  0  0  0  0  0  0  0
   -4.8900    0.3907   -0.8102 O   0  0  0  0  0  0  0  0  0  0  0  0
   -5.5500   -0.3515    0.2101 C   0  0  0  0  0  0  0  0  0  0  0  0
   -6.8768   -0.3529   -0.0422 F   0  0  0  0  0  0  0  0  0  0  0  0
   -5.1228   -1.6339    0.2129 F   0  0  0  0  0  0  0  0  0  0  0  0
   -5.3488    0.1853    1.4320 F   0  0  0  0  0  0  0  0  0  0  0  0
   -2.6413   -0.3997   -0.7073 C   0  0  0  0  0  0  0  0  0  0  0  0
   -1.3141   -0.1025   -0.3924 C   0  0  0  0  0  0  0  0  0  0  0  0
   -0.1598   -0.8390   -0.4702 N   0  0  0  0  0  0  0  0  0  0  0  0
    3.3067    0.1534    0.4285 C   0  0  0  0  0  0  0  0  0  0  0  0
    7.0068    0.6845    1.2030 H   0  0  0  0  0  0  0  0  0  0  0  0
    4.2278   -2.8396   -0.4714 H   0  0  0  0  0  0  0  0  0  0  0  0
   -1.5306    3.1178    0.6699 H   0  0  0  0  0  0  0  0  0  0  0  0
   -2.9308   -1.3657   -1.1078 H   0  0  0  0  0  0  0  0  0  0  0  0
   -0.0506   -1.7939   -0.7870 H   0  0  0  0  0  0  0  0  0  0  0  0
    3.2590    1.1758    0.7783 H   0  0  0  0  0  0  0  0  0  0  0  0
  1  2  2  0
  2  3  1  0
  2  4  1  0
  4  5  1  0
  5  6  2  0
  6  7  1  0
  7  8  1  0
  8  9  2  0
  9 10  1  0
 10 11  2  0
 11 12  1  0
 12 13  1  0
 12 14  2  0
 14 15  1  0
 15 16  1  0
 16 17  1  0
 16 18  1  0
 16 19  1  0
 14 20  1  0
 20 21  2  0
 21 22  1  0
  7 23  1  0
 23  4  2  0
 22  8  1  0
 21 10  1  0
  3 24  1  0
  5 25  1  0
 11 26  1  0
 20 27  1  0
 22 28  1  0
 23 29  1  0
M  END
$$$$
