
     RDKit          3D

 46 48  0  0  0  0  0  0  0  0999 V2000
    5.9599   -0.5693   -0.1756 C   0  0  0  0  0  0  0  0  0  0  0  0
    4.5305   -0.7166   -0.0551 N   0  0  0  0  0  0  0  0  0  0  0  0
    3.8917   -1.9465    0.2311 C   0  0  0  0  0  0  0  0  0  0  0  0
    4.5376   -3.0094    0.1364 O   0  0  0  0  0  0  0  0  0  0  0  0
    2.4659   -2.0195    0.6444 C   0  0  0  0  0  0  0  0  0  0  0  0
    1.7438   -0.9101    0.1598 O   0  0  0  0  0  0  0  0  0  0  0  0
    2.3352    0.2866   -0.1159 C   0  0  0  0  0  0  0  0  0  0  0  0
    1.5367    1.3830   -0.2835 C   0  0  0  0  0  0  0  0  0  0  0  0
    0.0914    1.4222   -0.1995 C   0  0  0  0  0  0  0  0  0  0  0  0
   -0.5379    2.5241   -0.3790 O   0  0  0  0  0  0  0  0  0  0  0  0
   -0.7830    0.3548    0.0684 N   0  0  0  0  0  0  0  0  0  0  0  0
   -2.2139    0.4573    0.1388 C   0  0  0  0  0  0  0  0  0  0  0  0
   -2.7427    0.1521    1.5335 C   0  0  0  0  0  0  0  0  0  0  0  0
   -4.1466   -0.1818    1.3824 N   0  0  0  0  0  0  0  0  0  0  0  0
   -4.2610   -1.5583    0.9091 C   0  0  0  0  0  0  0  0  0  0  0  0
   -3.2667   -1.7556   -0.2225 C   0  0  0  0  0  0  0  0  0  0  0  0
   -2.9654   -0.3943   -0.8176 C   0  0  0  0  0  0  0  0  0  0  0  0
   -4.3481    0.2589   -1.0022 C   0  0  0  0  0  0  0  0  0  0  0  0
   -4.8021    0.6473    0.3942 C   0  0  0  0  0  0  0  0  0  0  0  0
    2.1592    2.6049   -0.5662 C   0  0  0  0  0  0  0  0  0  0  0  0
    3.5222    2.7391   -0.6794 C   0  0  0  0  0  0  0  0  0  0  0  0
    4.2219    4.3002   -1.0345 Cl  0  0  0  0  0  0  0  0  0  0  0  0
    4.3263    1.6398   -0.5116 C   0  0  0  0  0  0  0  0  0  0  0  0
    3.7129    0.4383   -0.2335 C   0  0  0  0  0  0  0  0  0  0  0  0
    0.6844    0.0000    0.0000 Cl  0  0  0  0  0  0  0  0  0  0  0  0
    6.1555   -0.1573   -1.1943 H   0  0  0  0  0  0  0  0  0  0  0  0
    6.2723    0.2348    0.5467 H   0  0  0  0  0  0  0  0  0  0  0  0
    6.5125   -1.4955   -0.0222 H   0  0  0  0  0  0  0  0  0  0  0  0
    2.3849   -2.1252    1.7567 H   0  0  0  0  0  0  0  0  0  0  0  0
    2.0527   -2.9547    0.1649 H   0  0  0  0  0  0  0  0  0  0  0  0
   -0.3895   -0.5862    0.2308 H   0  0  0  0  0  0  0  0  0  0  0  0
   -2.4662    1.5202   -0.0567 H   0  0  0  0  0  0  0  0  0  0  0  0
   -2.1720   -0.7010    1.9450 H   0  0  0  0  0  0  0  0  0  0  0  0
   -2.6084    1.0262    2.2146 H   0  0  0  0  0  0  0  0  0  0  0  0
   -3.9920   -2.1934    1.8014 H   0  0  0  0  0  0  0  0  0  0  0  0
   -5.2900   -1.7785    0.5754 H   0  0  0  0  0  0  0  0  0  0  0  0
   -3.7209   -2.3632   -1.0447 H   0  0  0  0  0  0  0  0  0  0  0  0
   -2.3871   -2.2406    0.2092 H   0  0  0  0  0  0  0  0  0  0  0  0
   -2.5432   -0.4516   -1.8318 H   0  0  0  0  0  0  0  0  0  0  0  0
   -4.1378    1.2109   -1.5667 H   0  0  0  0  0  0  0  0  0  0  0  0
   -5.0422   -0.4045   -1.5164 H   0  0  0  0  0  0  0  0  0  0  0  0
   -5.8882    0.3923    0.4429 H   0  0  0  0  0  0  0  0  0  0  0  0
   -4.6675    1.7281    0.5848 H   0  0  0  0  0  0  0  0  0  0  0  0
    1.5401    3.4935   -0.7038 H   0  0  0  0  0  0  0  0  0  0  0  0
    5.4192    1.6985   -0.5926 H   0  0  0  0  0  0  0  0  0  0  0  0
   -0.6844    0.0000    0.0000 H   0  0  0  0  0  0  0  0  0  0  0  0
  1  2  1  0
  2  3  1  0
  3  4  2  0
  3  5  1  0
  5  6  1  0
  6  7  1  0
  7  8  2  0
  8  9  1  0
  9 10  2  0
  9 11  1  0
 11 12  1  0
 12 13  1  0
 13 14  1  0
 14 15  1  0
 15 16  1  0
 16 17  1  0
 17 18  1  0
 18 19  1  0
  8 20  1  0
 20 21  2  0
 21 22  1  0
 21 23  1  0
 23 24  2  0
 24  2  1  0
 24  7  1  0
 17 12  1  0
 19 14  1  0
  1 26  1  0
  1 27  1  0
  1 28  1  0
  5 29  1  0
  5 30  1  0
 11 31  1  0
 12 32  1  0
 13 33  1  0
 13 34  1  0
 15 35  1  0
 15 36  1  0
 16 37  1  0
 16 38  1  0
 17 39  1  0
 18 40  1  0
 18 41  1  0
 19 42  1  0
 19 43  1  0
 20 44  1  0
 23 45  1  0
 25 46  1  0
M  END
$$$$
