
     RDKit          3D

 48 50  0  0  0  0  0  0  0  0999 V2000
   -4.4562    2.3673   -0.2495 C   0  0  0  0  0  0  0  0  0  0  0  0
   -4.8032    0.9522    0.2233 C   0  0  0  0  0  0  0  0  0  0  0  0
   -3.6036    0.1753    0.4887 N   0  0  0  0  0  0  0  0  0  0  0  0
   -2.8502    0.3538    1.6288 C   0  0  0  0  0  0  0  0  0  0  0  0
   -3.1280    1.1766    2.4965 O   0  0  0  0  0  0  0  0  0  0  0  0
   -1.6209   -0.5677    1.7005 C   0  0  0  0  0  0  0  0  0  0  0  0
   -0.8124   -0.4473    2.8621 O   0  0  0  0  0  0  0  0  0  0  0  0
   -0.0634    0.7714    2.9108 C   0  0  0  0  0  0  0  0  0  0  0  0
    1.2264    0.5667    2.1833 C   0  0  0  0  0  0  0  0  0  0  0  0
    1.4381    0.8932    0.9219 N   0  0  0  0  0  0  0  0  0  0  0  0
    2.7172    0.5807    0.5101 N   0  0  0  0  0  0  0  0  0  0  0  0
    3.4243    0.0294    1.4797 C   0  0  0  0  0  0  0  0  0  0  0  0
    4.8085   -0.3947    1.3091 C   0  0  0  0  0  0  0  0  0  0  0  0
    5.4698   -0.9099    2.2066 O   0  0  0  0  0  0  0  0  0  0  0  0
    5.2749   -0.1445    0.0246 N   0  0  0  0  0  0  0  0  0  0  0  0
    6.5464   -0.4127   -0.5156 C   0  0  0  0  0  0  0  0  0  0  0  0
    6.7577   -0.0524   -1.8533 C   0  0  0  0  0  0  0  0  0  0  0  0
    7.9906   -0.2831   -2.4691 C   0  0  0  0  0  0  0  0  0  0  0  0
    9.0252   -0.8770   -1.7524 C   0  0  0  0  0  0  0  0  0  0  0  0
    8.8249   -1.2388   -0.4226 C   0  0  0  0  0  0  0  0  0  0  0  0
    7.5905   -1.0078    0.1942 C   0  0  0  0  0  0  0  0  0  0  0  0
    2.5856   -0.1472    2.9602 S   0  0  0  0  0  0  0  0  0  0  0  0
   -5.6797    0.1964   -0.7601 C   0  0  0  0  0  0  0  0  0  0  0  0
   -6.7908   -0.5202   -0.2865 C   0  0  0  0  0  0  0  0  0  0  0  0
   -7.5992   -1.2467   -1.1629 C   0  0  0  0  0  0  0  0  0  0  0  0
   -7.3039   -1.2746   -2.5235 C   0  0  0  0  0  0  0  0  0  0  0  0
   -6.1981   -0.5803   -3.0083 C   0  0  0  0  0  0  0  0  0  0  0  0
   -5.3880    0.1467   -2.1332 C   0  0  0  0  0  0  0  0  0  0  0  0
   -5.3610    2.9297   -0.5047 H   0  0  0  0  0  0  0  0  0  0  0  0
   -3.9278    2.9213    0.5341 H   0  0  0  0  0  0  0  0  0  0  0  0
   -3.8010    2.3585   -1.1274 H   0  0  0  0  0  0  0  0  0  0  0  0
   -5.3450    1.0577    1.1724 H   0  0  0  0  0  0  0  0  0  0  0  0
   -3.3287   -0.5196   -0.1936 H   0  0  0  0  0  0  0  0  0  0  0  0
   -1.0166   -0.4269    0.7973 H   0  0  0  0  0  0  0  0  0  0  0  0
   -1.9951   -1.5976    1.6859 H   0  0  0  0  0  0  0  0  0  0  0  0
   -0.6170    1.6148    2.4858 H   0  0  0  0  0  0  0  0  0  0  0  0
    0.1242    1.0020    3.9649 H   0  0  0  0  0  0  0  0  0  0  0  0
    4.5976    0.2917   -0.5955 H   0  0  0  0  0  0  0  0  0  0  0  0
    5.9669    0.4134   -2.4360 H   0  0  0  0  0  0  0  0  0  0  0  0
    8.1417    0.0014   -3.5072 H   0  0  0  0  0  0  0  0  0  0  0  0
    9.9858   -1.0582   -2.2274 H   0  0  0  0  0  0  0  0  0  0  0  0
    9.6298   -1.7031    0.1420 H   0  0  0  0  0  0  0  0  0  0  0  0
    7.4826   -1.3071    1.2317 H   0  0  0  0  0  0  0  0  0  0  0  0
   -7.0346   -0.5175    0.7745 H   0  0  0  0  0  0  0  0  0  0  0  0
   -8.4590   -1.7921   -0.7820 H   0  0  0  0  0  0  0  0  0  0  0  0
   -7.9341   -1.8396   -3.2054 H   0  0  0  0  0  0  0  0  0  0  0  0
   -5.9653   -0.6053   -4.0700 H   0  0  0  0  0  0  0  0  0  0  0  0
   -4.5260    0.6719   -2.5376 H   0  0  0  0  0  0  0  0  0  0  0  0
  1  2  1  0
  2  3  1  0
  3  4  1  0
  4  5  2  0
  4  6  1  0
  6  7  1  0
  7  8  1  0
  8  9  1  0
  9 10  2  0
 10 11  1  0
 11 12  2  0
 12 13  1  0
 13 14  2  0
 13 15  1  0
 15 16  1  0
 16 17  2  0
 17 18  1  0
 18 19  2  0
 19 20  1  0
 20 21  2  0
 12 22  1  0
  2 23  1  0
 23 24  2  0
 24 25  1  0
 25 26  2  0
 26 27  1  0
 27 28  2  0
 22  9  1  0
 28 23  1  0
 21 16  1  0
  1 29  1  0
  1 30  1  0
  1 31  1  0
  2 32  1  0
  3 33  1  0
  6 34  1  0
  6 35  1  0
  8 36  1  0
  8 37  1  0
 15 38  1  0
 17 39  1  0
 18 40  1  0
 19 41  1  0
 20 42  1  0
 21 43  1  0
 24 44  1  0
 25 45  1  0
 26 46  1  0
 27 47  1  0
 28 48  1  0
M  END
$$$$
