
     RDKit          3D

 47 51  0  0  0  0  0  0  0  0999 V2000
   -2.7670   -3.6558    0.0694 C   0  0  0  0  0  0  0  0  0  0  0  0
   -3.1274   -2.2780    0.5368 C   0  0  0  0  0  0  0  0  0  0  0  0
   -4.2302   -2.0828    1.3603 C   0  0  0  0  0  0  0  0  0  0  0  0
   -4.5306   -0.7918    1.7789 C   0  0  0  0  0  0  0  0  0  0  0  0
   -3.7222    0.2636    1.3670 C   0  0  0  0  0  0  0  0  0  0  0  0
   -2.6326   -0.0035    0.5429 C   0  0  0  0  0  0  0  0  0  0  0  0
   -1.7420    1.0793    0.0874 C   0  0  0  0  0  0  0  0  0  0  0  0
   -1.9930    2.3819    0.3884 N   0  0  0  0  0  0  0  0  0  0  0  0
   -0.9761    3.0174   -0.1730 N   0  0  0  0  0  0  0  0  0  0  0  0
   -0.0854    2.2517   -0.8361 C   0  0  0  0  0  0  0  0  0  0  0  0
   -0.5271    0.9634   -0.6967 C   0  0  0  0  0  0  0  0  0  0  0  0
    0.1525   -0.1834   -1.2674 C   0  0  0  0  0  0  0  0  0  0  0  0
   -0.3658   -0.7276   -2.4420 C   0  0  0  0  0  0  0  0  0  0  0  0
    0.2759   -1.8163   -2.9905 C   0  0  0  0  0  0  0  0  0  0  0  0
    1.3808   -2.3821   -2.4626 N   0  0  0  0  0  0  0  0  0  0  0  0
    1.8749   -1.8644   -1.3265 C   0  0  0  0  0  0  0  0  0  0  0  0
    3.0013   -2.4607   -0.7765 C   0  0  0  0  0  0  0  0  0  0  0  0
    3.5936   -1.9915    0.4011 C   0  0  0  0  0  0  0  0  0  0  0  0
    3.0512   -0.8869    1.0545 C   0  0  0  0  0  0  0  0  0  0  0  0
    3.6371   -0.3293    2.3040 C   0  0  0  0  0  0  0  0  0  0  0  0
    4.9350   -0.6482    2.5954 N   0  0  0  0  0  0  0  0  0  0  0  0
    3.0046    0.4215    3.0355 O   0  0  0  0  0  0  0  0  0  0  0  0
    1.9033   -0.2843    0.5281 C   0  0  0  0  0  0  0  0  0  0  0  0
    1.3039   -0.7528   -0.6700 C   0  0  0  0  0  0  0  0  0  0  0  0
    0.9807    3.0807   -1.4225 C   0  0  0  0  0  0  0  0  0  0  0  0
    0.7778    4.4316   -0.6822 C   0  0  0  0  0  0  0  0  0  0  0  0
   -0.6795    4.4353   -0.1817 C   0  0  0  0  0  0  0  0  0  0  0  0
   -2.3368   -1.2607    0.1240 N   0  0  0  0  0  0  0  0  0  0  0  0
   -2.5589   -4.3035    0.9265 H   0  0  0  0  0  0  0  0  0  0  0  0
   -3.5876   -4.0835   -0.5148 H   0  0  0  0  0  0  0  0  0  0  0  0
   -1.8741   -3.6315   -0.5639 H   0  0  0  0  0  0  0  0  0  0  0  0
   -4.8456   -2.9193    1.6749 H   0  0  0  0  0  0  0  0  0  0  0  0
   -5.3840   -0.6061    2.4243 H   0  0  0  0  0  0  0  0  0  0  0  0
   -3.9387    1.2773    1.6892 H   0  0  0  0  0  0  0  0  0  0  0  0
   -1.2569   -0.3219   -2.9081 H   0  0  0  0  0  0  0  0  0  0  0  0
   -0.0931   -2.2814   -3.8999 H   0  0  0  0  0  0  0  0  0  0  0  0
    3.4284   -3.3265   -1.2789 H   0  0  0  0  0  0  0  0  0  0  0  0
    4.4555   -2.5204    0.7948 H   0  0  0  0  0  0  0  0  0  0  0  0
    5.5720   -1.0190    1.9063 H   0  0  0  0  0  0  0  0  0  0  0  0
    5.3391   -0.1586    3.3840 H   0  0  0  0  0  0  0  0  0  0  0  0
    1.4683    0.5619    1.0586 H   0  0  0  0  0  0  0  0  0  0  0  0
    0.8241    3.2052   -2.4989 H   0  0  0  0  0  0  0  0  0  0  0  0
    1.9823    2.6792   -1.2471 H   0  0  0  0  0  0  0  0  0  0  0  0
    1.4546    4.4708    0.1817 H   0  0  0  0  0  0  0  0  0  0  0  0
    1.0069    5.2943   -1.3152 H   0  0  0  0  0  0  0  0  0  0  0  0
   -0.7853    4.8411    0.8267 H   0  0  0  0  0  0  0  0  0  0  0  0
   -1.3638    4.9157   -0.8863 H   0  0  0  0  0  0  0  0  0  0  0  0
  1  2  1  0
  2  3  2  0
  3  4  1  0
  4  5  2  0
  5  6  1  0
  6  7  1  0
  7  8  2  0
  8  9  1  0
  9 10  1  0
 10 11  2  0
 11 12  1  0
 12 13  2  0
 13 14  1  0
 14 15  2  0
 15 16  1  0
 16 17  2  0
 17 18  1  0
 18 19  2  0
 19 20  1  0
 20 21  1  0
 20 22  2  0
 19 23  1  0
 23 24  2  0
 10 25  1  0
 25 26  1  0
 26 27  1  0
  6 28  2  0
 28  2  1  0
 11  7  1  0
 24 12  1  0
 27  9  1  0
 24 16  1  0
  1 29  1  0
  1 30  1  0
  1 31  1  0
  3 32  1  0
  4 33  1  0
  5 34  1  0
 13 35  1  0
 14 36  1  0
 17 37  1  0
 18 38  1  0
 21 39  1  0
 21 40  1  0
 23 41  1  0
 25 42  1  0
 25 43  1  0
 26 44  1  0
 26 45  1  0
 27 46  1  0
 27 47  1  0
M  END
$$$$
