
     RDKit          3D

 38 41  0  0  0  0  0  0  0  0999 V2000
    5.7827   -0.2274    2.3834 C   0  0  0  0  0  0  0  0  0  0  0  0
    4.9299   -0.3682    1.1569 C   0  0  0  0  0  0  0  0  0  0  0  0
    5.5039   -0.6815   -0.0780 C   0  0  0  0  0  0  0  0  0  0  0  0
    4.7006   -0.8363   -1.2066 C   0  0  0  0  0  0  0  0  0  0  0  0
    3.3133   -0.6910   -1.1140 C   0  0  0  0  0  0  0  0  0  0  0  0
    2.7153   -0.3940    0.1155 C   0  0  0  0  0  0  0  0  0  0  0  0
    1.2996   -0.2454    0.2559 N   0  0  0  0  0  0  0  0  0  0  0  0
    0.7748    0.0688    1.4810 N   0  0  0  0  0  0  0  0  0  0  0  0
   -0.5394    0.1265    1.2760 C   0  0  0  0  0  0  0  0  0  0  0  0
   -0.9101   -0.1172   -0.0565 C   0  0  0  0  0  0  0  0  0  0  0  0
   -2.1013   -0.1797   -0.8064 C   0  0  0  0  0  0  0  0  0  0  0  0
   -3.3660    0.0506   -0.2967 N   0  0  0  0  0  0  0  0  0  0  0  0
   -3.6056    1.0724    0.7198 C   0  0  0  0  0  0  0  0  0  0  0  0
   -4.9948    1.6236    0.3931 C   0  0  0  0  0  0  0  0  0  0  0  0
   -5.6588    0.4940   -0.3768 C   0  0  0  0  0  0  0  0  0  0  0  0
   -4.5043   -0.0544   -1.2072 C   0  0  0  0  0  0  0  0  0  0  0  0
   -1.9803   -0.5399   -2.1123 N   0  0  0  0  0  0  0  0  0  0  0  0
   -0.7619   -0.7717   -2.6277 C   0  0  0  0  0  0  0  0  0  0  0  0
    0.4200   -0.7025   -2.0049 N   0  0  0  0  0  0  0  0  0  0  0  0
    0.2919   -0.3779   -0.7019 C   0  0  0  0  0  0  0  0  0  0  0  0
    3.5360   -0.2365    1.2483 C   0  0  0  0  0  0  0  0  0  0  0  0
    5.3970    0.5651    3.0336 H   0  0  0  0  0  0  0  0  0  0  0  0
    6.8113    0.0405    2.1191 H   0  0  0  0  0  0  0  0  0  0  0  0
    5.7970   -1.1700    2.9390 H   0  0  0  0  0  0  0  0  0  0  0  0
    6.5805   -0.8052   -0.1698 H   0  0  0  0  0  0  0  0  0  0  0  0
    5.1553   -1.0714   -2.1658 H   0  0  0  0  0  0  0  0  0  0  0  0
    2.7385   -0.8194   -2.0247 H   0  0  0  0  0  0  0  0  0  0  0  0
   -1.1795    0.3449    2.1201 H   0  0  0  0  0  0  0  0  0  0  0  0
   -3.6042    0.6103    1.7128 H   0  0  0  0  0  0  0  0  0  0  0  0
   -2.8711    1.8853    0.7015 H   0  0  0  0  0  0  0  0  0  0  0  0
   -4.9022    2.5074   -0.2498 H   0  0  0  0  0  0  0  0  0  0  0  0
   -5.5519    1.9124    1.2892 H   0  0  0  0  0  0  0  0  0  0  0  0
   -6.0259   -0.2710    0.3180 H   0  0  0  0  0  0  0  0  0  0  0  0
   -6.4961    0.8327   -0.9930 H   0  0  0  0  0  0  0  0  0  0  0  0
   -4.6926   -1.0887   -1.5144 H   0  0  0  0  0  0  0  0  0  0  0  0
   -4.3621    0.5703   -2.0981 H   0  0  0  0  0  0  0  0  0  0  0  0
   -0.7359   -1.0469   -3.6776 H   0  0  0  0  0  0  0  0  0  0  0  0
    3.0965   -0.0088    2.2188 H   0  0  0  0  0  0  0  0  0  0  0  0
  1  2  1  0
  2  3  2  0
  3  4  1  0
  4  5  2  0
  5  6  1  0
  6  7  1  0
  7  8  1  0
  8  9  2  0
  9 10  1  0
 10 11  2  0
 11 12  1  0
 12 13  1  0
 13 14  1  0
 14 15  1  0
 15 16  1  0
 11 17  1  0
 17 18  2  0
 18 19  1  0
 19 20  2  0
  6 21  2  0
 21  2  1  0
 20  7  1  0
 20 10  1  0
 16 12  1  0
  1 22  1  0
  1 23  1  0
  1 24  1  0
  3 25  1  0
  4 26  1  0
  5 27  1  0
  9 28  1  0
 13 29  1  0
 13 30  1  0
 14 31  1  0
 14 32  1  0
 15 33  1  0
 15 34  1  0
 16 35  1  0
 16 36  1  0
 18 37  1  0
 21 38  1  0
M  END
$$$$
