
     RDKit          3D

 37 38  0  0  0  0  0  0  0  0999 V2000
    0.3111    1.1236    1.1396 O   0  0  0  0  0  0  0  0  0  0  0  0
   -0.0369    0.5810    0.1048 C   0  0  0  0  0  0  0  0  0  0  0  0
   -1.4228    0.2036   -0.2388 C   0  0  0  0  0  0  0  0  0  0  0  0
   -2.4171    0.4517    0.6270 C   0  0  0  0  0  0  0  0  0  0  0  0
   -3.8210    0.0977    0.3804 C   0  0  0  0  0  0  0  0  0  0  0  0
   -4.5920   -0.3802    1.4534 C   0  0  0  0  0  0  0  0  0  0  0  0
   -5.9384   -0.7087    1.2754 C   0  0  0  0  0  0  0  0  0  0  0  0
   -6.5137   -0.5456    0.0257 C   0  0  0  0  0  0  0  0  0  0  0  0
   -7.8293   -0.8645   -0.1496 O   0  0  0  0  0  0  0  0  0  0  0  0
   -5.7676   -0.0564   -1.0426 C   0  0  0  0  0  0  0  0  0  0  0  0
   -6.4041    0.0915   -2.2448 O   0  0  0  0  0  0  0  0  0  0  0  0
   -4.4250    0.2713   -0.8751 C   0  0  0  0  0  0  0  0  0  0  0  0
    0.7623    0.2138   -0.9276 O   0  0  0  0  0  0  0  0  0  0  0  0
    2.1568    0.5240   -0.7626 C   0  0  0  0  0  0  0  0  0  0  0  0
    2.8545   -0.5626    0.0540 C   0  0  0  0  0  0  0  0  0  0  0  0
    4.3306   -0.2989    0.1957 C   0  0  0  0  0  0  0  0  0  0  0  0
    5.2461   -0.8638   -0.7016 C   0  0  0  0  0  0  0  0  0  0  0  0
    6.6110   -0.5992   -0.5776 C   0  0  0  0  0  0  0  0  0  0  0  0
    7.0714    0.2342    0.4403 C   0  0  0  0  0  0  0  0  0  0  0  0
    6.1679    0.8047    1.3349 C   0  0  0  0  0  0  0  0  0  0  0  0
    4.8030    0.5414    1.2129 C   0  0  0  0  0  0  0  0  0  0  0  0
   -1.5790   -0.2844   -1.1924 H   0  0  0  0  0  0  0  0  0  0  0  0
   -2.2055    0.9174    1.5889 H   0  0  0  0  0  0  0  0  0  0  0  0
   -4.1474   -0.5094    2.4384 H   0  0  0  0  0  0  0  0  0  0  0  0
   -6.5302   -1.0852    2.1041 H   0  0  0  0  0  0  0  0  0  0  0  0
   -8.0071   -0.6645   -1.0901 H   0  0  0  0  0  0  0  0  0  0  0  0
   -5.7699    0.4614   -2.8825 H   0  0  0  0  0  0  0  0  0  0  0  0
   -3.8524    0.6705   -1.7059 H   0  0  0  0  0  0  0  0  0  0  0  0
    2.5882    0.5765   -1.7689 H   0  0  0  0  0  0  0  0  0  0  0  0
    2.2822    1.5196   -0.3184 H   0  0  0  0  0  0  0  0  0  0  0  0
    2.3991   -0.6503    1.0482 H   0  0  0  0  0  0  0  0  0  0  0  0
    2.6879   -1.5411   -0.4149 H   0  0  0  0  0  0  0  0  0  0  0  0
    4.9031   -1.5152   -1.5023 H   0  0  0  0  0  0  0  0  0  0  0  0
    7.3158   -1.0437   -1.2753 H   0  0  0  0  0  0  0  0  0  0  0  0
    8.1343    0.4391    0.5366 H   0  0  0  0  0  0  0  0  0  0  0  0
    6.5258    1.4553    2.1286 H   0  0  0  0  0  0  0  0  0  0  0  0
    4.1083    0.9953    1.9174 H   0  0  0  0  0  0  0  0  0  0  0  0
  1  2  2  0
  2  3  1  0
  3  4  2  0
  4  5  1  0
  5  6  2  0
  6  7  1  0
  7  8  2  0
  8  9  1  0
  8 10  1  0
 10 11  1  0
 10 12  2  0
  2 13  1  0
 13 14  1  0
 14 15  1  0
 15 16  1  0
 16 17  2  0
 17 18  1  0
 18 19  2  0
 19 20  1  0
 20 21  2  0
 12  5  1  0
 21 16  1  0
  3 22  1  0
  4 23  1  0
  6 24  1  0
  7 25  1  0
  9 26  1  0
 11 27  1  0
 12 28  1  0
 14 29  1  0
 14 30  1  0
 15 31  1  0
 15 32  1  0
 17 33  1  0
 18 34  1  0
 19 35  1  0
 20 36  1  0
 21 37  1  0
M  END
$$$$
