
     RDKit          3D

 49 52  0  0  0  0  0  0  0  0999 V2000
   -4.6768   -2.9173    0.9089 O   0  0  0  0  0  0  0  0  0  0  0  0
   -4.6935   -1.8239    0.3678 C   0  0  0  0  0  0  0  0  0  0  0  0
   -5.5126   -1.4553   -0.7091 N   0  0  0  0  0  0  0  0  0  0  0  0
   -5.2297   -0.1407   -1.0604 C   0  0  0  0  0  0  0  0  0  0  0  0
   -5.7829    0.6244   -2.0617 C   0  0  0  0  0  0  0  0  0  0  0  0
   -5.3044    1.9311   -2.1923 C   0  0  0  0  0  0  0  0  0  0  0  0
   -4.3032    2.4265   -1.3302 C   0  0  0  0  0  0  0  0  0  0  0  0
   -3.7573    1.6257   -0.3190 C   0  0  0  0  0  0  0  0  0  0  0  0
   -4.2360    0.3394   -0.2047 C   0  0  0  0  0  0  0  0  0  0  0  0
   -3.9114   -0.6944    0.6840 N   0  0  0  0  0  0  0  0  0  0  0  0
   -2.8845   -0.6777    1.6971 C   0  0  0  0  0  0  0  0  0  0  0  0
   -1.6213   -1.4698    1.2929 C   0  0  0  0  0  0  0  0  0  0  0  0
   -0.7962   -0.8214    0.2529 N   0  0  0  0  0  0  0  0  0  0  0  0
   -0.1219    0.3925    0.7689 C   0  0  0  0  0  0  0  0  0  0  0  0
    1.2265    0.7252    0.0858 C   0  0  0  0  0  0  0  0  0  0  0  0
    2.1797   -0.3805    0.2708 N   0  0  0  0  0  0  0  0  0  0  0  0
    3.5495   -0.1975    0.1832 C   0  0  0  0  0  0  0  0  0  0  0  0
    4.4517   -1.1614    0.6619 C   0  0  0  0  0  0  0  0  0  0  0  0
    5.8381   -0.9858    0.5908 C   0  0  0  0  0  0  0  0  0  0  0  0
    6.3655    0.1722    0.0324 C   0  0  0  0  0  0  0  0  0  0  0  0
    5.5073    1.1585   -0.4617 C   0  0  0  0  0  0  0  0  0  0  0  0
    6.0527    2.4323   -1.0536 C   0  0  0  0  0  0  0  0  0  0  0  0
    7.3273    2.3090   -1.5201 F   0  0  0  0  0  0  0  0  0  0  0  0
    5.3174    2.8899   -2.1062 F   0  0  0  0  0  0  0  0  0  0  0  0
    6.0837    3.4519   -0.1509 F   0  0  0  0  0  0  0  0  0  0  0  0
    4.1142    0.9631   -0.3699 C   0  0  0  0  0  0  0  0  0  0  0  0
    1.5990   -1.7356    0.3122 C   0  0  0  0  0  0  0  0  0  0  0  0
    0.1887   -1.7643   -0.3228 C   0  0  0  0  0  0  0  0  0  0  0  0
   -6.1724   -2.0756   -1.1469 H   0  0  0  0  0  0  0  0  0  0  0  0
   -6.5513    0.2386   -2.7200 H   0  0  0  0  0  0  0  0  0  0  0  0
   -5.7083    2.5775   -2.9689 H   0  0  0  0  0  0  0  0  0  0  0  0
   -3.9507    3.4485   -1.4545 H   0  0  0  0  0  0  0  0  0  0  0  0
   -2.9944    2.0162    0.3405 H   0  0  0  0  0  0  0  0  0  0  0  0
   -2.6489    0.3506    1.9882 H   0  0  0  0  0  0  0  0  0  0  0  0
   -3.3103   -1.1657    2.5829 H   0  0  0  0  0  0  0  0  0  0  0  0
   -1.0153   -1.6596    2.1884 H   0  0  0  0  0  0  0  0  0  0  0  0
   -1.9504   -2.4523    0.9320 H   0  0  0  0  0  0  0  0  0  0  0  0
    0.0774    0.2907    1.8446 H   0  0  0  0  0  0  0  0  0  0  0  0
   -0.7928    1.2484    0.6474 H   0  0  0  0  0  0  0  0  0  0  0  0
    1.0744    0.9164   -0.9835 H   0  0  0  0  0  0  0  0  0  0  0  0
    1.6063    1.6447    0.5475 H   0  0  0  0  0  0  0  0  0  0  0  0
    4.0854   -2.0710    1.1309 H   0  0  0  0  0  0  0  0  0  0  0  0
    6.5003   -1.7547    0.9808 H   0  0  0  0  0  0  0  0  0  0  0  0
    7.4451    0.3025   -0.0155 H   0  0  0  0  0  0  0  0  0  0  0  0
    3.4689    1.7425   -0.7706 H   0  0  0  0  0  0  0  0  0  0  0  0
    1.5462   -2.0756    1.3533 H   0  0  0  0  0  0  0  0  0  0  0  0
    2.2211   -2.4446   -0.2478 H   0  0  0  0  0  0  0  0  0  0  0  0
   -0.1926   -2.7928   -0.3217 H   0  0  0  0  0  0  0  0  0  0  0  0
    0.2930   -1.5008   -1.3842 H   0  0  0  0  0  0  0  0  0  0  0  0
  1  2  2  0
  2  3  1  0
  3  4  1  0
  4  5  2  0
  5  6  1  0
  6  7  2  0
  7  8  1  0
  8  9  2  0
  9 10  1  0
 10 11  1  0
 11 12  1  0
 12 13  1  0
 13 14  1  0
 14 15  1  0
 15 16  1  0
 16 17  1  0
 17 18  2  0
 18 19  1  0
 19 20  2  0
 20 21  1  0
 21 22  1  0
 22 23  1  0
 22 24  1  0
 22 25  1  0
 21 26  2  0
 16 27  1  0
 27 28  1  0
 10  2  1  0
 28 13  1  0
  9  4  1  0
 26 17  1  0
  3 29  1  0
  5 30  1  0
  6 31  1  0
  7 32  1  0
  8 33  1  0
 11 34  1  0
 11 35  1  0
 12 36  1  0
 12 37  1  0
 14 38  1  0
 14 39  1  0
 15 40  1  0
 15 41  1  0
 18 42  1  0
 19 43  1  0
 20 44  1  0
 26 45  1  0
 27 46  1  0
 27 47  1  0
 28 48  1  0
 28 49  1  0
M  END
$$$$
