
     RDKit          3D

 38 40  0  0  0  0  0  0  0  0999 V2000
   -4.5111    1.3399   -0.0781 O   0  0  0  0  0  0  0  0  0  0  0  0
   -4.5643    0.1491    0.1585 C   0  0  0  0  0  0  0  0  0  0  0  0
   -5.7377   -0.5117    0.1079 O   0  0  0  0  0  0  0  0  0  0  0  0
   -3.4479   -0.7510    0.5163 C   0  0  0  0  0  0  0  0  0  0  0  0
   -3.5072   -2.1039    0.1482 C   0  0  0  0  0  0  0  0  0  0  0  0
   -2.4509   -2.9558    0.4547 C   0  0  0  0  0  0  0  0  0  0  0  0
   -1.3643   -2.4280    1.1240 C   0  0  0  0  0  0  0  0  0  0  0  0
   -1.2734   -1.1332    1.4965 N   0  0  0  0  0  0  0  0  0  0  0  0
   -2.3091   -0.3044    1.1874 C   0  0  0  0  0  0  0  0  0  0  0  0
   -2.0389    1.3522    1.7846 S   0  0  0  0  0  0  0  0  0  0  0  0
   -1.3784    2.1403    0.2688 C   0  0  0  0  0  0  0  0  0  0  0  0
   -0.6034    3.3950    0.6086 C   0  0  0  0  0  0  0  0  0  0  0  0
    0.8138    2.9089    0.7203 C   0  0  0  0  0  0  0  0  0  0  0  0
    1.6824    3.5826    1.2580 O   0  0  0  0  0  0  0  0  0  0  0  0
    0.9143    1.6843    0.0956 N   0  0  0  0  0  0  0  0  0  0  0  0
    2.1225    0.9490   -0.0991 C   0  0  0  0  0  0  0  0  0  0  0  0
    3.3846    1.5301    0.0911 C   0  0  0  0  0  0  0  0  0  0  0  0
    4.5615    0.7940   -0.0863 C   0  0  0  0  0  0  0  0  0  0  0  0
    4.5028   -0.5462   -0.4538 C   0  0  0  0  0  0  0  0  0  0  0  0
    3.2638   -1.1632   -0.6512 C   0  0  0  0  0  0  0  0  0  0  0  0
    3.1852   -2.6277   -1.0035 C   0  0  0  0  0  0  0  0  0  0  0  0
    3.2194   -3.4265    0.0995 F   0  0  0  0  0  0  0  0  0  0  0  0
    4.2147   -3.0408   -1.7953 F   0  0  0  0  0  0  0  0  0  0  0  0
    2.0467   -2.9662   -1.6706 F   0  0  0  0  0  0  0  0  0  0  0  0
    2.0892   -0.4090   -0.4649 C   0  0  0  0  0  0  0  0  0  0  0  0
   -0.3189    1.2896   -0.3810 C   0  0  0  0  0  0  0  0  0  0  0  0
   -0.5796    0.4441   -1.2298 O   0  0  0  0  0  0  0  0  0  0  0  0
   -6.3943    0.1791   -0.1236 H   0  0  0  0  0  0  0  0  0  0  0  0
   -4.3692   -2.4968   -0.3861 H   0  0  0  0  0  0  0  0  0  0  0  0
   -2.4750   -4.0033    0.1739 H   0  0  0  0  0  0  0  0  0  0  0  0
   -0.5117   -3.0482    1.3877 H   0  0  0  0  0  0  0  0  0  0  0  0
   -2.1841    2.3604   -0.4358 H   0  0  0  0  0  0  0  0  0  0  0  0
   -0.9284    3.8893    1.5286 H   0  0  0  0  0  0  0  0  0  0  0  0
   -0.6426    4.1160   -0.2162 H   0  0  0  0  0  0  0  0  0  0  0  0
    3.4980    2.5750    0.3674 H   0  0  0  0  0  0  0  0  0  0  0  0
    5.5251    1.2748    0.0680 H   0  0  0  0  0  0  0  0  0  0  0  0
    5.4267   -1.1087   -0.5809 H   0  0  0  0  0  0  0  0  0  0  0  0
    1.1395   -0.9291   -0.5833 H   0  0  0  0  0  0  0  0  0  0  0  0
  1  2  2  0
  2  3  1  0
  2  4  1  0
  4  5  2  0
  5  6  1  0
  6  7  2  0
  7  8  1  0
  8  9  2  0
  9 10  1  0
 10 11  1  0
 11 12  1  0
 12 13  1  0
 13 14  2  0
 13 15  1  0
 15 16  1  0
 16 17  2  0
 17 18  1  0
 18 19  2  0
 19 20  1  0
 20 21  1  0
 21 22  1  0
 21 23  1  0
 21 24  1  0
 20 25  2  0
 15 26  1  0
 26 27  2  0
  9  4  1  0
 26 11  1  0
 25 16  1  0
  3 28  1  0
  5 29  1  0
  6 30  1  0
  7 31  1  0
 11 32  1  0
 12 33  1  0
 12 34  1  0
 17 35  1  0
 18 36  1  0
 19 37  1  0
 25 38  1  0
M  END
$$$$
