
     RDKit          3D

 48 50  0  0  0  0  0  0  0  0999 V2000
    4.3505   -3.5769   -0.0609 C   0  0  0  0  0  0  0  0  0  0  0  0
    3.3578   -2.4896   -0.1521 C   0  0  0  0  0  0  0  0  0  0  0  0
    2.0987   -2.8314   -0.5586 O   0  0  0  0  0  0  0  0  0  0  0  0
    1.4134   -1.6521   -0.5449 C   0  0  0  0  0  0  0  0  0  0  0  0
   -0.0227   -1.6998   -0.9528 C   0  0  0  0  0  0  0  0  0  0  0  0
   -0.2883   -0.7186   -2.1059 C   0  0  0  0  0  0  0  0  0  0  0  0
   -0.7684    0.6325   -1.5931 C   0  0  0  0  0  0  0  0  0  0  0  0
   -1.9987    0.5048   -0.8150 N   0  0  0  0  0  0  0  0  0  0  0  0
   -2.8232    1.6240   -0.7179 C   0  0  0  0  0  0  0  0  0  0  0  0
   -2.5737    2.7091   -1.2349 O   0  0  0  0  0  0  0  0  0  0  0  0
   -4.0968    1.4908    0.0100 C   0  0  0  0  0  0  0  0  0  0  0  0
   -5.1771    0.9057   -0.6669 C   0  0  0  0  0  0  0  0  0  0  0  0
   -6.4098    0.7814   -0.0268 C   0  0  0  0  0  0  0  0  0  0  0  0
   -6.5653    1.2456    1.2799 C   0  0  0  0  0  0  0  0  0  0  0  0
   -5.4889    1.8351    1.9514 C   0  0  0  0  0  0  0  0  0  0  0  0
   -4.2496    1.9627    1.3171 C   0  0  0  0  0  0  0  0  0  0  0  0
   -2.8228    2.7452    2.2923 Br  0  0  0  0  0  0  0  0  0  0  0  0
   -2.2320   -0.7638   -0.1203 C   0  0  0  0  0  0  0  0  0  0  0  0
   -0.9228   -1.4390    0.2677 C   0  0  0  0  0  0  0  0  0  0  0  0
    2.1249   -0.6117   -0.1686 N   0  0  0  0  0  0  0  0  0  0  0  0
    3.3872   -1.1252    0.0882 C   0  0  0  0  0  0  0  0  0  0  0  0
    4.5621   -0.3742    0.5596 C   0  0  0  0  0  0  0  0  0  0  0  0
    5.5986   -0.9794    0.8431 O   0  0  0  0  0  0  0  0  0  0  0  0
    4.4869    1.0205    0.6894 N   0  0  0  0  0  0  0  0  0  0  0  0
    5.5944    1.7276    1.3094 C   0  0  0  0  0  0  0  0  0  0  0  0
    3.3036    1.8136    0.3936 C   0  0  0  0  0  0  0  0  0  0  0  0
    4.7282   -3.6673    0.9624 H   0  0  0  0  0  0  0  0  0  0  0  0
    3.9143   -4.5398   -0.3428 H   0  0  0  0  0  0  0  0  0  0  0  0
    5.1953   -3.3817   -0.7288 H   0  0  0  0  0  0  0  0  0  0  0  0
   -0.2350   -2.7090   -1.3312 H   0  0  0  0  0  0  0  0  0  0  0  0
   -1.0701   -1.1409   -2.7522 H   0  0  0  0  0  0  0  0  0  0  0  0
    0.5991   -0.5891   -2.7369 H   0  0  0  0  0  0  0  0  0  0  0  0
   -0.0171    1.1005   -0.9460 H   0  0  0  0  0  0  0  0  0  0  0  0
   -0.9372    1.3109   -2.4364 H   0  0  0  0  0  0  0  0  0  0  0  0
   -5.0587    0.5606   -1.6921 H   0  0  0  0  0  0  0  0  0  0  0  0
   -7.2514    0.3328   -0.5484 H   0  0  0  0  0  0  0  0  0  0  0  0
   -7.5288    1.1552    1.7767 H   0  0  0  0  0  0  0  0  0  0  0  0
   -5.6302    2.1959    2.9674 H   0  0  0  0  0  0  0  0  0  0  0  0
   -2.8364   -0.6049    0.7778 H   0  0  0  0  0  0  0  0  0  0  0  0
   -2.8083   -1.4045   -0.7986 H   0  0  0  0  0  0  0  0  0  0  0  0
   -1.1279   -2.3860    0.7825 H   0  0  0  0  0  0  0  0  0  0  0  0
   -0.4100   -0.7994    1.0000 H   0  0  0  0  0  0  0  0  0  0  0  0
    5.8945    2.5555    0.6595 H   0  0  0  0  0  0  0  0  0  0  0  0
    5.2592    2.1230    2.2734 H   0  0  0  0  0  0  0  0  0  0  0  0
    6.4618    1.0842    1.4770 H   0  0  0  0  0  0  0  0  0  0  0  0
    2.9588    1.6044   -0.6224 H   0  0  0  0  0  0  0  0  0  0  0  0
    2.5229    1.5817    1.1233 H   0  0  0  0  0  0  0  0  0  0  0  0
    3.5389    2.8807    0.4534 H   0  0  0  0  0  0  0  0  0  0  0  0
  1  2  1  0
  2  3  1  0
  3  4  1  0
  4  5  1  0
  5  6  1  0
  6  7  1  0
  7  8  1  0
  8  9  1  0
  9 10  2  0
  9 11  1  0
 11 12  2  0
 12 13  1  0
 13 14  2  0
 14 15  1  0
 15 16  2  0
 16 17  1  0
  8 18  1  0
 18 19  1  0
  4 20  2  0
 20 21  1  0
 21 22  1  0
 22 23  2  0
 22 24  1  0
 24 25  1  0
 24 26  1  0
 21  2  2  0
 19  5  1  0
 16 11  1  0
  1 27  1  0
  1 28  1  0
  1 29  1  0
  5 30  1  0
  6 31  1  0
  6 32  1  0
  7 33  1  0
  7 34  1  0
 12 35  1  0
 13 36  1  0
 14 37  1  0
 15 38  1  0
 18 39  1  0
 18 40  1  0
 19 41  1  0
 19 42  1  0
 25 43  1  0
 25 44  1  0
 25 45  1  0
 26 46  1  0
 26 47  1  0
 26 48  1  0
M  END
$$$$
