
     RDKit          3D

 42 44  0  0  0  0  0  0  0  0999 V2000
   -3.5960   -1.9198    1.8198 C   0  0  0  0  0  0  0  0  0  0  0  0
   -3.9864   -0.8634    0.8504 C   0  0  0  0  0  0  0  0  0  0  0  0
   -5.1861   -0.7163    0.3250 N   0  0  0  0  0  0  0  0  0  0  0  0
   -5.1029    0.3722   -0.5047 C   0  0  0  0  0  0  0  0  0  0  0  0
   -6.0933    0.9603   -1.3051 C   0  0  0  0  0  0  0  0  0  0  0  0
   -5.7606    2.0791   -2.0778 C   0  0  0  0  0  0  0  0  0  0  0  0
   -4.4666    2.6020   -2.0541 C   0  0  0  0  0  0  0  0  0  0  0  0
   -3.4651    2.0282   -1.2617 C   0  0  0  0  0  0  0  0  0  0  0  0
   -3.8198    0.9102   -0.4958 C   0  0  0  0  0  0  0  0  0  0  0  0
   -3.1251    0.1014    0.3744 N   0  0  0  0  0  0  0  0  0  0  0  0
   -1.7216    0.2390    0.7144 C   0  0  0  0  0  0  0  0  0  0  0  0
   -0.8279   -0.5214   -0.2647 C   0  0  0  0  0  0  0  0  0  0  0  0
    0.5830   -0.4104    0.0520 N   0  0  0  0  0  0  0  0  0  0  0  0
    1.1391   -1.0640    1.1312 C   0  0  0  0  0  0  0  0  0  0  0  0
    0.4652   -1.6567    1.9702 O   0  0  0  0  0  0  0  0  0  0  0  0
    2.6624   -0.9659    1.2250 C   0  0  0  0  0  0  0  0  0  0  0  0
    3.2066   -0.4117    0.0290 O   0  0  0  0  0  0  0  0  0  0  0  0
    4.5655   -0.2628   -0.0186 C   0  0  0  0  0  0  0  0  0  0  0  0
    5.4656   -0.6050    0.9918 C   0  0  0  0  0  0  0  0  0  0  0  0
    6.8367   -0.3975    0.8099 C   0  0  0  0  0  0  0  0  0  0  0  0
    7.3131    0.1511   -0.3794 C   0  0  0  0  0  0  0  0  0  0  0  0
    6.4193    0.4937   -1.3906 C   0  0  0  0  0  0  0  0  0  0  0  0
    5.0509    0.2865   -1.2087 C   0  0  0  0  0  0  0  0  0  0  0  0
   -3.3315   -1.4788    2.7856 H   0  0  0  0  0  0  0  0  0  0  0  0
   -2.7444   -2.4975    1.4486 H   0  0  0  0  0  0  0  0  0  0  0  0
   -4.4269   -2.6135    1.9825 H   0  0  0  0  0  0  0  0  0  0  0  0
   -7.0954    0.5466   -1.3165 H   0  0  0  0  0  0  0  0  0  0  0  0
   -6.5211    2.5433   -2.7010 H   0  0  0  0  0  0  0  0  0  0  0  0
   -4.2323    3.4735   -2.6622 H   0  0  0  0  0  0  0  0  0  0  0  0
   -2.4632    2.4425   -1.2478 H   0  0  0  0  0  0  0  0  0  0  0  0
   -1.5874   -0.1055    1.7444 H   0  0  0  0  0  0  0  0  0  0  0  0
   -1.4751    1.3071    0.7147 H   0  0  0  0  0  0  0  0  0  0  0  0
   -1.0888   -1.5860   -0.2819 H   0  0  0  0  0  0  0  0  0  0  0  0
   -0.9575   -0.1345   -1.2816 H   0  0  0  0  0  0  0  0  0  0  0  0
    1.2351   -0.1051   -0.6664 H   0  0  0  0  0  0  0  0  0  0  0  0
    2.8906   -0.3239    2.0833 H   0  0  0  0  0  0  0  0  0  0  0  0
    3.0418   -1.9831    1.3753 H   0  0  0  0  0  0  0  0  0  0  0  0
    5.1402   -1.0355    1.9330 H   0  0  0  0  0  0  0  0  0  0  0  0
    7.5347   -0.6659    1.5993 H   0  0  0  0  0  0  0  0  0  0  0  0
    8.3795    0.3105   -0.5175 H   0  0  0  0  0  0  0  0  0  0  0  0
    6.7857    0.9210   -2.3203 H   0  0  0  0  0  0  0  0  0  0  0  0
    4.3598    0.5557   -2.0033 H   0  0  0  0  0  0  0  0  0  0  0  0
  1  2  1  0
  2  3  2  0
  3  4  1  0
  4  5  2  0
  5  6  1  0
  6  7  2  0
  7  8  1  0
  8  9  2  0
  9 10  1  0
 10 11  1  0
 11 12  1  0
 12 13  1  0
 13 14  1  0
 14 15  2  0
 14 16  1  0
 16 17  1  0
 17 18  1  0
 18 19  2  0
 19 20  1  0
 20 21  2  0
 21 22  1  0
 22 23  2  0
 10  2  1  0
 23 18  1  0
  9  4  1  0
  1 24  1  0
  1 25  1  0
  1 26  1  0
  5 27  1  0
  6 28  1  0
  7 29  1  0
  8 30  1  0
 11 31  1  0
 11 32  1  0
 12 33  1  0
 12 34  1  0
 13 35  1  0
 16 36  1  0
 16 37  1  0
 19 38  1  0
 20 39  1  0
 21 40  1  0
 22 41  1  0
 23 42  1  0
M  END
$$$$
