
     RDKit          3D

 25 27  0  0  0  0  0  0  0  0999 V2000
   -3.2261    0.5279    3.3274 C   0  0  0  0  0  0  0  0  0  0  0  0
   -2.4130    0.6956    2.0776 C   0  0  0  0  0  0  0  0  0  0  0  0
   -2.8512    1.4248    1.1029 N   0  0  0  0  0  0  0  0  0  0  0  0
   -2.0650    1.5538   -0.0369 N   0  0  0  0  0  0  0  0  0  0  0  0
   -0.9948    0.8265   -0.1905 C   0  0  0  0  0  0  0  0  0  0  0  0
   -0.3107    0.9488   -1.3676 N   0  0  0  0  0  0  0  0  0  0  0  0
    0.8546    0.2403   -1.6358 C   0  0  0  0  0  0  0  0  0  0  0  0
    1.5690    0.4359   -2.8210 C   0  0  0  0  0  0  0  0  0  0  0  0
    2.7355   -0.2925   -3.0706 C   0  0  0  0  0  0  0  0  0  0  0  0
    3.1948   -1.2231   -2.1391 C   0  0  0  0  0  0  0  0  0  0  0  0
    2.4885   -1.4268   -0.9546 C   0  0  0  0  0  0  0  0  0  0  0  0
    1.3231   -0.6917   -0.7063 C   0  0  0  0  0  0  0  0  0  0  0  0
    0.5473   -0.8997    0.5429 C   0  0  0  0  0  0  0  0  0  0  0  0
    0.8378   -1.8722    1.2367 O   0  0  0  0  0  0  0  0  0  0  0  0
   -0.5233   -0.0423    0.7737 N   0  0  0  0  0  0  0  0  0  0  0  0
   -1.0852   -0.0000    2.0236 C   0  0  0  0  0  0  0  0  0  0  0  0
   -0.5938   -0.3515    3.0892 O   0  0  0  0  0  0  0  0  0  0  0  0
   -3.3597   -0.5363    3.5401 H   0  0  0  0  0  0  0  0  0  0  0  0
   -2.7120    1.0056    4.1658 H   0  0  0  0  0  0  0  0  0  0  0  0
   -4.2100    0.9898    3.2066 H   0  0  0  0  0  0  0  0  0  0  0  0
   -0.6669    1.6150   -2.0404 H   0  0  0  0  0  0  0  0  0  0  0  0
    1.2277    1.1544   -3.5624 H   0  0  0  0  0  0  0  0  0  0  0  0
    3.2866   -0.1351   -3.9953 H   0  0  0  0  0  0  0  0  0  0  0  0
    4.1013   -1.7912   -2.3360 H   0  0  0  0  0  0  0  0  0  0  0  0
    2.8455   -2.1560   -0.2298 H   0  0  0  0  0  0  0  0  0  0  0  0
  1  2  1  0
  2  3  2  0
  3  4  1  0
  4  5  2  0
  5  6  1  0
  6  7  1  0
  7  8  2  0
  8  9  1  0
  9 10  2  0
 10 11  1  0
 11 12  2  0
 12 13  1  0
 13 14  2  0
 13 15  1  0
 15 16  1  0
 16 17  2  0
 16  2  1  0
 15  5  1  0
 12  7  1  0
  1 18  1  0
  1 19  1  0
  1 20  1  0
  6 21  1  0
  8 22  1  0
  9 23  1  0
 10 24  1  0
 11 25  1  0
M  END
$$$$
