
     RDKit          3D

 37 40  0  0  0  0  0  0  0  0999 V2000
   -0.5940   -2.2977   -1.3081 O   0  0  0  0  0  0  0  0  0  0  0  0
   -1.4205   -1.4199   -1.0624 C   0  0  0  0  0  0  0  0  0  0  0  0
   -2.3558   -1.0301   -2.0032 O   0  0  0  0  0  0  0  0  0  0  0  0
   -3.2844   -0.0144   -1.7259 C   0  0  0  0  0  0  0  0  0  0  0  0
   -4.1894    0.3073   -2.7375 C   0  0  0  0  0  0  0  0  0  0  0  0
   -5.1306    1.3091   -2.5148 C   0  0  0  0  0  0  0  0  0  0  0  0
   -5.1573    1.9753   -1.2895 C   0  0  0  0  0  0  0  0  0  0  0  0
   -4.2420    1.6401   -0.2857 C   0  0  0  0  0  0  0  0  0  0  0  0
   -3.2901    0.6352   -0.4958 C   0  0  0  0  0  0  0  0  0  0  0  0
   -2.3066    0.2391    0.5121 C   0  0  0  0  0  0  0  0  0  0  0  0
   -2.3766    0.9331    1.7017 O   0  0  0  0  0  0  0  0  0  0  0  0
   -1.4253   -0.7438    0.2588 C   0  0  0  0  0  0  0  0  0  0  0  0
   -0.4437   -1.3096    1.2558 C   0  0  0  0  0  0  0  0  0  0  0  0
    0.9346   -0.7048    1.1445 C   0  0  0  0  0  0  0  0  0  0  0  0
    1.9657   -1.2456    0.4727 C   0  0  0  0  0  0  0  0  0  0  0  0
    1.8821   -2.3929   -0.2877 O   0  0  0  0  0  0  0  0  0  0  0  0
    3.2918   -0.6301    0.5231 C   0  0  0  0  0  0  0  0  0  0  0  0
    4.4066   -1.1541   -0.1424 C   0  0  0  0  0  0  0  0  0  0  0  0
    5.6506   -0.5192   -0.0569 C   0  0  0  0  0  0  0  0  0  0  0  0
    5.7933    0.6469    0.6952 C   0  0  0  0  0  0  0  0  0  0  0  0
    4.6930    1.1793    1.3624 C   0  0  0  0  0  0  0  0  0  0  0  0
    3.4603    0.5334    1.2666 C   0  0  0  0  0  0  0  0  0  0  0  0
    2.3839    1.1129    1.9569 O   0  0  0  0  0  0  0  0  0  0  0  0
    1.1239    0.5444    1.9232 C   0  0  0  0  0  0  0  0  0  0  0  0
    0.1743    1.0590    2.5127 O   0  0  0  0  0  0  0  0  0  0  0  0
   -4.1606   -0.2170   -3.6883 H   0  0  0  0  0  0  0  0  0  0  0  0
   -5.8429    1.5715   -3.2929 H   0  0  0  0  0  0  0  0  0  0  0  0
   -5.8910    2.7579   -1.1114 H   0  0  0  0  0  0  0  0  0  0  0  0
   -4.2805    2.1713    0.6633 H   0  0  0  0  0  0  0  0  0  0  0  0
   -1.5003    0.9459    2.1455 H   0  0  0  0  0  0  0  0  0  0  0  0
   -0.8267   -1.1882    2.2780 H   0  0  0  0  0  0  0  0  0  0  0  0
   -0.3895   -2.4018    1.1525 H   0  0  0  0  0  0  0  0  0  0  0  0
    0.9685   -2.5156   -0.6276 H   0  0  0  0  0  0  0  0  0  0  0  0
    4.3170   -2.0635   -0.7333 H   0  0  0  0  0  0  0  0  0  0  0  0
    6.5075   -0.9384   -0.5790 H   0  0  0  0  0  0  0  0  0  0  0  0
    6.7608    1.1382    0.7599 H   0  0  0  0  0  0  0  0  0  0  0  0
    4.7940    2.0869    1.9502 H   0  0  0  0  0  0  0  0  0  0  0  0
  1  2  2  0
  2  3  1  0
  3  4  1  0
  4  5  2  0
  5  6  1  0
  6  7  2  0
  7  8  1  0
  8  9  2  0
  9 10  1  0
 10 11  1  0
 10 12  2  0
 12 13  1  0
 13 14  1  0
 14 15  2  0
 15 16  1  0
 15 17  1  0
 17 18  2  0
 18 19  1  0
 19 20  2  0
 20 21  1  0
 21 22  2  0
 22 23  1  0
 23 24  1  0
 24 25  2  0
 12  2  1  0
 24 14  1  0
  9  4  1  0
 22 17  1  0
  5 26  1  0
  6 27  1  0
  7 28  1  0
  8 29  1  0
 11 30  1  0
 13 31  1  0
 13 32  1  0
 16 33  1  0
 18 34  1  0
 19 35  1  0
 20 36  1  0
 21 37  1  0
M  END
$$$$
