
     RDKit          3D

 80 80  0  0  0  0  0  0  0  0999 V2000
    2.6498   -1.6745   -2.8348 C   0  0  0  0  0  0  0  0  0  0  0  0
    2.0435   -1.2914   -1.4939 C   0  0  1  0  0  0  0  0  0  0  0  0
    3.0949   -1.1560   -0.4933 N   0  0  0  0  0  0  0  0  0  0  0  0
    2.9239   -1.5908    0.8019 C   0  0  0  0  0  0  0  0  0  0  0  0
    1.9623   -2.2716    1.1567 O   0  0  0  0  0  0  0  0  0  0  0  0
    4.0427   -1.1665    1.7848 C   0  0  1  0  0  0  0  0  0  0  0  0
    3.5382   -1.3073    3.1749 N   0  0  0  0  0  0  0  0  0  0  0  0
    5.3014   -2.0309    1.6003 C   0  0  0  0  0  0  0  0  0  0  0  0
    6.0784   -1.7261    0.3378 C   0  0  0  0  0  0  0  0  0  0  0  0
    6.7793   -0.5188    0.2087 C   0  0  0  0  0  0  0  0  0  0  0  0
    7.4880   -0.2356   -0.9595 C   0  0  0  0  0  0  0  0  0  0  0  0
    7.4979   -1.1558   -2.0000 C   0  0  0  0  0  0  0  0  0  0  0  0
    8.2057   -0.8418   -3.1216 O   0  0  0  0  0  0  0  0  0  0  0  0
    6.8117   -2.3612   -1.8917 C   0  0  0  0  0  0  0  0  0  0  0  0
    6.1037   -2.6452   -0.7217 C   0  0  0  0  0  0  0  0  0  0  0  0
    1.2864    0.0485   -1.6113 C   0  0  0  0  0  0  0  0  0  0  0  0
    1.7397    1.1061   -1.1819 O   0  0  0  0  0  0  0  0  0  0  0  0
    0.0919   -0.0330   -2.2998 N   0  0  0  0  0  0  0  0  0  0  0  0
   -0.8568    1.0695   -2.2697 C   0  0  0  0  0  0  0  0  0  0  0  0
   -1.9140    0.7615   -1.2007 C   0  0  0  0  0  0  0  0  0  0  0  0
   -2.1399   -0.4094   -0.8717 O   0  0  0  0  0  0  0  0  0  0  0  0
   -2.6365    1.8144   -0.6594 N   0  0  0  0  0  0  0  0  0  0  0  0
   -2.6947    3.1403   -1.2643 C   0  0  0  0  0  0  0  0  0  0  0  0
   -3.5232    1.5384    0.5073 C   0  0  1  0  0  0  0  0  0  0  0  0
   -3.4451    2.6374    1.5882 C   0  0  0  0  0  0  0  0  0  0  0  0
   -3.5405    2.0766    2.9880 C   0  0  0  0  0  0  0  0  0  0  0  0
   -2.3992    1.5510    3.6128 C   0  0  0  0  0  0  0  0  0  0  0  0
   -2.4815    0.9980    4.8901 C   0  0  0  0  0  0  0  0  0  0  0  0
   -3.7042    0.9611    5.5551 C   0  0  0  0  0  0  0  0  0  0  0  0
   -4.8446    1.4790    4.9426 C   0  0  0  0  0  0  0  0  0  0  0  0
   -4.7647    2.0337    3.6645 C   0  0  0  0  0  0  0  0  0  0  0  0
   -4.9771    1.2823    0.0282 C   0  0  0  0  0  0  0  0  0  0  0  0
   -5.9744    1.7076    0.6075 O   0  0  0  0  0  0  0  0  0  0  0  0
   -5.0653    0.4411   -1.0661 N   0  0  0  0  0  0  0  0  0  0  0  0
   -6.3334   -0.0861   -1.5339 C   0  0  0  0  0  0  0  0  0  0  0  0
   -6.2369   -0.5125   -2.9968 C   0  0  0  0  0  0  0  0  0  0  0  0
   -5.2040   -1.4836   -3.1746 O   0  0  0  0  0  0  0  0  0  0  0  0
    0.8857   -0.1548    1.5234 O   0  0  0  0  0  0  0  0  0  0  0  0
    0.5164   -0.0536    0.3601 C   0  0  0  0  0  0  0  0  0  0  0  0
    1.4495   -0.1036   -0.6267 O   0  0  0  0  0  0  0  0  0  0  0  0
   -0.9212    0.0946   -0.1449 C   0  0  0  0  0  0  0  0  0  0  0  0
   -1.7970    0.4277    0.8444 F   0  0  0  0  0  0  0  0  0  0  0  0
   -1.3904   -1.0580   -0.7021 F   0  0  0  0  0  0  0  0  0  0  0  0
   -1.0441    1.0594   -1.1008 F   0  0  0  0  0  0  0  0  0  0  0  0
    3.1515   -2.6436   -2.7647 H   0  0  0  0  0  0  0  0  0  0  0  0
    1.8907   -1.7388   -3.6207 H   0  0  0  0  0  0  0  0  0  0  0  0
    3.3950   -0.9392   -3.1544 H   0  0  0  0  0  0  0  0  0  0  0  0
    1.3306   -2.0591   -1.1765 H   0  0  0  0  0  0  0  0  0  0  0  0
    3.7449   -0.3907   -0.6400 H   0  0  0  0  0  0  0  0  0  0  0  0
    4.2619   -0.1048    1.6225 H   0  0  0  0  0  0  0  0  0  0  0  0
    3.1805   -2.2644    3.2694 H   0  0  0  0  0  0  0  0  0  0  0  0
    2.6930   -0.7366    3.2568 H   0  0  0  0  0  0  0  0  0  0  0  0
    5.0353   -3.0977    1.6207 H   0  0  0  0  0  0  0  0  0  0  0  0
    5.9880   -1.8786    2.4456 H   0  0  0  0  0  0  0  0  0  0  0  0
    6.7852    0.2042    1.0213 H   0  0  0  0  0  0  0  0  0  0  0  0
    8.0389    0.6963   -1.0541 H   0  0  0  0  0  0  0  0  0  0  0  0
    8.1069   -1.5630   -3.7628 H   0  0  0  0  0  0  0  0  0  0  0  0
    6.8208   -3.0878   -2.6946 H   0  0  0  0  0  0  0  0  0  0  0  0
    5.5634   -3.5870   -0.6429 H   0  0  0  0  0  0  0  0  0  0  0  0
   -0.3347   -0.9562   -2.3524 H   0  0  0  0  0  0  0  0  0  0  0  0
   -0.3412    2.0110   -2.0582 H   0  0  0  0  0  0  0  0  0  0  0  0
   -1.3509    1.1073   -3.2451 H   0  0  0  0  0  0  0  0  0  0  0  0
   -2.3284    3.1307   -2.2930 H   0  0  0  0  0  0  0  0  0  0  0  0
   -3.7321    3.4921   -1.2803 H   0  0  0  0  0  0  0  0  0  0  0  0
   -2.0791    3.8265   -0.6739 H   0  0  0  0  0  0  0  0  0  0  0  0
   -3.1999    0.5877    0.9509 H   0  0  0  0  0  0  0  0  0  0  0  0
   -2.4859    3.1667    1.5241 H   0  0  0  0  0  0  0  0  0  0  0  0
   -4.2131    3.4055    1.4343 H   0  0  0  0  0  0  0  0  0  0  0  0
   -1.4367    1.5624    3.1041 H   0  0  0  0  0  0  0  0  0  0  0  0
   -1.5904    0.5889    5.3593 H   0  0  0  0  0  0  0  0  0  0  0  0
   -3.7700    0.5252    6.5467 H   0  0  0  0  0  0  0  0  0  0  0  0
   -5.8015    1.4420    5.4573 H   0  0  0  0  0  0  0  0  0  0  0  0
   -5.6675    2.4225    3.1974 H   0  0  0  0  0  0  0  0  0  0  0  0
   -4.2402   -0.1192   -1.2693 H   0  0  0  0  0  0  0  0  0  0  0  0
   -7.1195    0.6643   -1.4044 H   0  0  0  0  0  0  0  0  0  0  0  0
   -6.5650   -0.9502   -0.9008 H   0  0  0  0  0  0  0  0  0  0  0  0
   -7.1826   -0.9455   -3.3395 H   0  0  0  0  0  0  0  0  0  0  0  0
   -5.9958    0.3473   -3.6308 H   0  0  0  0  0  0  0  0  0  0  0  0
   -5.4556   -2.2664   -2.6549 H   0  0  0  0  0  0  0  0  0  0  0  0
    2.3012   -0.2117   -0.1534 H   0  0  0  0  0  0  0  0  0  0  0  0
  1  2  1  0
  2  3  1  0
  3  4  1  0
  4  5  2  0
  4  6  1  0
  6  7  1  0
  6  8  1  0
  8  9  1  0
  9 10  2  0
 10 11  1  0
 11 12  2  0
 12 13  1  0
 12 14  1  0
 14 15  2  0
  2 16  1  0
 16 17  2  0
 16 18  1  0
 18 19  1  0
 19 20  1  0
 20 21  2  0
 20 22  1  0
 22 23  1  0
 22 24  1  0
 24 25  1  0
 25 26  1  0
 26 27  2  0
 27 28  1  0
 28 29  2  0
 29 30  1  0
 30 31  2  0
 24 32  1  0
 32 33  2  0
 32 34  1  0
 34 35  1  0
 35 36  1  0
 36 37  1  0
 38 39  2  0
 39 40  1  0
 39 41  1  0
 41 42  1  0
 41 43  1  0
 41 44  1  0
 15  9  1  0
 31 26  1  0
  1 45  1  0
  1 46  1  0
  1 47  1  0
  2 48  1  1
  3 49  1  0
  6 50  1  6
  7 51  1  0
  7 52  1  0
  8 53  1  0
  8 54  1  0
 10 55  1  0
 11 56  1  0
 13 57  1  0
 14 58  1  0
 15 59  1  0
 18 60  1  0
 19 61  1  0
 19 62  1  0
 23 63  1  0
 23 64  1  0
 23 65  1  0
 24 66  1  1
 25 67  1  0
 25 68  1  0
 27 69  1  0
 28 70  1  0
 29 71  1  0
 30 72  1  0
 31 73  1  0
 34 74  1  0
 35 75  1  0
 35 76  1  0
 36 77  1  0
 36 78  1  0
 37 79  1  0
 40 80  1  0
M  END
$$$$
