
     RDKit          3D

 71 76  0  0  0  0  0  0  0  0999 V2000
   -0.2141   -1.7409    2.4261 C   0  0  0  0  0  0  0  0  0  0  0  0
    1.0973   -1.1424    2.0019 C   0  0  0  0  0  0  0  0  0  0  0  0
    2.2717   -1.5452    2.6384 C   0  0  0  0  0  0  0  0  0  0  0  0
    3.4996   -0.9871    2.2803 C   0  0  0  0  0  0  0  0  0  0  0  0
    3.6017    0.0028    1.2759 C   0  0  0  0  0  0  0  0  0  0  0  0
    4.8258    0.6276    0.9262 C   0  0  0  0  0  0  0  0  0  0  0  0
    6.0489    0.2760    1.5666 N   0  0  0  0  0  0  0  0  0  0  0  0
    7.0193   -0.9201    0.8910 S   0  0  0  0  0  6  0  0  0  0  0  0
    6.1695   -1.9520    0.3332 O   0  0  0  0  0  0  0  0  0  0  0  0
    8.0181   -1.2691    1.8793 O   0  0  0  0  0  0  0  0  0  0  0  0
    7.8416   -0.0891   -0.4377 C   0  0  0  0  0  0  0  0  0  0  0  0
    7.5940   -0.5252   -1.7496 C   0  0  0  0  0  0  0  0  0  0  0  0
    8.2121    0.1064   -2.8284 C   0  0  0  0  0  0  0  0  0  0  0  0
    9.0775    1.1729   -2.6040 C   0  0  0  0  0  0  0  0  0  0  0  0
    9.3273    1.6061   -1.2998 C   0  0  0  0  0  0  0  0  0  0  0  0
    8.7135    0.9771   -0.2093 C   0  0  0  0  0  0  0  0  0  0  0  0
    9.0576    1.6295    1.3526 Cl  0  0  0  0  0  0  0  0  0  0  0  0
    4.8792    1.6162   -0.0601 C   0  0  0  0  0  0  0  0  0  0  0  0
    3.7218    1.9945   -0.7279 C   0  0  0  0  0  0  0  0  0  0  0  0
    2.5089    1.3933   -0.3979 C   0  0  0  0  0  0  0  0  0  0  0  0
    2.4212    0.3985    0.6003 C   0  0  0  0  0  0  0  0  0  0  0  0
    1.1904   -0.2115    0.9492 C   0  0  0  0  0  0  0  0  0  0  0  0
    0.0433    0.2343    0.3204 O   0  0  0  0  0  0  0  0  0  0  0  0
   -0.5864   -0.6498   -0.5566 C   0  0  0  0  0  0  0  0  0  0  0  0
    0.0953   -1.7442   -0.9829 N   0  0  0  0  0  0  0  0  0  0  0  0
   -0.5597   -2.6117   -1.7760 C   0  0  0  0  0  0  0  0  0  0  0  0
   -1.8692   -2.4334   -2.1816 C   0  0  0  0  0  0  0  0  0  0  0  0
   -2.5386   -1.2888   -1.7609 C   0  0  0  0  0  0  0  0  0  0  0  0
   -1.8989   -0.3461   -0.9375 C   0  0  0  0  0  0  0  0  0  0  0  0
   -2.6011    0.8749   -0.5162 C   0  0  0  0  0  0  0  0  0  0  0  0
   -2.0508    2.1321   -0.6338 C   0  0  0  0  0  0  0  0  0  0  0  0
   -2.8396    3.1748   -0.2162 C   0  0  0  0  0  0  0  0  0  0  0  0
   -4.0816    3.0163    0.2737 N   0  0  0  0  0  0  0  0  0  0  0  0
   -4.5496    1.7649    0.3398 C   0  0  0  0  0  0  0  0  0  0  0  0
   -5.8406    1.6411    0.8466 N   0  0  0  0  0  0  0  0  0  0  0  0
   -6.6874    0.6745    0.1469 C   0  0  1  0  0  0  0  0  0  0  0  0
   -6.4156   -0.7607    0.6394 C   0  0  0  0  0  0  0  0  0  0  0  0
   -7.6741   -1.6322    0.6598 C   0  0  0  0  0  0  0  0  0  0  0  0
   -8.6408   -1.2336   -0.4494 C   0  0  0  0  0  0  0  0  0  0  0  0
   -9.1096    0.1509   -0.3416 N   0  0  0  0  0  0  0  0  0  0  0  0
   -8.1752    1.0253    0.3826 C   0  0  0  0  0  0  0  0  0  0  0  0
   -3.8579    0.6899   -0.0537 N   0  0  0  0  0  0  0  0  0  0  0  0
   -1.0068   -0.9846    2.4298 H   0  0  0  0  0  0  0  0  0  0  0  0
   -0.1529   -2.1400    3.4447 H   0  0  0  0  0  0  0  0  0  0  0  0
   -0.4947   -2.5604    1.7569 H   0  0  0  0  0  0  0  0  0  0  0  0
    2.2419   -2.2898    3.4328 H   0  0  0  0  0  0  0  0  0  0  0  0
    4.3888   -1.3400    2.8018 H   0  0  0  0  0  0  0  0  0  0  0  0
    6.0955    0.3228    2.5848 H   0  0  0  0  0  0  0  0  0  0  0  0
    6.9152   -1.3555   -1.9416 H   0  0  0  0  0  0  0  0  0  0  0  0
    8.0190   -0.2354   -3.8431 H   0  0  0  0  0  0  0  0  0  0  0  0
    9.5598    1.6690   -3.4418 H   0  0  0  0  0  0  0  0  0  0  0  0
   10.0000    2.4486   -1.1426 H   0  0  0  0  0  0  0  0  0  0  0  0
    5.8160    2.1083   -0.3054 H   0  0  0  0  0  0  0  0  0  0  0  0
    3.7602    2.7617   -1.4961 H   0  0  0  0  0  0  0  0  0  0  0  0
    1.6182    1.7047   -0.9390 H   0  0  0  0  0  0  0  0  0  0  0  0
    0.0095   -3.4832   -2.0802 H   0  0  0  0  0  0  0  0  0  0  0  0
   -2.3570   -3.1661   -2.8143 H   0  0  0  0  0  0  0  0  0  0  0  0
   -3.5646   -1.1223   -2.0805 H   0  0  0  0  0  0  0  0  0  0  0  0
   -1.0635    2.3049   -1.0360 H   0  0  0  0  0  0  0  0  0  0  0  0
   -2.4845    4.2015   -0.2671 H   0  0  0  0  0  0  0  0  0  0  0  0
   -6.1941    2.5940    0.8334 H   0  0  0  0  0  0  0  0  0  0  0  0
   -6.5062    0.7321   -0.9363 H   0  0  0  0  0  0  0  0  0  0  0  0
   -5.6769   -1.2283   -0.0227 H   0  0  0  0  0  0  0  0  0  0  0  0
   -5.9702   -0.7632    1.6426 H   0  0  0  0  0  0  0  0  0  0  0  0
   -8.1702   -1.5320    1.6332 H   0  0  0  0  0  0  0  0  0  0  0  0
   -7.3961   -2.6867    0.5605 H   0  0  0  0  0  0  0  0  0  0  0  0
   -8.1472   -1.3565   -1.4216 H   0  0  0  0  0  0  0  0  0  0  0  0
   -9.5065   -1.9076   -0.4499 H   0  0  0  0  0  0  0  0  0  0  0  0
  -10.0113    0.1738    0.1371 H   0  0  0  0  0  0  0  0  0  0  0  0
   -8.3721    2.0598    0.0803 H   0  0  0  0  0  0  0  0  0  0  0  0
   -8.3941    0.9734    1.4556 H   0  0  0  0  0  0  0  0  0  0  0  0
  1  2  1  0
  2  3  2  0
  3  4  1  0
  4  5  2  0
  5  6  1  0
  6  7  1  0
  7  8  1  0
  8  9  2  0
  8 10  2  0
  8 11  1  0
 11 12  2  0
 12 13  1  0
 13 14  2  0
 14 15  1  0
 15 16  2  0
 16 17  1  0
  6 18  2  0
 18 19  1  0
 19 20  2  0
 20 21  1  0
 21 22  2  0
 22 23  1  0
 23 24  1  0
 24 25  2  0
 25 26  1  0
 26 27  2  0
 27 28  1  0
 28 29  2  0
 29 30  1  0
 30 31  2  0
 31 32  1  0
 32 33  2  0
 33 34  1  0
 34 35  1  0
 35 36  1  0
 36 37  1  0
 37 38  1  0
 38 39  1  0
 39 40  1  0
 40 41  1  0
 34 42  2  0
 22  2  1  0
 29 24  1  0
 42 30  1  0
 21  5  1  0
 41 36  1  0
 16 11  1  0
  1 43  1  0
  1 44  1  0
  1 45  1  0
  3 46  1  0
  4 47  1  0
  7 48  1  0
 12 49  1  0
 13 50  1  0
 14 51  1  0
 15 52  1  0
 18 53  1  0
 19 54  1  0
 20 55  1  0
 26 56  1  0
 27 57  1  0
 28 58  1  0
 31 59  1  0
 32 60  1  0
 35 61  1  0
 36 62  1  6
 37 63  1  0
 37 64  1  0
 38 65  1  0
 38 66  1  0
 39 67  1  0
 39 68  1  0
 40 69  1  0
 41 70  1  0
 41 71  1  0
M  END
$$$$
