
     RDKit          3D

 41 45  0  0  0  0  0  0  0  0999 V2000
    2.2316   -2.3730    0.0690 O   0  0  0  0  0  0  0  0  0  0  0  0
    1.5349   -1.3762    0.2369 C   0  0  0  0  0  0  0  0  0  0  0  0
    0.0552   -1.4874    0.2000 C   0  0  0  0  0  0  0  0  0  0  0  0
   -0.6511   -2.7797   -0.0041 C   0  0  0  0  0  0  0  0  0  0  0  0
   -1.9384   -2.9514   -0.0505 N   0  0  0  0  0  0  0  0  0  0  0  0
   -2.6953   -1.8257    0.1046 C   0  0  0  0  0  0  0  0  0  0  0  0
   -4.0017   -1.6984    0.1021 N   0  0  0  0  0  0  0  0  0  0  0  0
   -4.2148   -0.3584    0.2969 C   0  0  0  0  0  0  0  0  0  0  0  0
   -5.5538    0.2058    0.3585 C   0  0  0  0  0  0  0  0  0  0  0  0
   -5.7761    1.5723    0.5571 C   0  0  0  0  0  0  0  0  0  0  0  0
   -7.0796    2.0645    0.6087 C   0  0  0  0  0  0  0  0  0  0  0  0
   -8.1265    1.1701    0.4591 C   0  0  0  0  0  0  0  0  0  0  0  0
   -7.9571   -0.1547    0.2658 N   0  0  0  0  0  0  0  0  0  0  0  0
   -6.6762   -0.6048    0.2201 C   0  0  0  0  0  0  0  0  0  0  0  0
   -3.0945    0.3671    0.4220 N   0  0  0  0  0  0  0  0  0  0  0  0
   -2.1171   -0.5659    0.3007 N   0  0  0  0  0  0  0  0  0  0  0  0
   -0.7272   -0.4020    0.3476 C   0  0  0  0  0  0  0  0  0  0  0  0
   -0.1139    0.8967    0.5470 C   0  0  0  0  0  0  0  0  0  0  0  0
    1.2185    1.0122    0.5971 C   0  0  0  0  0  0  0  0  0  0  0  0
    2.0403   -0.0937    0.4626 N   0  0  0  0  0  0  0  0  0  0  0  0
    3.4949    0.0869    0.4989 C   0  0  0  0  0  0  0  0  0  0  0  0
    4.0909    0.2323   -0.9054 C   0  0  0  0  0  0  0  0  0  0  0  0
    5.5775    0.4240   -0.8542 C   0  0  0  0  0  0  0  0  0  0  0  0
    6.5620   -0.5436   -0.8836 C   0  0  0  0  0  0  0  0  0  0  0  0
    7.8707    0.0150   -0.8132 C   0  0  0  0  0  0  0  0  0  0  0  0
    7.8411    1.3891   -0.7346 C   0  0  0  0  0  0  0  0  0  0  0  0
    6.2439    1.9985   -0.7459 S   0  0  0  0  0  0  0  0  0  0  0  0
   -0.0015   -3.6635   -0.1251 H   0  0  0  0  0  0  0  0  0  0  0  0
   -4.9400    2.2578    0.6723 H   0  0  0  0  0  0  0  0  0  0  0  0
   -7.2720    3.1205    0.7619 H   0  0  0  0  0  0  0  0  0  0  0  0
   -9.1594    1.5051    0.4919 H   0  0  0  0  0  0  0  0  0  0  0  0
   -6.5817   -1.6773    0.0629 H   0  0  0  0  0  0  0  0  0  0  0  0
   -0.7524    1.7703    0.6548 H   0  0  0  0  0  0  0  0  0  0  0  0
    1.6956    1.9779    0.7455 H   0  0  0  0  0  0  0  0  0  0  0  0
    3.9393   -0.7811    1.0029 H   0  0  0  0  0  0  0  0  0  0  0  0
    3.7322    0.9599    1.1203 H   0  0  0  0  0  0  0  0  0  0  0  0
    3.8635   -0.6601   -1.5022 H   0  0  0  0  0  0  0  0  0  0  0  0
    3.6153    1.0714   -1.4292 H   0  0  0  0  0  0  0  0  0  0  0  0
    6.3544   -1.6055   -0.9523 H   0  0  0  0  0  0  0  0  0  0  0  0
    8.7872   -0.5622   -0.8215 H   0  0  0  0  0  0  0  0  0  0  0  0
    8.6814    2.0670   -0.6727 H   0  0  0  0  0  0  0  0  0  0  0  0
  1  2  2  0
  2  3  1  0
  3  4  1  0
  4  5  2  0
  5  6  1  0
  6  7  2  0
  7  8  1  0
  8  9  1  0
  9 10  2  0
 10 11  1  0
 11 12  2  0
 12 13  1  0
 13 14  2  0
  8 15  2  0
 15 16  1  0
 16 17  1  0
 17 18  1  0
 18 19  2  0
 19 20  1  0
 20 21  1  0
 21 22  1  0
 22 23  1  0
 23 24  2  0
 24 25  1  0
 25 26  2  0
 26 27  1  0
 20  2  1  0
 27 23  1  0
 17  3  2  0
 16  6  1  0
 14  9  1  0
  4 28  1  0
 10 29  1  0
 11 30  1  0
 12 31  1  0
 14 32  1  0
 18 33  1  0
 19 34  1  0
 21 35  1  0
 21 36  1  0
 22 37  1  0
 22 38  1  0
 24 39  1  0
 25 40  1  0
 26 41  1  0
M  END
$$$$
