
     RDKit          3D

 53 56  0  0  0  0  0  0  0  0999 V2000
   10.9469   -2.0533    1.6459 N   0  0  0  0  0  0  0  0  0  0  0  0
   10.6084   -1.2342    0.8952 C   0  0  0  0  0  0  0  0  0  0  0  0
   10.1860   -0.1558   -0.0151 C   0  0  0  0  0  0  0  0  0  0  0  0
    8.8079    0.2439    0.2184 N   0  0  0  0  0  0  0  0  0  0  0  0
    7.7853   -0.3659   -0.4775 C   0  0  0  0  0  0  0  0  0  0  0  0
    7.9833   -1.1704   -1.3797 O   0  0  0  0  0  0  0  0  0  0  0  0
    6.3974   -0.0284   -0.0565 C   0  0  0  0  0  0  0  0  0  0  0  0
    6.0753    1.1932    0.5427 C   0  0  0  0  0  0  0  0  0  0  0  0
    4.7520    1.4658    0.9175 C   0  0  0  0  0  0  0  0  0  0  0  0
    3.7198    0.5334    0.7010 C   0  0  0  0  0  0  0  0  0  0  0  0
    2.3204    0.8077    1.0893 C   0  0  0  0  0  0  0  0  0  0  0  0
    1.9831    1.5296    2.2150 C   0  0  0  0  0  0  0  0  0  0  0  0
    0.6408    1.6985    2.4404 C   0  0  0  0  0  0  0  0  0  0  0  0
   -0.3140    1.2078    1.6343 N   0  0  0  0  0  0  0  0  0  0  0  0
    0.0838    0.5128    0.5610 C   0  0  0  0  0  0  0  0  0  0  0  0
   -0.8189   -0.0423   -0.3405 N   0  0  0  0  0  0  0  0  0  0  0  0
   -2.2114   -0.0385   -0.4529 C   0  0  0  0  0  0  0  0  0  0  0  0
   -2.8016   -0.7206   -1.5234 C   0  0  0  0  0  0  0  0  0  0  0  0
   -4.1934   -0.7614   -1.6850 C   0  0  0  0  0  0  0  0  0  0  0  0
   -5.0582   -0.1243   -0.7855 C   0  0  0  0  0  0  0  0  0  0  0  0
   -6.4407   -0.1987   -0.9921 N   0  0  0  0  0  0  0  0  0  0  0  0
   -6.9616   -1.5884   -0.9247 C   0  0  0  0  0  0  0  0  0  0  0  0
   -8.4901   -1.5891   -0.7596 C   0  0  0  0  0  0  0  0  0  0  0  0
   -8.9341   -0.9227    0.4335 O   0  0  0  0  0  0  0  0  0  0  0  0
   -8.0997    0.1883    0.8057 C   0  0  0  0  0  0  0  0  0  0  0  0
   -7.3361    0.8026   -0.3760 C   0  0  0  0  0  0  0  0  0  0  0  0
   -4.4641    0.5535    0.2830 C   0  0  0  0  0  0  0  0  0  0  0  0
   -3.0688    0.5922    0.4476 C   0  0  0  0  0  0  0  0  0  0  0  0
    1.3764    0.2938    0.2685 N   0  0  0  0  0  0  0  0  0  0  0  0
    4.0655   -0.6790    0.0760 C   0  0  0  0  0  0  0  0  0  0  0  0
    5.3841   -0.9584   -0.3004 C   0  0  0  0  0  0  0  0  0  0  0  0
   10.8016    0.7334    0.1539 H   0  0  0  0  0  0  0  0  0  0  0  0
   10.3174   -0.4609   -1.0583 H   0  0  0  0  0  0  0  0  0  0  0  0
    8.5973    0.6841    1.1037 H   0  0  0  0  0  0  0  0  0  0  0  0
    6.8279    1.9613    0.6954 H   0  0  0  0  0  0  0  0  0  0  0  0
    4.5326    2.4373    1.3565 H   0  0  0  0  0  0  0  0  0  0  0  0
    2.7165    1.9304    2.9002 H   0  0  0  0  0  0  0  0  0  0  0  0
    0.2794    2.2484    3.3043 H   0  0  0  0  0  0  0  0  0  0  0  0
   -0.3022   -0.4979   -1.0780 H   0  0  0  0  0  0  0  0  0  0  0  0
   -2.1829   -1.2299   -2.2580 H   0  0  0  0  0  0  0  0  0  0  0  0
   -4.6000   -1.2827   -2.5479 H   0  0  0  0  0  0  0  0  0  0  0  0
   -6.7013   -2.1338   -1.8385 H   0  0  0  0  0  0  0  0  0  0  0  0
   -6.5195   -2.1100   -0.0653 H   0  0  0  0  0  0  0  0  0  0  0  0
   -8.9717   -1.1034   -1.6163 H   0  0  0  0  0  0  0  0  0  0  0  0
   -8.8629   -2.6175   -0.7171 H   0  0  0  0  0  0  0  0  0  0  0  0
   -7.4038   -0.1643    1.5754 H   0  0  0  0  0  0  0  0  0  0  0  0
   -8.7476    0.9398    1.2677 H   0  0  0  0  0  0  0  0  0  0  0  0
   -8.0578    1.1073   -1.1443 H   0  0  0  0  0  0  0  0  0  0  0  0
   -6.8139    1.7175   -0.0779 H   0  0  0  0  0  0  0  0  0  0  0  0
   -5.0647    1.0500    1.0382 H   0  0  0  0  0  0  0  0  0  0  0  0
   -2.6776    1.1303    1.3054 H   0  0  0  0  0  0  0  0  0  0  0  0
    3.2966   -1.4248   -0.1245 H   0  0  0  0  0  0  0  0  0  0  0  0
    5.6129   -1.9064   -0.7842 H   0  0  0  0  0  0  0  0  0  0  0  0
  1  2  3  0
  2  3  1  0
  3  4  1  0
  4  5  1  0
  5  6  2  0
  5  7  1  0
  7  8  2  0
  8  9  1  0
  9 10  2  0
 10 11  1  0
 11 12  2  0
 12 13  1  0
 13 14  2  0
 14 15  1  0
 15 16  1  0
 16 17  1  0
 17 18  2  0
 18 19  1  0
 19 20  2  0
 20 21  1  0
 21 22  1  0
 22 23  1  0
 23 24  1  0
 24 25  1  0
 25 26  1  0
 20 27  1  0
 27 28  2  0
 15 29  2  0
 10 30  1  0
 30 31  2  0
 31  7  1  0
 29 11  1  0
 28 17  1  0
 26 21  1  0
  3 32  1  0
  3 33  1  0
  4 34  1  0
  8 35  1  0
  9 36  1  0
 12 37  1  0
 13 38  1  0
 16 39  1  0
 18 40  1  0
 19 41  1  0
 22 42  1  0
 22 43  1  0
 23 44  1  0
 23 45  1  0
 25 46  1  0
 25 47  1  0
 26 48  1  0
 26 49  1  0
 27 50  1  0
 28 51  1  0
 30 52  1  0
 31 53  1  0
M  END
$$$$
