
     RDKit          3D

 49 51  0  0  0  0  0  0  0  0999 V2000
   -1.5440    3.5126    0.3762 C   0  0  0  0  0  0  0  0  0  0  0  0
   -2.1729    2.3155   -0.0630 O   0  0  0  0  0  0  0  0  0  0  0  0
   -1.3751    1.2288   -0.3177 C   0  0  0  0  0  0  0  0  0  0  0  0
    0.0192    1.2285   -0.1780 C   0  0  0  0  0  0  0  0  0  0  0  0
    0.7679    0.0787   -0.4656 C   0  0  0  0  0  0  0  0  0  0  0  0
    2.2358    0.0955   -0.3186 C   0  0  0  0  0  0  0  0  0  0  0  0
    2.9476    0.3996   -1.4195 C   0  0  0  0  0  0  0  0  0  0  0  0
    4.3306    0.4645   -1.4402 N   0  0  0  0  0  0  0  0  0  0  0  0
    4.9866    0.8046   -2.6949 C   0  0  0  0  0  0  0  0  0  0  0  0
    5.1109    0.2195   -0.3088 C   0  0  0  0  0  0  0  0  0  0  0  0
    6.3369    0.2727   -0.2862 O   0  0  0  0  0  0  0  0  0  0  0  0
    4.3758   -0.1223    0.9254 C   0  0  0  0  0  0  0  0  0  0  0  0
    5.0616   -0.3874    2.1013 C   0  0  0  0  0  0  0  0  0  0  0  0
    4.4507   -0.7087    3.2676 N   0  0  0  0  0  0  0  0  0  0  0  0
    3.1024   -0.7678    3.2486 C   0  0  0  0  0  0  0  0  0  0  0  0
    2.3338   -0.5183    2.1211 C   0  0  0  0  0  0  0  0  0  0  0  0
    2.9808   -0.1852    0.9264 C   0  0  0  0  0  0  0  0  0  0  0  0
    0.1193   -1.0792   -0.8941 C   0  0  0  0  0  0  0  0  0  0  0  0
   -1.2707   -1.0894   -1.0134 C   0  0  0  0  0  0  0  0  0  0  0  0
   -1.8838   -2.2234   -1.4843 O   0  0  0  0  0  0  0  0  0  0  0  0
   -1.9426   -3.2206   -0.4632 C   0  0  0  0  0  0  0  0  0  0  0  0
   -2.0377    0.0585   -0.7441 C   0  0  0  0  0  0  0  0  0  0  0  0
   -3.5474    0.0201   -0.9043 C   0  0  0  0  0  0  0  0  0  0  0  0
   -4.2488   -0.6596    0.2075 N   0  0  0  0  0  0  0  0  0  0  0  0
   -5.6393   -0.9156   -0.1722 C   0  0  0  0  0  0  0  0  0  0  0  0
   -4.2092    0.1402    1.4330 C   0  0  0  0  0  0  0  0  0  0  0  0
   -2.3258    4.2623    0.5317 H   0  0  0  0  0  0  0  0  0  0  0  0
   -0.8584    3.9002   -0.3845 H   0  0  0  0  0  0  0  0  0  0  0  0
   -1.0334    3.3620    1.3329 H   0  0  0  0  0  0  0  0  0  0  0  0
    0.5522    2.1155    0.1506 H   0  0  0  0  0  0  0  0  0  0  0  0
    2.4542    0.6151   -2.3662 H   0  0  0  0  0  0  0  0  0  0  0  0
    4.7162    0.0611   -3.4514 H   0  0  0  0  0  0  0  0  0  0  0  0
    6.0751    0.8221   -2.5951 H   0  0  0  0  0  0  0  0  0  0  0  0
    4.6482    1.7948   -3.0163 H   0  0  0  0  0  0  0  0  0  0  0  0
    6.1472   -0.3498    2.1448 H   0  0  0  0  0  0  0  0  0  0  0  0
    2.6375   -1.0305    4.1952 H   0  0  0  0  0  0  0  0  0  0  0  0
    1.2531   -0.5886    2.1889 H   0  0  0  0  0  0  0  0  0  0  0  0
    0.6883   -1.9710   -1.1432 H   0  0  0  0  0  0  0  0  0  0  0  0
   -2.6664   -3.9786   -0.7772 H   0  0  0  0  0  0  0  0  0  0  0  0
   -2.2744   -2.8114    0.4976 H   0  0  0  0  0  0  0  0  0  0  0  0
   -0.9689   -3.7085   -0.3491 H   0  0  0  0  0  0  0  0  0  0  0  0
   -3.9544    1.0271   -1.0644 H   0  0  0  0  0  0  0  0  0  0  0  0
   -3.7519   -0.5098   -1.8452 H   0  0  0  0  0  0  0  0  0  0  0  0
   -6.1871    0.0086   -0.3892 H   0  0  0  0  0  0  0  0  0  0  0  0
   -6.1653   -1.4489    0.6277 H   0  0  0  0  0  0  0  0  0  0  0  0
   -5.6851   -1.5610   -1.0565 H   0  0  0  0  0  0  0  0  0  0  0  0
   -4.6454    1.1362    1.2944 H   0  0  0  0  0  0  0  0  0  0  0  0
   -4.7598   -0.3634    2.2360 H   0  0  0  0  0  0  0  0  0  0  0  0
   -3.1841    0.2545    1.7995 H   0  0  0  0  0  0  0  0  0  0  0  0
  1  2  1  0
  2  3  1  0
  3  4  2  0
  4  5  1  0
  5  6  1  0
  6  7  2  0
  7  8  1  0
  8  9  1  0
  8 10  1  0
 10 11  2  0
 10 12  1  0
 12 13  2  0
 13 14  1  0
 14 15  2  0
 15 16  1  0
 16 17  2  0
  5 18  2  0
 18 19  1  0
 19 20  1  0
 20 21  1  0
 19 22  2  0
 22 23  1  0
 23 24  1  0
 24 25  1  0
 24 26  1  0
 22  3  1  0
 17  6  1  0
 17 12  1  0
  1 27  1  0
  1 28  1  0
  1 29  1  0
  4 30  1  0
  7 31  1  0
  9 32  1  0
  9 33  1  0
  9 34  1  0
 13 35  1  0
 15 36  1  0
 16 37  1  0
 18 38  1  0
 21 39  1  0
 21 40  1  0
 21 41  1  0
 23 42  1  0
 23 43  1  0
 25 44  1  0
 25 45  1  0
 25 46  1  0
 26 47  1  0
 26 48  1  0
 26 49  1  0
M  END
$$$$
