
     RDKit          3D

 33 33  0  0  0  0  0  0  0  0999 V2000
   -5.8796    0.5808   -0.0948 C   0  0  0  0  0  0  0  0  0  0  0  0
   -4.3897    0.1938    0.8338 S   0  0  0  0  0  6  0  0  0  0  0  0
   -4.4362   -1.2042    1.3607 O   0  0  0  0  0  0  0  0  0  0  0  0
   -4.3338    1.1504    1.9920 O   0  0  0  0  0  0  0  0  0  0  0  0
   -3.0255    0.4148   -0.2586 C   0  0  0  0  0  0  0  0  0  0  0  0
   -1.7455    0.0885    0.5186 C   0  0  0  0  0  0  0  0  0  0  0  0
   -0.5965    0.2835   -0.4310 C   0  0  0  0  0  0  0  0  0  0  0  0
   -0.6698   -0.5639   -1.5885 N   0  0  0  0  0  0  0  0  0  0  0  0
    0.6860    0.0983    0.3274 C   0  0  0  0  0  0  0  0  0  0  0  0
    1.9317    0.0204   -0.1991 N   0  0  0  0  0  0  0  0  0  0  0  0
    2.8317   -0.1461    0.7858 C   0  0  0  0  0  0  0  0  0  0  0  0
    4.2857   -0.2774    0.6721 C   0  0  0  0  0  0  0  0  0  0  0  0
    5.0017   -0.2516   -0.5068 C   0  0  0  0  0  0  0  0  0  0  0  0
    6.3512   -0.4048   -0.2239 C   0  0  0  0  0  0  0  0  0  0  0  0
    6.3811   -0.5201    1.1693 C   0  0  0  0  0  0  0  0  0  0  0  0
    5.1685   -0.4395    1.6234 O   0  0  0  0  0  0  0  0  0  0  0  0
    2.1095   -0.1677    1.9195 N   0  0  0  0  0  0  0  0  0  0  0  0
    0.8398   -0.0212    1.6248 O   0  0  0  0  0  0  0  0  0  0  0  0
    0.6893    0.0000    0.0000 Cl  0  0  0  0  0  0  0  0  0  0  0  0
   -5.6823    1.5216   -0.6511 H   0  0  0  0  0  0  0  0  0  0  0  0
   -6.0851   -0.2066   -0.8487 H   0  0  0  0  0  0  0  0  0  0  0  0
   -6.7393    0.7360    0.5549 H   0  0  0  0  0  0  0  0  0  0  0  0
   -2.9675    1.4914   -0.5459 H   0  0  0  0  0  0  0  0  0  0  0  0
   -3.1312   -0.2541   -1.1140 H   0  0  0  0  0  0  0  0  0  0  0  0
   -1.7877   -0.9340    0.9319 H   0  0  0  0  0  0  0  0  0  0  0  0
   -1.6461    0.8153    1.3294 H   0  0  0  0  0  0  0  0  0  0  0  0
   -0.6545    1.3472   -0.7885 H   0  0  0  0  0  0  0  0  0  0  0  0
   -1.1694   -1.4509   -1.4070 H   0  0  0  0  0  0  0  0  0  0  0  0
    0.2981   -0.6896   -1.9509 H   0  0  0  0  0  0  0  0  0  0  0  0
    4.5488   -0.1284   -1.4906 H   0  0  0  0  0  0  0  0  0  0  0  0
    7.1809   -0.4291   -0.9175 H   0  0  0  0  0  0  0  0  0  0  0  0
    7.3250   -0.6530    1.6866 H   0  0  0  0  0  0  0  0  0  0  0  0
   -0.6893    0.0000    0.0000 H   0  0  0  0  0  0  0  0  0  0  0  0
  1  2  1  0
  2  3  2  0
  2  4  2  0
  2  5  1  0
  5  6  1  0
  6  7  1  0
  7  8  1  0
  7  9  1  0
  9 10  2  0
 10 11  1  0
 11 12  1  0
 12 13  2  0
 13 14  1  0
 14 15  2  0
 15 16  1  0
 11 17  2  0
 17 18  1  0
 18  9  1  0
 16 12  1  0
  1 20  1  0
  1 21  1  0
  1 22  1  0
  5 23  1  0
  5 24  1  0
  6 25  1  0
  6 26  1  0
  7 27  1  0
  8 28  1  0
  8 29  1  0
 13 30  1  0
 14 31  1  0
 15 32  1  0
 19 33  1  0
M  END
$$$$
