
     RDKit          3D

 29 30  0  0  0  0  0  0  0  0999 V2000
    4.8431    0.2760    0.2823 C   0  0  0  0  0  0  0  0  0  0  0  0
    3.5770    0.8580    0.5668 O   0  0  0  0  0  0  0  0  0  0  0  0
    2.4846    0.2679   -0.0049 C   0  0  0  0  0  0  0  0  0  0  0  0
    2.4914   -0.8537   -0.8222 C   0  0  0  0  0  0  0  0  0  0  0  0
    1.2882   -1.3410   -1.3399 C   0  0  0  0  0  0  0  0  0  0  0  0
    0.0590   -0.7273   -1.0436 C   0  0  0  0  0  0  0  0  0  0  0  0
    0.0330    0.4083   -0.2196 C   0  0  0  0  0  0  0  0  0  0  0  0
    1.2657    0.8887    0.2823 C   0  0  0  0  0  0  0  0  0  0  0  0
   -1.1952    1.2344    0.1349 C   0  0  0  0  0  0  0  0  0  0  0  0
   -2.5255    0.6014    0.0917 N   0  0  0  0  0  0  0  0  0  0  0  0
   -3.5241    1.4930    0.6786 C   0  0  0  0  0  0  0  0  0  0  0  0
   -2.5368   -0.7176    0.7302 C   0  0  0  0  0  0  0  0  0  0  0  0
   -2.3362   -1.8611   -0.2789 C   0  0  0  0  0  0  0  0  0  0  0  0
   -1.3789   -1.4707   -1.7870 S   0  0  0  0  0  0  0  0  0  0  0  0
    5.0650    0.3171   -0.7893 H   0  0  0  0  0  0  0  0  0  0  0  0
    4.8991   -0.7506    0.6592 H   0  0  0  0  0  0  0  0  0  0  0  0
    5.6055    0.8636    0.8028 H   0  0  0  0  0  0  0  0  0  0  0  0
    3.4071   -1.3720   -1.0840 H   0  0  0  0  0  0  0  0  0  0  0  0
    1.3181   -2.2167   -1.9863 H   0  0  0  0  0  0  0  0  0  0  0  0
    1.2814    1.7791    0.9102 H   0  0  0  0  0  0  0  0  0  0  0  0
   -1.2026    2.0953   -0.5465 H   0  0  0  0  0  0  0  0  0  0  0  0
   -1.0375    1.6274    1.1497 H   0  0  0  0  0  0  0  0  0  0  0  0
   -4.5304    1.0783    0.5518 H   0  0  0  0  0  0  0  0  0  0  0  0
   -3.5224    2.4644    0.1713 H   0  0  0  0  0  0  0  0  0  0  0  0
   -3.3519    1.6601    1.7481 H   0  0  0  0  0  0  0  0  0  0  0  0
   -3.4983   -0.9080    1.2269 H   0  0  0  0  0  0  0  0  0  0  0  0
   -1.7930   -0.7814    1.5360 H   0  0  0  0  0  0  0  0  0  0  0  0
   -3.3181   -2.1978   -0.6305 H   0  0  0  0  0  0  0  0  0  0  0  0
   -1.8675   -2.7150    0.2225 H   0  0  0  0  0  0  0  0  0  0  0  0
  1  2  1  0
  2  3  1  0
  3  4  2  0
  4  5  1  0
  5  6  2  0
  6  7  1  0
  7  8  2  0
  7  9  1  0
  9 10  1  0
 10 11  1  0
 10 12  1  0
 12 13  1  0
 13 14  1  0
  8  3  1  0
 14  6  1  0
  1 15  1  0
  1 16  1  0
  1 17  1  0
  4 18  1  0
  5 19  1  0
  8 20  1  0
  9 21  1  0
  9 22  1  0
 11 23  1  0
 11 24  1  0
 11 25  1  0
 12 26  1  0
 12 27  1  0
 13 28  1  0
 13 29  1  0
M  END
$$$$
