
     RDKit          3D

 29 31  0  0  0  0  0  0  0  0999 V2000
    7.1271    1.4233    0.1674 N   0  0  0  0  0  0  0  0  0  0  0  0
    6.0500    1.0193    0.1138 C   0  0  0  0  0  0  0  0  0  0  0  0
    4.7006    0.5077    0.0712 C   0  0  0  0  0  0  0  0  0  0  0  0
    3.6819    1.3952    0.2878 C   0  0  0  0  0  0  0  0  0  0  0  0
    2.3581    0.9345    0.2541 C   0  0  0  0  0  0  0  0  0  0  0  0
    2.0370   -0.3781    0.0115 C   0  0  0  0  0  0  0  0  0  0  0  0
    0.8375   -0.8671   -0.0330 O   0  0  0  0  0  0  0  0  0  0  0  0
   -0.4756   -0.7165    0.0504 C   0  0  0  0  0  0  0  0  0  0  0  0
   -1.3000   -1.8677   -0.1329 C   0  0  0  0  0  0  0  0  0  0  0  0
   -2.6629   -1.8028   -0.0635 C   0  0  0  0  0  0  0  0  0  0  0  0
   -3.2638   -0.5936    0.1904 C   0  0  0  0  0  0  0  0  0  0  0  0
   -2.5457    0.5487    0.3764 C   0  0  0  0  0  0  0  0  0  0  0  0
   -1.1642    0.4524    0.3003 C   0  0  0  0  0  0  0  0  0  0  0  0
   -3.4384    1.6939    0.6303 C   0  0  0  0  0  0  0  0  0  0  0  0
   -4.7212    1.2448    0.6663 O   0  0  0  0  0  0  0  0  0  0  0  0
   -4.7463   -0.1762    0.3329 B   0  0  0  0  0  0  0  0  0  0  0  0
   -5.9207   -1.0123    0.5636 O   0  0  0  0  0  0  0  0  0  0  0  0
    3.1281   -1.2437   -0.2039 C   0  0  0  0  0  0  0  0  0  0  0  0
    4.4277   -0.8079   -0.1741 C   0  0  0  0  0  0  0  0  0  0  0  0
    3.9140    2.4459    0.4831 H   0  0  0  0  0  0  0  0  0  0  0  0
    1.6382    1.7178    0.4379 H   0  0  0  0  0  0  0  0  0  0  0  0
   -0.7931   -2.7975   -0.3300 H   0  0  0  0  0  0  0  0  0  0  0  0
   -3.3048   -2.6746   -0.2016 H   0  0  0  0  0  0  0  0  0  0  0  0
   -0.5725    1.3546    0.4459 H   0  0  0  0  0  0  0  0  0  0  0  0
   -3.2511    2.5427   -0.0478 H   0  0  0  0  0  0  0  0  0  0  0  0
   -3.1852    2.0785    1.6628 H   0  0  0  0  0  0  0  0  0  0  0  0
   -6.6987   -0.6672    0.0583 H   0  0  0  0  0  0  0  0  0  0  0  0
    2.8786   -2.2752   -0.3947 H   0  0  0  0  0  0  0  0  0  0  0  0
    5.2654   -1.4792   -0.3408 H   0  0  0  0  0  0  0  0  0  0  0  0
  1  2  3  0
  2  3  1  0
  3  4  2  0
  4  5  1  0
  5  6  2  0
  6  7  1  0
  7  8  1  0
  8  9  2  0
  9 10  1  0
 10 11  2  0
 11 12  1  0
 12 13  2  0
 12 14  1  0
 14 15  1  0
 15 16  1  0
 16 17  1  0
  6 18  1  0
 18 19  2  0
 19  3  1  0
 13  8  1  0
 16 11  1  0
  4 20  1  0
  5 21  1  0
  9 22  1  0
 10 23  1  0
 13 24  1  0
 14 25  1  0
 14 26  1  0
 17 27  1  0
 18 28  1  0
 19 29  1  0
M  END
$$$$
