
     RDKit          3D

 71 75  0  0  0  0  0  0  0  0999 V2000
    7.8347   -3.1132    0.3476 C   0  0  0  0  0  0  0  0  0  0  0  0
    7.1944   -1.7338    0.4670 C   0  0  0  0  0  0  0  0  0  0  0  0
    5.7463   -1.7645    0.2113 N   0  0  0  0  0  0  0  0  0  0  0  0
    5.1282   -0.4908    0.6469 C   0  0  0  0  0  0  0  0  0  0  0  0
    3.6108   -0.4690    0.3991 C   0  0  0  0  0  0  0  0  0  0  0  0
    3.2873   -0.7483   -1.0031 N   0  0  0  0  0  0  0  0  0  0  0  0
    2.0897   -0.3399   -1.6060 C   0  0  0  0  0  0  0  0  0  0  0  0
    1.6004   -0.9638   -2.5488 O   0  0  0  0  0  0  0  0  0  0  0  0
    1.4374    0.8839   -1.1015 C   0  0  0  0  0  0  0  0  0  0  0  0
    2.1358    1.9943   -0.7956 N   0  0  0  0  0  0  0  0  0  0  0  0
    1.2088    2.9079   -0.4157 N   0  0  0  0  0  0  0  0  0  0  0  0
    1.4339    4.2316   -0.0077 C   0  0  0  0  0  0  0  0  0  0  0  0
    2.8448    4.7326    0.0133 C   0  0  0  0  0  0  0  0  0  0  0  0
    0.3850    4.9968    0.3427 C   0  0  0  0  0  0  0  0  0  0  0  0
   -0.9630    4.3517    0.2717 C   0  0  0  0  0  0  0  0  0  0  0  0
   -2.1519    5.1891    0.6729 C   0  0  0  0  0  0  0  0  0  0  0  0
   -1.1816    3.1260   -0.1059 N   0  0  0  0  0  0  0  0  0  0  0  0
   -0.0855    2.3865   -0.4629 C   0  0  0  0  0  0  0  0  0  0  0  0
    0.0444    1.0924   -0.9248 C   0  0  0  0  0  0  0  0  0  0  0  0
   -1.0779    0.2026   -1.1229 C   0  0  0  0  0  0  0  0  0  0  0  0
   -1.5447   -0.0617   -2.4130 C   0  0  0  0  0  0  0  0  0  0  0  0
   -2.6512   -0.8928   -2.6016 C   0  0  0  0  0  0  0  0  0  0  0  0
   -3.2849   -1.4864   -1.5046 C   0  0  0  0  0  0  0  0  0  0  0  0
   -4.4250   -2.2130   -1.7049 O   0  0  0  0  0  0  0  0  0  0  0  0
   -4.1786   -3.4025   -2.4549 C   0  0  0  0  0  0  0  0  0  0  0  0
   -2.8173   -1.2254   -0.2152 C   0  0  0  0  0  0  0  0  0  0  0  0
   -3.5253   -1.9916    1.2185 S   0  0  0  0  0  6  0  0  0  0  0  0
   -4.2626   -3.1809    0.8471 O   0  0  0  0  0  0  0  0  0  0  0  0
   -2.4797   -2.0858    2.2192 O   0  0  0  0  0  0  0  0  0  0  0  0
   -4.6348   -0.8315    1.7666 N   0  0  0  0  0  0  0  0  0  0  0  0
   -5.7346   -0.4545    0.8472 C   0  0  0  0  0  0  0  0  0  0  0  0
   -6.8106    0.0808    1.7790 C   0  0  0  0  0  0  0  0  0  0  0  0
   -6.7236   -0.8797    2.9456 C   0  0  0  0  0  0  0  0  0  0  0  0
   -5.2246   -1.1034    3.1063 C   0  0  0  0  0  0  0  0  0  0  0  0
   -1.7106   -0.3848   -0.0238 C   0  0  0  0  0  0  0  0  0  0  0  0
    3.9333   -1.9493   -1.5272 C   0  0  0  0  0  0  0  0  0  0  0  0
    5.4439   -1.9807   -1.2223 C   0  0  0  0  0  0  0  0  0  0  0  0
    8.8763   -3.0687    0.6800 H   0  0  0  0  0  0  0  0  0  0  0  0
    7.3155   -3.8454    0.9753 H   0  0  0  0  0  0  0  0  0  0  0  0
    7.8347   -3.4772   -0.6836 H   0  0  0  0  0  0  0  0  0  0  0  0
    7.3756   -1.3860    1.4936 H   0  0  0  0  0  0  0  0  0  0  0  0
    7.7047   -1.0274   -0.2020 H   0  0  0  0  0  0  0  0  0  0  0  0
    5.3003   -0.3466    1.7205 H   0  0  0  0  0  0  0  0  0  0  0  0
    5.5900    0.3556    0.1196 H   0  0  0  0  0  0  0  0  0  0  0  0
    3.1227   -1.2493    0.9966 H   0  0  0  0  0  0  0  0  0  0  0  0
    3.2030    0.4804    0.7428 H   0  0  0  0  0  0  0  0  0  0  0  0
    3.3015    4.6501   -0.9797 H   0  0  0  0  0  0  0  0  0  0  0  0
    2.8998    5.7848    0.3132 H   0  0  0  0  0  0  0  0  0  0  0  0
    3.4480    4.1557    0.7224 H   0  0  0  0  0  0  0  0  0  0  0  0
    0.4706    6.0248    0.6665 H   0  0  0  0  0  0  0  0  0  0  0  0
   -2.8560    5.2400   -0.1632 H   0  0  0  0  0  0  0  0  0  0  0  0
   -1.8562    6.2050    0.9481 H   0  0  0  0  0  0  0  0  0  0  0  0
   -2.6480    4.7213    1.5282 H   0  0  0  0  0  0  0  0  0  0  0  0
   -1.0589    0.3878   -3.2769 H   0  0  0  0  0  0  0  0  0  0  0  0
   -3.0247   -1.0545   -3.6096 H   0  0  0  0  0  0  0  0  0  0  0  0
   -5.0060   -4.0919   -2.2651 H   0  0  0  0  0  0  0  0  0  0  0  0
   -3.2465   -3.8966   -2.1519 H   0  0  0  0  0  0  0  0  0  0  0  0
   -4.1609   -3.1821   -3.5272 H   0  0  0  0  0  0  0  0  0  0  0  0
   -5.4086    0.3120    0.1401 H   0  0  0  0  0  0  0  0  0  0  0  0
   -6.1137   -1.3243    0.3019 H   0  0  0  0  0  0  0  0  0  0  0  0
   -7.7992    0.0992    1.3140 H   0  0  0  0  0  0  0  0  0  0  0  0
   -6.5619    1.0966    2.1065 H   0  0  0  0  0  0  0  0  0  0  0  0
   -7.2194   -1.8240    2.6889 H   0  0  0  0  0  0  0  0  0  0  0  0
   -7.1880   -0.4908    3.8567 H   0  0  0  0  0  0  0  0  0  0  0  0
   -5.0241   -2.1162    3.4665 H   0  0  0  0  0  0  0  0  0  0  0  0
   -4.7961   -0.3909    3.8187 H   0  0  0  0  0  0  0  0  0  0  0  0
   -1.3506   -0.1797    0.9829 H   0  0  0  0  0  0  0  0  0  0  0  0
    3.7843   -2.0108   -2.6107 H   0  0  0  0  0  0  0  0  0  0  0  0
    3.4336   -2.8163   -1.0755 H   0  0  0  0  0  0  0  0  0  0  0  0
    5.9402   -1.2111   -1.8273 H   0  0  0  0  0  0  0  0  0  0  0  0
    5.8271   -2.9522   -1.5502 H   0  0  0  0  0  0  0  0  0  0  0  0
  1  2  1  0
  2  3  1  0
  3  4  1  0
  4  5  1  0
  5  6  1  0
  6  7  1  0
  7  8  2  0
  7  9  1  0
  9 10  2  0
 10 11  1  0
 11 12  1  0
 12 13  1  0
 12 14  2  0
 14 15  1  0
 15 16  1  0
 15 17  2  0
 17 18  1  0
 18 19  2  0
 19 20  1  0
 20 21  2  0
 21 22  1  0
 22 23  2  0
 23 24  1  0
 24 25  1  0
 23 26  1  0
 26 27  1  0
 27 28  2  0
 27 29  2  0
 27 30  1  0
 30 31  1  0
 31 32  1  0
 32 33  1  0
 33 34  1  0
 26 35  2  0
  6 36  1  0
 36 37  1  0
 37  3  1  0
 19  9  1  0
 35 20  1  0
 18 11  1  0
 34 30  1  0
  1 38  1  0
  1 39  1  0
  1 40  1  0
  2 41  1  0
  2 42  1  0
  4 43  1  0
  4 44  1  0
  5 45  1  0
  5 46  1  0
 13 47  1  0
 13 48  1  0
 13 49  1  0
 14 50  1  0
 16 51  1  0
 16 52  1  0
 16 53  1  0
 21 54  1  0
 22 55  1  0
 25 56  1  0
 25 57  1  0
 25 58  1  0
 31 59  1  0
 31 60  1  0
 32 61  1  0
 32 62  1  0
 33 63  1  0
 33 64  1  0
 34 65  1  0
 34 66  1  0
 35 67  1  0
 36 68  1  0
 36 69  1  0
 37 70  1  0
 37 71  1  0
M  END
$$$$
