
     RDKit          3D

 47 49  0  0  0  0  0  0  0  0999 V2000
   -2.1057   -3.1778   -0.6471 C   0  0  0  0  0  0  0  0  0  0  0  0
   -1.1922   -2.0357   -1.0158 C   0  0  0  0  0  0  0  0  0  0  0  0
   -0.1951   -2.2651   -1.7001 O   0  0  0  0  0  0  0  0  0  0  0  0
   -1.5190   -0.7576   -0.5571 N   0  0  0  0  0  0  0  0  0  0  0  0
   -2.7194   -0.4676    0.2648 C   0  0  0  0  0  0  0  0  0  0  0  0
   -2.3576    0.0191    1.6743 C   0  0  0  0  0  0  0  0  0  0  0  0
   -3.6246    0.3355    2.4569 C   0  0  0  0  0  0  0  0  0  0  0  0
   -4.4260    1.2809    1.7505 O   0  0  0  0  0  0  0  0  0  0  0  0
   -4.8756    0.7846    0.4905 C   0  0  0  0  0  0  0  0  0  0  0  0
   -3.6916    0.5000   -0.4234 C   0  0  0  0  0  0  0  0  0  0  0  0
   -0.6382    0.3714   -0.9112 C   0  0  0  0  0  0  0  0  0  0  0  0
   -0.5405    0.6865   -2.4067 C   0  0  0  0  0  0  0  0  0  0  0  0
    0.6800    1.5975   -2.4777 C   0  0  0  0  0  0  0  0  0  0  0  0
    1.5280    1.2002   -1.3645 N   0  0  0  0  0  0  0  0  0  0  0  0
    2.8891    1.4793   -1.3844 C   0  0  0  0  0  0  0  0  0  0  0  0
    3.3780    2.1373   -2.3035 O   0  0  0  0  0  0  0  0  0  0  0  0
    3.6889    0.9734   -0.2822 C   0  0  0  0  0  0  0  0  0  0  0  0
    3.5470    1.1804    1.0762 C   0  0  0  0  0  0  0  0  0  0  0  0
    4.5526    0.5121    1.8339 C   0  0  0  0  0  0  0  0  0  0  0  0
    5.4437   -0.1679    1.0305 C   0  0  0  0  0  0  0  0  0  0  0  0
    6.6284   -0.9767    1.4333 C   0  0  0  0  0  0  0  0  0  0  0  0
    5.0638    0.0156   -0.6282 S   0  0  0  0  0  0  0  0  0  0  0  0
    0.8364    0.2594   -0.4876 C   0  0  0  0  0  0  0  0  0  0  0  0
   -2.1524   -3.2930    0.4389 H   0  0  0  0  0  0  0  0  0  0  0  0
   -1.7065   -4.1076   -1.0650 H   0  0  0  0  0  0  0  0  0  0  0  0
   -3.1009   -3.0205   -1.0710 H   0  0  0  0  0  0  0  0  0  0  0  0
   -3.2787   -1.3963    0.4056 H   0  0  0  0  0  0  0  0  0  0  0  0
   -1.7634   -0.7363    2.2009 H   0  0  0  0  0  0  0  0  0  0  0  0
   -1.7473    0.9275    1.6176 H   0  0  0  0  0  0  0  0  0  0  0  0
   -3.3643    0.7747    3.4251 H   0  0  0  0  0  0  0  0  0  0  0  0
   -4.2120   -0.5695    2.6519 H   0  0  0  0  0  0  0  0  0  0  0  0
   -5.4867   -0.1122    0.6468 H   0  0  0  0  0  0  0  0  0  0  0  0
   -5.5185    1.5477    0.0405 H   0  0  0  0  0  0  0  0  0  0  0  0
   -4.0369    0.0841   -1.3766 H   0  0  0  0  0  0  0  0  0  0  0  0
   -3.1920    1.4491   -0.6470 H   0  0  0  0  0  0  0  0  0  0  0  0
   -1.0297    1.2749   -0.4274 H   0  0  0  0  0  0  0  0  0  0  0  0
   -0.3629   -0.2111   -3.0071 H   0  0  0  0  0  0  0  0  0  0  0  0
   -1.4421    1.1684   -2.7970 H   0  0  0  0  0  0  0  0  0  0  0  0
    1.2040    1.5110   -3.4345 H   0  0  0  0  0  0  0  0  0  0  0  0
    0.4016    2.6454   -2.3209 H   0  0  0  0  0  0  0  0  0  0  0  0
    2.7650    1.7931    1.5073 H   0  0  0  0  0  0  0  0  0  0  0  0
    4.6236    0.5401    2.9147 H   0  0  0  0  0  0  0  0  0  0  0  0
    6.5331   -2.0087    1.0798 H   0  0  0  0  0  0  0  0  0  0  0  0
    6.7302   -1.0047    2.5232 H   0  0  0  0  0  0  0  0  0  0  0  0
    7.5487   -0.5492    1.0219 H   0  0  0  0  0  0  0  0  0  0  0  0
    1.2779   -0.7291   -0.6355 H   0  0  0  0  0  0  0  0  0  0  0  0
    0.9598    0.5376    0.5619 H   0  0  0  0  0  0  0  0  0  0  0  0
  1  2  1  0
  2  3  2  0
  2  4  1  0
  4  5  1  0
  5  6  1  0
  6  7  1  0
  7  8  1  0
  8  9  1  0
  9 10  1  0
  4 11  1  0
 11 12  1  0
 12 13  1  0
 13 14  1  0
 14 15  1  0
 15 16  2  0
 15 17  1  0
 17 18  2  0
 18 19  1  0
 19 20  2  0
 20 21  1  0
 20 22  1  0
 14 23  1  0
 10  5  1  0
 23 11  1  0
 22 17  1  0
  1 24  1  0
  1 25  1  0
  1 26  1  0
  5 27  1  0
  6 28  1  0
  6 29  1  0
  7 30  1  0
  7 31  1  0
  9 32  1  0
  9 33  1  0
 10 34  1  0
 10 35  1  0
 11 36  1  0
 12 37  1  0
 12 38  1  0
 13 39  1  0
 13 40  1  0
 18 41  1  0
 19 42  1  0
 21 43  1  0
 21 44  1  0
 21 45  1  0
 23 46  1  0
 23 47  1  0
M  END
$$$$
