
     RDKit          3D

 18 19  0  0  0  0  0  0  0  0999 V2000
    4.5883    0.6063   -1.4078 S   0  0  0  0  0  0  0  0  0  0  0  0
    3.2699    0.1108   -0.5649 C   0  0  0  0  0  0  0  0  0  0  0  0
    3.1857   -0.6310    0.5729 N   0  0  0  0  0  0  0  0  0  0  0  0
    1.8851   -0.8107    0.9326 N   0  0  0  0  0  0  0  0  0  0  0  0
    1.2389   -0.1730    0.0016 C   0  0  0  0  0  0  0  0  0  0  0  0
   -0.2136   -0.0179   -0.1400 C   0  0  0  0  0  0  0  0  0  0  0  0
   -1.0538   -0.6061    0.8131 C   0  0  0  0  0  0  0  0  0  0  0  0
   -2.4390   -0.4734    0.7014 C   0  0  0  0  0  0  0  0  0  0  0  0
   -2.9875    0.2456   -0.3602 C   0  0  0  0  0  0  0  0  0  0  0  0
   -2.1541    0.8333   -1.3119 C   0  0  0  0  0  0  0  0  0  0  0  0
   -0.7676    0.7034   -1.2045 C   0  0  0  0  0  0  0  0  0  0  0  0
    2.0074    0.4179   -0.9508 O   0  0  0  0  0  0  0  0  0  0  0  0
    3.9536   -1.0155    1.1094 H   0  0  0  0  0  0  0  0  0  0  0  0
   -0.6367   -1.1693    1.6455 H   0  0  0  0  0  0  0  0  0  0  0  0
   -3.0900   -0.9310    1.4425 H   0  0  0  0  0  0  0  0  0  0  0  0
   -4.0667    0.3483   -0.4461 H   0  0  0  0  0  0  0  0  0  0  0  0
   -2.5848    1.3934   -2.1386 H   0  0  0  0  0  0  0  0  0  0  0  0
   -0.1352    1.1688   -1.9565 H   0  0  0  0  0  0  0  0  0  0  0  0
  1  2  2  0
  2  3  1  0
  3  4  1  0
  4  5  2  0
  5  6  1  0
  6  7  2  0
  7  8  1  0
  8  9  2  0
  9 10  1  0
 10 11  2  0
  5 12  1  0
 12  2  1  0
 11  6  1  0
  3 13  1  0
  7 14  1  0
  8 15  1  0
  9 16  1  0
 10 17  1  0
 11 18  1  0
M  END
$$$$
