
     RDKit          3D

 51 53  0  0  0  0  0  0  0  0999 V2000
   -6.8274   -0.8051    0.7974 C   0  0  0  0  0  0  0  0  0  0  0  0
   -6.2056   -0.1482   -0.4539 C   0  0  0  0  0  0  0  0  0  0  0  0
   -6.8686    1.2380   -0.6191 C   0  0  0  0  0  0  0  0  0  0  0  0
   -6.5730   -0.9817   -1.7006 C   0  0  0  0  0  0  0  0  0  0  0  0
   -4.6759   -0.0918   -0.3023 C   0  0  0  0  0  0  0  0  0  0  0  0
   -3.9350   -1.2764   -0.1407 C   0  0  0  0  0  0  0  0  0  0  0  0
   -2.5420   -1.2556    0.0015 C   0  0  0  0  0  0  0  0  0  0  0  0
   -1.8432   -0.0473   -0.0064 C   0  0  0  0  0  0  0  0  0  0  0  0
   -0.4412   -0.1036    0.1247 N   0  0  0  0  0  0  0  0  0  0  0  0
    0.4172    0.9444    0.3734 C   0  0  0  0  0  0  0  0  0  0  0  0
    0.0671    2.0759    0.6975 O   0  0  0  0  0  0  0  0  0  0  0  0
    1.7692    0.5990    0.2659 N   0  0  0  0  0  0  0  0  0  0  0  0
    2.2503   -0.3750   -0.7318 C   0  0  0  0  0  0  0  0  0  0  0  0
    3.6688   -0.8862   -0.4182 C   0  0  0  0  0  0  0  0  0  0  0  0
    4.5912    0.2565   -0.2538 N   0  0  0  0  0  0  0  0  0  0  0  0
    5.9304   -0.1520   -0.0495 C   0  0  0  0  0  0  0  0  0  0  0  0
    6.1576   -1.3773    0.4899 N   0  0  0  0  0  0  0  0  0  0  0  0
    7.4371   -1.7618    0.6991 C   0  0  0  0  0  0  0  0  0  0  0  0
    8.5373   -0.9836    0.3923 C   0  0  0  0  0  0  0  0  0  0  0  0
    8.3138    0.2655   -0.1712 C   0  0  0  0  0  0  0  0  0  0  0  0
    7.0040    0.6908   -0.3997 C   0  0  0  0  0  0  0  0  0  0  0  0
    6.7776    2.2312   -1.1539 Cl  0  0  0  0  0  0  0  0  0  0  0  0
    4.1478    1.1477    0.8440 C   0  0  0  0  0  0  0  0  0  0  0  0
    2.7299    1.6730    0.5567 C   0  0  0  0  0  0  0  0  0  0  0  0
   -2.5593    1.1340   -0.1767 C   0  0  0  0  0  0  0  0  0  0  0  0
   -3.9549    1.1119   -0.3190 C   0  0  0  0  0  0  0  0  0  0  0  0
   -6.4948   -1.8403    0.9308 H   0  0  0  0  0  0  0  0  0  0  0  0
   -6.5596   -0.2537    1.7066 H   0  0  0  0  0  0  0  0  0  0  0  0
   -7.9214   -0.8265    0.7303 H   0  0  0  0  0  0  0  0  0  0  0  0
   -7.9566    1.1458   -0.7218 H   0  0  0  0  0  0  0  0  0  0  0  0
   -6.5039    1.7558   -1.5139 H   0  0  0  0  0  0  0  0  0  0  0  0
   -6.6806    1.8812    0.2484 H   0  0  0  0  0  0  0  0  0  0  0  0
   -6.2345   -2.0204   -1.6192 H   0  0  0  0  0  0  0  0  0  0  0  0
   -6.1210   -0.5583   -2.6054 H   0  0  0  0  0  0  0  0  0  0  0  0
   -7.6585   -1.0095   -1.8516 H   0  0  0  0  0  0  0  0  0  0  0  0
   -4.4354   -2.2422   -0.1228 H   0  0  0  0  0  0  0  0  0  0  0  0
   -2.0197   -2.2006    0.1218 H   0  0  0  0  0  0  0  0  0  0  0  0
   -0.0510   -1.0168    0.2915 H   0  0  0  0  0  0  0  0  0  0  0  0
    2.2392    0.1368   -1.7025 H   0  0  0  0  0  0  0  0  0  0  0  0
    1.5737   -1.2291   -0.8131 H   0  0  0  0  0  0  0  0  0  0  0  0
    3.6256   -1.4921    0.4972 H   0  0  0  0  0  0  0  0  0  0  0  0
    3.9995   -1.5278   -1.2444 H   0  0  0  0  0  0  0  0  0  0  0  0
    7.5553   -2.7496    1.1362 H   0  0  0  0  0  0  0  0  0  0  0  0
    9.5428   -1.3433    0.5799 H   0  0  0  0  0  0  0  0  0  0  0  0
    9.1547    0.8990   -0.4383 H   0  0  0  0  0  0  0  0  0  0  0  0
    4.1429    0.5963    1.7944 H   0  0  0  0  0  0  0  0  0  0  0  0
    4.8160    2.0076    0.9643 H   0  0  0  0  0  0  0  0  0  0  0  0
    2.7442    2.3403   -0.3145 H   0  0  0  0  0  0  0  0  0  0  0  0
    2.3816    2.2568    1.4164 H   0  0  0  0  0  0  0  0  0  0  0  0
   -2.0601    2.0981   -0.2110 H   0  0  0  0  0  0  0  0  0  0  0  0
   -4.4515    2.0704   -0.4439 H   0  0  0  0  0  0  0  0  0  0  0  0
  1  2  1  0
  2  3  1  0
  2  4  1  0
  2  5  1  0
  5  6  2  0
  6  7  1  0
  7  8  2  0
  8  9  1  0
  9 10  1  0
 10 11  2  0
 10 12  1  0
 12 13  1  0
 13 14  1  0
 14 15  1  0
 15 16  1  0
 16 17  2  0
 17 18  1  0
 18 19  2  0
 19 20  1  0
 20 21  2  0
 21 22  1  0
 15 23  1  0
 23 24  1  0
  8 25  1  0
 25 26  2  0
 26  5  1  0
 24 12  1  0
 21 16  1  0
  1 27  1  0
  1 28  1  0
  1 29  1  0
  3 30  1  0
  3 31  1  0
  3 32  1  0
  4 33  1  0
  4 34  1  0
  4 35  1  0
  6 36  1  0
  7 37  1  0
  9 38  1  0
 13 39  1  0
 13 40  1  0
 14 41  1  0
 14 42  1  0
 18 43  1  0
 19 44  1  0
 20 45  1  0
 23 46  1  0
 23 47  1  0
 24 48  1  0
 24 49  1  0
 25 50  1  0
 26 51  1  0
M  END
$$$$
