
     RDKit          3D

 55 57  0  0  0  0  0  0  0  0999 V2000
    7.8443    1.0745   -1.6365 C   0  0  0  0  0  0  0  0  0  0  0  0
    6.5514    0.5339   -2.2142 C   0  0  0  0  0  0  0  0  0  0  0  0
    6.0327   -0.5001   -1.3617 O   0  0  0  0  0  0  0  0  0  0  0  0
    5.2178   -0.0773   -0.3479 C   0  0  0  0  0  0  0  0  0  0  0  0
    4.9259    1.0890   -0.1245 O   0  0  0  0  0  0  0  0  0  0  0  0
    4.7610   -1.2823    0.4840 C   0  0  0  0  0  0  0  0  0  0  0  0
    5.8775   -1.6558    1.4496 C   0  0  0  0  0  0  0  0  0  0  0  0
    3.6035   -0.9478    1.2693 O   0  0  0  0  0  0  0  0  0  0  0  0
    2.4725   -1.5687    0.8051 C   0  0  0  0  0  0  0  0  0  0  0  0
    2.3118   -2.9445    1.0085 C   0  0  0  0  0  0  0  0  0  0  0  0
    1.1730   -3.5895    0.5273 C   0  0  0  0  0  0  0  0  0  0  0  0
    0.1926   -2.8614   -0.1504 C   0  0  0  0  0  0  0  0  0  0  0  0
    0.3449   -1.4780   -0.3286 C   0  0  0  0  0  0  0  0  0  0  0  0
   -0.6868   -0.7101   -1.0767 C   0  0  0  0  0  0  0  0  0  0  0  0
   -1.7076   -1.2637   -1.4725 O   0  0  0  0  0  0  0  0  0  0  0  0
   -0.4296    0.6442   -1.2869 N   0  0  0  0  0  0  0  0  0  0  0  0
   -1.3906    1.4202   -2.0687 C   0  0  0  0  0  0  0  0  0  0  0  0
   -2.5041    1.9643   -1.1749 C   0  0  0  0  0  0  0  0  0  0  0  0
   -2.5071    3.1386   -0.8159 O   0  0  0  0  0  0  0  0  0  0  0  0
   -3.4353    0.9899   -0.8467 N   0  0  0  0  0  0  0  0  0  0  0  0
   -4.5942    1.1281   -0.0572 C   0  0  0  0  0  0  0  0  0  0  0  0
   -4.9575    2.3007    0.5977 C   0  0  0  0  0  0  0  0  0  0  0  0
   -6.1336    2.3561    1.3494 C   0  0  0  0  0  0  0  0  0  0  0  0
   -6.9697    1.2472    1.4497 C   0  0  0  0  0  0  0  0  0  0  0  0
   -8.0932    1.4357    2.2073 O   0  0  0  0  0  0  0  0  0  0  0  0
   -9.0902    0.4139    2.1494 C   0  0  0  0  0  0  0  0  0  0  0  0
   -6.6072    0.0660    0.8069 C   0  0  0  0  0  0  0  0  0  0  0  0
   -5.4222    0.0116    0.0591 C   0  0  0  0  0  0  0  0  0  0  0  0
    0.6516    1.2893   -0.7176 C   0  0  0  0  0  0  0  0  0  0  0  0
    1.5764    0.6363   -0.0081 C   0  0  0  0  0  0  0  0  0  0  0  0
    1.4749   -0.8133    0.1663 C   0  0  0  0  0  0  0  0  0  0  0  0
    8.2483    1.8757   -2.2601 H   0  0  0  0  0  0  0  0  0  0  0  0
    8.5932    0.2755   -1.5582 H   0  0  0  0  0  0  0  0  0  0  0  0
    7.6842    1.4671   -0.6182 H   0  0  0  0  0  0  0  0  0  0  0  0
    6.7444    0.0808   -3.1889 H   0  0  0  0  0  0  0  0  0  0  0  0
    5.8182    1.3260   -2.3677 H   0  0  0  0  0  0  0  0  0  0  0  0
    4.5616   -2.1112   -0.2021 H   0  0  0  0  0  0  0  0  0  0  0  0
    6.7902   -1.9599    0.9179 H   0  0  0  0  0  0  0  0  0  0  0  0
    6.1251   -0.7981    2.0919 H   0  0  0  0  0  0  0  0  0  0  0  0
    5.5725   -2.4753    2.1096 H   0  0  0  0  0  0  0  0  0  0  0  0
    3.0737   -3.5100    1.5404 H   0  0  0  0  0  0  0  0  0  0  0  0
    1.0481   -4.6574    0.6666 H   0  0  0  0  0  0  0  0  0  0  0  0
   -0.6860   -3.3697   -0.5461 H   0  0  0  0  0  0  0  0  0  0  0  0
   -1.8380    0.7792   -2.8400 H   0  0  0  0  0  0  0  0  0  0  0  0
   -0.8877    2.2494   -2.5848 H   0  0  0  0  0  0  0  0  0  0  0  0
   -3.2269    0.0471   -1.1800 H   0  0  0  0  0  0  0  0  0  0  0  0
   -4.3450    3.1937    0.5559 H   0  0  0  0  0  0  0  0  0  0  0  0
   -6.3975    3.2770    1.8650 H   0  0  0  0  0  0  0  0  0  0  0  0
   -9.3888    0.2044    1.1125 H   0  0  0  0  0  0  0  0  0  0  0  0
   -8.7463   -0.4948    2.6585 H   0  0  0  0  0  0  0  0  0  0  0  0
   -9.9759    0.7775    2.6809 H   0  0  0  0  0  0  0  0  0  0  0  0
   -7.2165   -0.8347    0.8755 H   0  0  0  0  0  0  0  0  0  0  0  0
   -5.1634   -0.9203   -0.4388 H   0  0  0  0  0  0  0  0  0  0  0  0
    0.7235    2.3622   -0.8616 H   0  0  0  0  0  0  0  0  0  0  0  0
    2.4060    1.1685    0.4523 H   0  0  0  0  0  0  0  0  0  0  0  0
  1  2  1  0
  2  3  1  0
  3  4  1  0
  4  5  2  0
  4  6  1  0
  6  7  1  0
  6  8  1  0
  8  9  1  0
  9 10  2  0
 10 11  1  0
 11 12  2  0
 12 13  1  0
 13 14  1  0
 14 15  2  0
 14 16  1  0
 16 17  1  0
 17 18  1  0
 18 19  2  0
 18 20  1  0
 20 21  1  0
 21 22  2  0
 22 23  1  0
 23 24  2  0
 24 25  1  0
 25 26  1  0
 24 27  1  0
 27 28  2  0
 16 29  1  0
 29 30  2  0
 30 31  1  0
 31  9  1  0
 31 13  2  0
 28 21  1  0
  1 32  1  0
  1 33  1  0
  1 34  1  0
  2 35  1  0
  2 36  1  0
  6 37  1  0
  7 38  1  0
  7 39  1  0
  7 40  1  0
 10 41  1  0
 11 42  1  0
 12 43  1  0
 17 44  1  0
 17 45  1  0
 20 46  1  0
 22 47  1  0
 23 48  1  0
 26 49  1  0
 26 50  1  0
 26 51  1  0
 27 52  1  0
 28 53  1  0
 29 54  1  0
 30 55  1  0
M  END
$$$$
