
     RDKit          3D

 30 32  0  0  0  0  0  0  0  0999 V2000
   -0.3744   -0.4731    1.5171 O   0  0  0  0  0  0  0  0  0  0  0  0
   -0.2048   -0.0152    0.3938 C   0  0  0  0  0  0  0  0  0  0  0  0
    1.1768    0.1251   -0.2096 C   0  0  0  0  0  0  0  0  0  0  0  0
    2.2043   -0.6140    0.6298 C   0  0  0  0  0  0  0  0  0  0  0  0
    2.3836   -2.0759    0.1256 C   0  0  0  0  0  0  0  0  0  0  0  0
    1.5068   -2.9186    0.0204 O   0  0  0  0  0  0  0  0  0  0  0  0
    3.7205   -2.2695   -0.2329 N   0  0  0  0  0  0  0  0  0  0  0  0
    4.3740   -1.0981   -0.0649 C   0  0  0  0  0  0  0  0  0  0  0  0
    5.5639   -0.6084   -0.2463 N   0  0  0  0  0  0  0  0  0  0  0  0
    5.3808    0.7061    0.1589 C   0  0  0  0  0  0  0  0  0  0  0  0
    4.1361    1.0321    0.5636 N   0  0  0  0  0  0  0  0  0  0  0  0
    3.5474   -0.1485    0.4131 N   0  0  0  0  0  0  0  0  0  0  0  0
   -1.1858    0.4649   -0.4525 N   0  0  0  0  0  0  0  0  0  0  0  0
   -2.5800    0.4962   -0.2268 C   0  0  0  0  0  0  0  0  0  0  0  0
   -3.2077    0.0115    0.9206 C   0  0  0  0  0  0  0  0  0  0  0  0
   -4.6009    0.0884    1.0471 C   0  0  0  0  0  0  0  0  0  0  0  0
   -5.3763    0.6481    0.0307 C   0  0  0  0  0  0  0  0  0  0  0  0
   -4.7603    1.1335   -1.1193 C   0  0  0  0  0  0  0  0  0  0  0  0
   -3.3758    1.0532   -1.2373 C   0  0  0  0  0  0  0  0  0  0  0  0
   -2.7909    1.5243   -2.3512 F   0  0  0  0  0  0  0  0  0  0  0  0
    1.4014    1.1984   -0.2445 H   0  0  0  0  0  0  0  0  0  0  0  0
    1.1598   -0.2502   -1.2402 H   0  0  0  0  0  0  0  0  0  0  0  0
    2.0294   -0.6125    1.7097 H   0  0  0  0  0  0  0  0  0  0  0  0
    4.1200   -3.1164   -0.6071 H   0  0  0  0  0  0  0  0  0  0  0  0
    6.1791    1.4385    0.1516 H   0  0  0  0  0  0  0  0  0  0  0  0
   -0.8991    0.8506   -1.3475 H   0  0  0  0  0  0  0  0  0  0  0  0
   -2.6465   -0.4355    1.7352 H   0  0  0  0  0  0  0  0  0  0  0  0
   -5.0790   -0.2940    1.9466 H   0  0  0  0  0  0  0  0  0  0  0  0
   -6.4568    0.7029    0.1376 H   0  0  0  0  0  0  0  0  0  0  0  0
   -5.3455    1.5714   -1.9213 H   0  0  0  0  0  0  0  0  0  0  0  0
  1  2  2  0
  2  3  1  0
  3  4  1  0
  4  5  1  0
  5  6  2  0
  5  7  1  0
  7  8  1  0
  8  9  2  0
  9 10  1  0
 10 11  2  0
 11 12  1  0
  2 13  1  0
 13 14  1  0
 14 15  2  0
 15 16  1  0
 16 17  2  0
 17 18  1  0
 18 19  2  0
 19 20  1  0
 12  4  1  0
 19 14  1  0
 12  8  1  0
  3 21  1  0
  3 22  1  0
  4 23  1  0
  7 24  1  0
 10 25  1  0
 13 26  1  0
 15 27  1  0
 16 28  1  0
 17 29  1  0
 18 30  1  0
M  END
$$$$
