
     RDKit          3D

 40 42  0  0  0  0  0  0  0  0999 V2000
   -3.7030    2.8084    2.4575 C   0  0  0  0  0  0  0  0  0  0  0  0
   -2.7213    2.0954    1.8905 C   0  0  0  0  0  0  0  0  0  0  0  0
   -3.0140    1.2073    0.7349 C   0  0  0  0  0  0  0  0  0  0  0  0
   -3.9306    1.4919   -0.0339 O   0  0  0  0  0  0  0  0  0  0  0  0
   -2.2011    0.0915    0.5668 N   0  0  0  0  0  0  0  0  0  0  0  0
   -1.3696   -0.4968    1.6349 C   0  0  0  0  0  0  0  0  0  0  0  0
   -0.0776   -1.1337    1.0814 C   0  0  2  0  0  0  0  0  0  0  0  0
    0.7881   -0.0521    0.6012 N   0  0  0  0  0  0  0  0  0  0  0  0
    2.1207   -0.3431    0.3355 C   0  0  0  0  0  0  0  0  0  0  0  0
    2.7126   -1.4235    0.9005 N   0  0  0  0  0  0  0  0  0  0  0  0
    4.0080   -1.6748    0.6239 C   0  0  0  0  0  0  0  0  0  0  0  0
    4.8386   -0.9816   -0.1724 N   0  0  0  0  0  0  0  0  0  0  0  0
    4.2183    0.0784   -0.7084 C   0  0  0  0  0  0  0  0  0  0  0  0
    4.8059    0.9758   -1.5574 N   0  0  0  0  0  0  0  0  0  0  0  0
    3.8962    1.9374   -1.9176 C   0  0  0  0  0  0  0  0  0  0  0  0
    2.7055    1.6465   -1.2840 C   0  0  0  0  0  0  0  0  0  0  0  0
    2.9009    0.4632   -0.5134 C   0  0  0  0  0  0  0  0  0  0  0  0
   -0.3842   -2.1409   -0.0449 C   0  0  0  0  0  0  0  0  0  0  0  0
   -1.8598   -2.1652   -0.4472 C   0  0  0  0  0  0  0  0  0  0  0  0
   -2.4550   -0.7581   -0.6123 C   0  0  2  0  0  0  0  0  0  0  0  0
   -1.9402   -0.0966   -1.8972 C   0  0  0  0  0  0  0  0  0  0  0  0
   -4.7296    2.7362    2.1079 H   0  0  0  0  0  0  0  0  0  0  0  0
   -3.4961    3.4877    3.2770 H   0  0  0  0  0  0  0  0  0  0  0  0
   -1.6974    2.2048    2.2198 H   0  0  0  0  0  0  0  0  0  0  0  0
   -1.1107    0.2409    2.3969 H   0  0  0  0  0  0  0  0  0  0  0  0
   -1.9848   -1.2528    2.1388 H   0  0  0  0  0  0  0  0  0  0  0  0
    0.4097   -1.6528    1.9166 H   0  0  0  0  0  0  0  0  0  0  0  0
    0.3633    0.5653   -0.0818 H   0  0  0  0  0  0  0  0  0  0  0  0
    4.4322   -2.5504    1.1059 H   0  0  0  0  0  0  0  0  0  0  0  0
    5.7686    0.9175   -1.8563 H   0  0  0  0  0  0  0  0  0  0  0  0
    4.1742    2.7412   -2.5866 H   0  0  0  0  0  0  0  0  0  0  0  0
    1.7935    2.2234   -1.3629 H   0  0  0  0  0  0  0  0  0  0  0  0
   -0.1052   -3.1472    0.2923 H   0  0  0  0  0  0  0  0  0  0  0  0
    0.2269   -1.9472   -0.9349 H   0  0  0  0  0  0  0  0  0  0  0  0
   -1.9836   -2.7480   -1.3677 H   0  0  0  0  0  0  0  0  0  0  0  0
   -2.4246   -2.7015    0.3270 H   0  0  0  0  0  0  0  0  0  0  0  0
   -3.5425   -0.8713   -0.7121 H   0  0  0  0  0  0  0  0  0  0  0  0
   -2.4173    0.8737   -2.0671 H   0  0  0  0  0  0  0  0  0  0  0  0
   -0.8608    0.0766   -1.8645 H   0  0  0  0  0  0  0  0  0  0  0  0
   -2.1546   -0.7258   -2.7676 H   0  0  0  0  0  0  0  0  0  0  0  0
  1  2  2  3
  2  3  1  0
  3  4  2  0
  3  5  1  0
  5  6  1  0
  6  7  1  0
  7  8  1  0
  8  9  1  0
  9 10  2  0
 10 11  1  0
 11 12  2  0
 12 13  1  0
 13 14  1  0
 14 15  1  0
 15 16  2  0
 16 17  1  0
  7 18  1  0
 18 19  1  0
 19 20  1  0
 20 21  1  0
 20  5  1  0
 17  9  1  0
 17 13  2  0
  1 22  1  0
  1 23  1  0
  2 24  1  0
  6 25  1  0
  6 26  1  0
  7 27  1  1
  8 28  1  0
 11 29  1  0
 14 30  1  0
 15 31  1  0
 16 32  1  0
 18 33  1  0
 18 34  1  0
 19 35  1  0
 19 36  1  0
 20 37  1  6
 21 38  1  0
 21 39  1  0
 21 40  1  0
M  END
$$$$
