
     RDKit          3D

 47 48  0  0  0  0  0  0  0  0999 V2000
    0.2177   -2.7916   -2.4500 C   0  0  0  0  0  0  0  0  0  0  0  0
   -0.6700   -2.4786   -1.2503 C   0  0  0  0  0  0  0  0  0  0  0  0
   -0.4288   -1.0713   -0.6882 C   0  0  0  0  0  0  0  0  0  0  0  0
    0.8354   -0.9816    0.1921 C   0  0  0  0  0  0  0  0  0  0  0  0
    1.7523   -1.7963    0.1405 O   0  0  0  0  0  0  0  0  0  0  0  0
    0.9000    0.1692    0.9608 N   0  0  0  0  0  0  0  0  0  0  0  0
    1.9327    0.3438    1.9664 C   0  0  0  0  0  0  0  0  0  0  0  0
    3.3477    0.5299    1.4102 C   0  0  0  0  0  0  0  0  0  0  0  0
    3.4670    1.6400    0.3770 C   0  0  0  0  0  0  0  0  0  0  0  0
    4.9293    1.9925    0.4823 C   0  0  0  0  0  0  0  0  0  0  0  0
    5.1776    1.8698    1.9705 C   0  0  0  0  0  0  0  0  0  0  0  0
    4.2487    0.9000    2.4765 O   0  0  0  0  0  0  0  0  0  0  0  0
   -1.6246   -0.5473    0.0501 N   0  0  0  0  0  0  0  0  0  0  0  0
   -2.4359    0.4610   -0.5723 C   0  0  0  0  0  0  0  0  0  0  0  0
   -2.6300    1.6909    0.0628 C   0  0  0  0  0  0  0  0  0  0  0  0
   -3.4175    2.6779   -0.5337 C   0  0  0  0  0  0  0  0  0  0  0  0
   -4.0143    2.4387   -1.7702 C   0  0  0  0  0  0  0  0  0  0  0  0
   -3.8211    1.2121   -2.4019 C   0  0  0  0  0  0  0  0  0  0  0  0
   -4.5600    0.9119   -3.9267 Cl  0  0  0  0  0  0  0  0  0  0  0  0
   -3.0363    0.2219   -1.8105 C   0  0  0  0  0  0  0  0  0  0  0  0
   -2.1982   -1.3197    1.4434 S   0  0  0  0  0  6  0  0  0  0  0  0
   -3.5053   -2.3571    0.8172 C   0  0  0  0  0  0  0  0  0  0  0  0
   -2.8032   -0.3239    2.3035 O   0  0  0  0  0  0  0  0  0  0  0  0
   -1.1574   -2.1852    1.9508 O   0  0  0  0  0  0  0  0  0  0  0  0
    1.2795   -2.7586   -2.1916 H   0  0  0  0  0  0  0  0  0  0  0  0
   -0.0035   -3.7951   -2.8279 H   0  0  0  0  0  0  0  0  0  0  0  0
    0.0399   -2.0801   -3.2629 H   0  0  0  0  0  0  0  0  0  0  0  0
   -1.7080   -2.5836   -1.5820 H   0  0  0  0  0  0  0  0  0  0  0  0
   -0.5038   -3.2395   -0.4791 H   0  0  0  0  0  0  0  0  0  0  0  0
   -0.2266   -0.3906   -1.5280 H   0  0  0  0  0  0  0  0  0  0  0  0
    0.0070    0.6126    1.1421 H   0  0  0  0  0  0  0  0  0  0  0  0
    1.6513    1.2167    2.5673 H   0  0  0  0  0  0  0  0  0  0  0  0
    1.9100   -0.5188    2.6429 H   0  0  0  0  0  0  0  0  0  0  0  0
    3.7229   -0.4104    0.9897 H   0  0  0  0  0  0  0  0  0  0  0  0
    3.1714    1.3232   -0.6271 H   0  0  0  0  0  0  0  0  0  0  0  0
    2.8582    2.5072    0.6605 H   0  0  0  0  0  0  0  0  0  0  0  0
    5.5305    1.2526   -0.0594 H   0  0  0  0  0  0  0  0  0  0  0  0
    5.1733    2.9829    0.0894 H   0  0  0  0  0  0  0  0  0  0  0  0
    4.9806    2.8167    2.4841 H   0  0  0  0  0  0  0  0  0  0  0  0
    6.1997    1.5556    2.1999 H   0  0  0  0  0  0  0  0  0  0  0  0
   -2.1782    1.8927    1.0316 H   0  0  0  0  0  0  0  0  0  0  0  0
   -3.5679    3.6302   -0.0301 H   0  0  0  0  0  0  0  0  0  0  0  0
   -4.6283    3.2079   -2.2320 H   0  0  0  0  0  0  0  0  0  0  0  0
   -2.9050   -0.7265   -2.3202 H   0  0  0  0  0  0  0  0  0  0  0  0
   -4.2526   -1.7381    0.3188 H   0  0  0  0  0  0  0  0  0  0  0  0
   -3.9641   -2.8596    1.6723 H   0  0  0  0  0  0  0  0  0  0  0  0
   -3.0925   -3.1045    0.1411 H   0  0  0  0  0  0  0  0  0  0  0  0
  1  2  1  0
  2  3  1  0
  3  4  1  0
  4  5  2  0
  4  6  1  0
  6  7  1  0
  7  8  1  0
  8  9  1  0
  9 10  1  0
 10 11  1  0
 11 12  1  0
  3 13  1  0
 13 14  1  0
 14 15  2  0
 15 16  1  0
 16 17  2  0
 17 18  1  0
 18 19  1  0
 18 20  2  0
 13 21  1  0
 21 22  1  0
 21 23  2  0
 21 24  2  0
 12  8  1  0
 20 14  1  0
  1 25  1  0
  1 26  1  0
  1 27  1  0
  2 28  1  0
  2 29  1  0
  3 30  1  0
  6 31  1  0
  7 32  1  0
  7 33  1  0
  8 34  1  0
  9 35  1  0
  9 36  1  0
 10 37  1  0
 10 38  1  0
 11 39  1  0
 11 40  1  0
 15 41  1  0
 16 42  1  0
 17 43  1  0
 20 44  1  0
 22 45  1  0
 22 46  1  0
 22 47  1  0
M  END
$$$$
