
     RDKit          3D

 26 28  0  0  0  0  0  0  0  0999 V2000
    4.5034   -0.7434   -0.2358 N   0  0  0  0  0  0  0  0  0  0  0  0
    3.1296   -0.5878   -0.0438 C   0  0  0  0  0  0  0  0  0  0  0  0
    2.3289   -1.6870    0.2498 C   0  0  0  0  0  0  0  0  0  0  0  0
    0.9330   -1.5666    0.3247 C   0  0  0  0  0  0  0  0  0  0  0  0
    0.2788   -0.3467    0.0728 C   0  0  0  0  0  0  0  0  0  0  0  0
    1.1017    0.7309   -0.2964 C   0  0  0  0  0  0  0  0  0  0  0  0
    2.5017    0.6100   -0.3674 C   0  0  0  0  0  0  0  0  0  0  0  0
    0.5032    2.0352   -0.6366 C   0  0  0  0  0  0  0  0  0  0  0  0
    1.1947    3.0305   -0.8050 O   0  0  0  0  0  0  0  0  0  0  0  0
   -1.0024    2.1213   -0.7726 C   0  0  0  0  0  0  0  0  0  0  0  0
   -1.5200    3.1018   -1.2897 O   0  0  0  0  0  0  0  0  0  0  0  0
   -1.8156    1.0026   -0.2594 C   0  0  0  0  0  0  0  0  0  0  0  0
   -3.2100    1.1697   -0.2072 C   0  0  0  0  0  0  0  0  0  0  0  0
   -4.0168    0.1529    0.2889 C   0  0  0  0  0  0  0  0  0  0  0  0
   -3.4314   -1.0250    0.7340 C   0  0  0  0  0  0  0  0  0  0  0  0
   -2.0415   -1.1901    0.6740 C   0  0  0  0  0  0  0  0  0  0  0  0
   -1.1929   -0.1858    0.1651 C   0  0  0  0  0  0  0  0  0  0  0  0
    4.9215   -1.4996    0.2972 H   0  0  0  0  0  0  0  0  0  0  0  0
    5.0368    0.1187   -0.1622 H   0  0  0  0  0  0  0  0  0  0  0  0
    2.7828   -2.6604    0.4233 H   0  0  0  0  0  0  0  0  0  0  0  0
    0.3799   -2.4698    0.5677 H   0  0  0  0  0  0  0  0  0  0  0  0
    3.0991    1.4640   -0.6826 H   0  0  0  0  0  0  0  0  0  0  0  0
   -3.6668    2.0975   -0.5493 H   0  0  0  0  0  0  0  0  0  0  0  0
   -5.0954    0.2822    0.3325 H   0  0  0  0  0  0  0  0  0  0  0  0
   -4.0550   -1.8233    1.1312 H   0  0  0  0  0  0  0  0  0  0  0  0
   -1.6471   -2.1318    1.0467 H   0  0  0  0  0  0  0  0  0  0  0  0
  1  2  1  0
  2  3  2  0
  3  4  1  0
  4  5  2  0
  5  6  1  0
  6  7  2  0
  6  8  1  0
  8  9  2  0
  8 10  1  0
 10 11  2  0
 10 12  1  0
 12 13  2  0
 13 14  1  0
 14 15  2  0
 15 16  1  0
 16 17  2  0
  7  2  1  0
 17 12  1  0
 17  5  1  0
  1 18  1  0
  1 19  1  0
  3 20  1  0
  4 21  1  0
  7 22  1  0
 13 23  1  0
 14 24  1  0
 15 25  1  0
 16 26  1  0
M  END
$$$$
