
     RDKit          3D

 53 56  0  0  0  0  0  0  0  0999 V2000
   -1.8993   -2.9326    1.6102 C   0  0  0  0  0  0  0  0  0  0  0  0
   -1.7398   -1.5195    1.0594 C   0  0  0  0  0  0  0  0  0  0  0  0
   -1.4670   -1.4731   -0.4642 C   0  0  0  0  0  0  0  0  0  0  0  0
   -2.6609   -2.0713   -1.2408 C   0  0  0  0  0  0  0  0  0  0  0  0
   -2.4519   -2.0054   -2.7525 C   0  0  0  0  0  0  0  0  0  0  0  0
   -2.1363   -0.5813   -3.1909 C   0  0  0  0  0  0  0  0  0  0  0  0
   -0.9508   -0.0276   -2.4076 C   0  0  0  0  0  0  0  0  0  0  0  0
   -1.2379   -0.0728   -0.9521 N   0  0  0  0  0  0  0  0  0  0  0  0
   -0.5844    0.8743   -0.1583 C   0  0  0  0  0  0  0  0  0  0  0  0
    0.6682    0.9181    0.3544 C   0  0  0  0  0  0  0  0  0  0  0  0
    1.7320   -0.0894    0.1636 C   0  0  0  0  0  0  0  0  0  0  0  0
    1.6445   -1.0058   -0.6502 O   0  0  0  0  0  0  0  0  0  0  0  0
    2.8196    0.0082    1.0272 N   0  0  0  0  0  0  0  0  0  0  0  0
    3.2603   -1.2494    1.6420 C   0  0  0  0  0  0  0  0  0  0  0  0
    4.2584   -2.0153    0.7631 C   0  0  0  0  0  0  0  0  0  0  0  0
    5.3797   -1.1790    0.4308 O   0  0  0  0  0  0  0  0  0  0  0  0
    4.9374   -0.0142   -0.2887 C   0  0  0  0  0  0  0  0  0  0  0  0
    3.9602    0.8150    0.5604 C   0  0  0  0  0  0  0  0  0  0  0  0
    0.8992    2.2990    1.3727 S   0  0  0  0  0  6  0  0  0  0  0  0
    1.8186    3.2521    0.7752 O   0  0  0  0  0  0  0  0  0  0  0  0
    0.9634    1.9352    2.7774 O   0  0  0  0  0  0  0  0  0  0  0  0
   -0.7047    2.9147    1.0883 C   0  0  0  0  0  0  0  0  0  0  0  0
   -1.2398    4.0829    1.6037 C   0  0  0  0  0  0  0  0  0  0  0  0
   -2.5493    4.3934    1.2411 C   0  0  0  0  0  0  0  0  0  0  0  0
   -3.2736    3.5389    0.3914 C   0  0  0  0  0  0  0  0  0  0  0  0
   -2.6956    2.3642   -0.1072 C   0  0  0  0  0  0  0  0  0  0  0  0
   -1.3878    2.0497    0.2452 C   0  0  0  0  0  0  0  0  0  0  0  0
   -2.8244   -3.4036    1.2620 H   0  0  0  0  0  0  0  0  0  0  0  0
   -1.0541   -3.5649    1.3177 H   0  0  0  0  0  0  0  0  0  0  0  0
   -1.9396   -2.9051    2.7057 H   0  0  0  0  0  0  0  0  0  0  0  0
   -0.9063   -1.0614    1.6049 H   0  0  0  0  0  0  0  0  0  0  0  0
   -2.6332   -0.9314    1.3052 H   0  0  0  0  0  0  0  0  0  0  0  0
   -0.5772   -2.0769   -0.6767 H   0  0  0  0  0  0  0  0  0  0  0  0
   -2.8185   -3.1203   -0.9624 H   0  0  0  0  0  0  0  0  0  0  0  0
   -3.5797   -1.5273   -0.9829 H   0  0  0  0  0  0  0  0  0  0  0  0
   -3.3500   -2.3654   -3.2678 H   0  0  0  0  0  0  0  0  0  0  0  0
   -1.6279   -2.6702   -3.0378 H   0  0  0  0  0  0  0  0  0  0  0  0
   -1.9164   -0.5624   -4.2656 H   0  0  0  0  0  0  0  0  0  0  0  0
   -3.0163    0.0533   -3.0284 H   0  0  0  0  0  0  0  0  0  0  0  0
   -0.7737    1.0075   -2.7290 H   0  0  0  0  0  0  0  0  0  0  0  0
   -0.0423   -0.5982   -2.6339 H   0  0  0  0  0  0  0  0  0  0  0  0
    3.7351   -0.9796    2.5939 H   0  0  0  0  0  0  0  0  0  0  0  0
    2.3875   -1.8772    1.8583 H   0  0  0  0  0  0  0  0  0  0  0  0
    3.7980   -2.3808   -0.1628 H   0  0  0  0  0  0  0  0  0  0  0  0
    4.6397   -2.8838    1.3104 H   0  0  0  0  0  0  0  0  0  0  0  0
    5.8224    0.5892   -0.5277 H   0  0  0  0  0  0  0  0  0  0  0  0
    4.4790   -0.3282   -1.2378 H   0  0  0  0  0  0  0  0  0  0  0  0
    4.4657    1.1861    1.4603 H   0  0  0  0  0  0  0  0  0  0  0  0
    3.6113    1.6661   -0.0338 H   0  0  0  0  0  0  0  0  0  0  0  0
   -0.6636    4.7261    2.2624 H   0  0  0  0  0  0  0  0  0  0  0  0
   -3.0152    5.3004    1.6168 H   0  0  0  0  0  0  0  0  0  0  0  0
   -4.2965    3.7908    0.1169 H   0  0  0  0  0  0  0  0  0  0  0  0
   -3.2659    1.7084   -0.7616 H   0  0  0  0  0  0  0  0  0  0  0  0
  1  2  1  0
  2  3  1  0
  3  4  1  0
  4  5  1  0
  5  6  1  0
  6  7  1  0
  7  8  1  0
  8  9  1  0
  9 10  2  0
 10 11  1  0
 11 12  2  0
 11 13  1  0
 13 14  1  0
 14 15  1  0
 15 16  1  0
 16 17  1  0
 17 18  1  0
 10 19  1  0
 19 20  2  0
 19 21  2  0
 19 22  1  0
 22 23  2  0
 23 24  1  0
 24 25  2  0
 25 26  1  0
 26 27  2  0
  8  3  1  0
 27  9  1  0
 18 13  1  0
 27 22  1  0
  1 28  1  0
  1 29  1  0
  1 30  1  0
  2 31  1  0
  2 32  1  0
  3 33  1  0
  4 34  1  0
  4 35  1  0
  5 36  1  0
  5 37  1  0
  6 38  1  0
  6 39  1  0
  7 40  1  0
  7 41  1  0
 14 42  1  0
 14 43  1  0
 15 44  1  0
 15 45  1  0
 17 46  1  0
 17 47  1  0
 18 48  1  0
 18 49  1  0
 23 50  1  0
 24 51  1  0
 25 52  1  0
 26 53  1  0
M  END
$$$$
