
     RDKit          3D

 50 53  0  0  0  0  0  0  0  0999 V2000
    7.5422   -0.9919   -1.2481 C   0  0  0  0  0  0  0  0  0  0  0  0
    6.9791   -1.4133    0.0865 C   0  0  0  0  0  0  0  0  0  0  0  0
    7.6801   -2.0444    0.8775 O   0  0  0  0  0  0  0  0  0  0  0  0
    5.6677   -1.0467    0.3680 N   0  0  0  0  0  0  0  0  0  0  0  0
    5.0603   -1.5649    1.6067 C   0  0  0  0  0  0  0  0  0  0  0  0
    4.1854   -0.5171    2.3093 C   0  0  0  0  0  0  0  0  0  0  0  0
    3.2992    0.1306    1.2968 C   0  0  0  0  0  0  0  0  0  0  0  0
    1.8844    0.9696    1.7126 S   0  0  0  0  0  0  0  0  0  0  0  0
    1.5583    1.3500    0.0761 C   0  0  0  0  0  0  0  0  0  0  0  0
    0.0827    2.2872   -0.2721 S   0  0  0  0  0  6  0  0  0  0  0  0
    0.3726    2.9517   -1.5262 O   0  0  0  0  0  0  0  0  0  0  0  0
   -0.2501    3.0446    0.9145 O   0  0  0  0  0  0  0  0  0  0  0  0
   -1.1864    1.1841   -0.5654 N   0  0  0  0  0  0  0  0  0  0  0  0
   -1.4939    0.2613    0.5814 C   0  0  0  0  0  0  0  0  0  0  0  0
   -2.8605   -0.4306    0.4165 C   0  0  0  0  0  0  0  0  0  0  0  0
   -3.9712    0.5515    0.3319 N   0  0  0  0  0  0  0  0  0  0  0  0
   -5.1739   -0.0020   -0.1245 C   0  0  0  0  0  0  0  0  0  0  0  0
   -5.8456    0.4428   -1.2733 C   0  0  0  0  0  0  0  0  0  0  0  0
   -7.0470   -0.1422   -1.6940 C   0  0  0  0  0  0  0  0  0  0  0  0
   -7.6061   -1.1896   -0.9693 C   0  0  0  0  0  0  0  0  0  0  0  0
   -6.9598   -1.6440    0.1734 C   0  0  0  0  0  0  0  0  0  0  0  0
   -7.6421   -2.9375    1.0822 Cl  0  0  0  0  0  0  0  0  0  0  0  0
   -5.7620   -1.0595    0.5911 C   0  0  0  0  0  0  0  0  0  0  0  0
   -3.5612    1.9068   -0.0927 C   0  0  0  0  0  0  0  0  0  0  0  0
   -2.4230    1.8439   -1.1238 C   0  0  0  0  0  0  0  0  0  0  0  0
    2.5339    0.8395   -0.7639 C   0  0  0  0  0  0  0  0  0  0  0  0
    3.5577    0.1330   -0.0590 C   0  0  0  0  0  0  0  0  0  0  0  0
    4.7565   -0.5341   -0.6670 C   0  0  0  0  0  0  0  0  0  0  0  0
    6.9462   -1.4070   -2.0644 H   0  0  0  0  0  0  0  0  0  0  0  0
    8.5625   -1.3760   -1.3461 H   0  0  0  0  0  0  0  0  0  0  0  0
    7.5803    0.0983   -1.3124 H   0  0  0  0  0  0  0  0  0  0  0  0
    4.4607   -2.4393    1.3221 H   0  0  0  0  0  0  0  0  0  0  0  0
    5.8264   -1.9150    2.3059 H   0  0  0  0  0  0  0  0  0  0  0  0
    4.8244    0.2502    2.7632 H   0  0  0  0  0  0  0  0  0  0  0  0
    3.6068   -0.9940    3.1079 H   0  0  0  0  0  0  0  0  0  0  0  0
   -1.4864    0.8146    1.5277 H   0  0  0  0  0  0  0  0  0  0  0  0
   -0.7181   -0.5108    0.6218 H   0  0  0  0  0  0  0  0  0  0  0  0
   -3.0146   -1.0972    1.2728 H   0  0  0  0  0  0  0  0  0  0  0  0
   -2.8339   -1.0448   -0.4940 H   0  0  0  0  0  0  0  0  0  0  0  0
   -5.4399    1.2403   -1.8881 H   0  0  0  0  0  0  0  0  0  0  0  0
   -7.5411    0.2218   -2.5913 H   0  0  0  0  0  0  0  0  0  0  0  0
   -8.5379   -1.6417   -1.2965 H   0  0  0  0  0  0  0  0  0  0  0  0
   -5.2950   -1.4168    1.5048 H   0  0  0  0  0  0  0  0  0  0  0  0
   -3.2108    2.4426    0.7989 H   0  0  0  0  0  0  0  0  0  0  0  0
   -4.3986    2.5006   -0.4737 H   0  0  0  0  0  0  0  0  0  0  0  0
   -2.7314    1.2643   -2.0023 H   0  0  0  0  0  0  0  0  0  0  0  0
   -2.2038    2.8564   -1.4787 H   0  0  0  0  0  0  0  0  0  0  0  0
    2.5040    0.9837   -1.8384 H   0  0  0  0  0  0  0  0  0  0  0  0
    4.4402   -1.3865   -1.2788 H   0  0  0  0  0  0  0  0  0  0  0  0
    5.2827    0.1776   -1.3098 H   0  0  0  0  0  0  0  0  0  0  0  0
  1  2  1  0
  2  3  2  0
  2  4  1  0
  4  5  1  0
  5  6  1  0
  6  7  1  0
  7  8  1  0
  8  9  1  0
  9 10  1  0
 10 11  2  0
 10 12  2  0
 10 13  1  0
 13 14  1  0
 14 15  1  0
 15 16  1  0
 16 17  1  0
 17 18  2  0
 18 19  1  0
 19 20  2  0
 20 21  1  0
 21 22  1  0
 21 23  2  0
 16 24  1  0
 24 25  1  0
  9 26  2  0
 26 27  1  0
 27 28  1  0
 28  4  1  0
 27  7  2  0
 25 13  1  0
 23 17  1  0
  1 29  1  0
  1 30  1  0
  1 31  1  0
  5 32  1  0
  5 33  1  0
  6 34  1  0
  6 35  1  0
 14 36  1  0
 14 37  1  0
 15 38  1  0
 15 39  1  0
 18 40  1  0
 19 41  1  0
 20 42  1  0
 23 43  1  0
 24 44  1  0
 24 45  1  0
 25 46  1  0
 25 47  1  0
 26 48  1  0
 28 49  1  0
 28 50  1  0
M  END
$$$$
