
     RDKit          3D

 50 53  0  0  0  0  0  0  0  0999 V2000
    5.1053   -3.2483    0.7169 C   0  0  0  0  0  0  0  0  0  0  0  0
    4.9750   -1.8191    0.5811 N   0  0  0  0  0  0  0  0  0  0  0  0
    6.1086   -1.0177    0.5293 C   0  0  0  0  0  0  0  0  0  0  0  0
    7.2464   -1.4773    0.5093 O   0  0  0  0  0  0  0  0  0  0  0  0
    5.8684    0.4659    0.5226 C   0  0  0  0  0  0  0  0  0  0  0  0
    4.7477    0.9994   -0.0997 C   0  0  0  0  0  0  0  0  0  0  0  0
    4.5814    2.3813   -0.0565 C   0  0  0  0  0  0  0  0  0  0  0  0
    3.5211    3.0189   -0.6600 O   0  0  0  0  0  0  0  0  0  0  0  0
    2.2641    2.5113   -0.4095 C   0  0  0  0  0  0  0  0  0  0  0  0
    1.8018    2.2928    0.8876 C   0  0  0  0  0  0  0  0  0  0  0  0
    0.5085    1.8035    1.0973 C   0  0  0  0  0  0  0  0  0  0  0  0
   -0.3326    1.5477   -0.0053 C   0  0  0  0  0  0  0  0  0  0  0  0
   -1.6239    1.0614    0.0589 N   0  0  0  0  0  0  0  0  0  0  0  0
   -2.1355    0.9512   -1.1426 C   0  0  0  0  0  0  0  0  0  0  0  0
   -3.3836    0.5111   -1.4240 N   0  0  0  0  0  0  0  0  0  0  0  0
   -4.1572   -0.1898   -0.3933 C   0  0  2  0  0  0  0  0  0  0  0  0
   -3.7111   -1.6653   -0.3452 C   0  0  0  0  0  0  0  0  0  0  0  0
   -4.8016   -2.5730    0.2072 C   0  0  0  0  0  0  0  0  0  0  0  0
   -6.0581   -2.5486   -0.6636 C   0  0  0  0  0  0  0  0  0  0  0  0
   -6.2396   -1.2414   -1.4397 C   0  0  0  0  0  0  0  0  0  0  0  0
   -5.6775   -0.0357   -0.6881 C   0  0  1  0  0  0  0  0  0  0  0  0
   -6.3995    0.1193    0.5400 O   0  0  0  0  0  0  0  0  0  0  0  0
   -1.0841    1.4086   -2.4257 S   0  0  0  0  0  0  0  0  0  0  0  0
    0.1477    1.7981   -1.2907 C   0  0  0  0  0  0  0  0  0  0  0  0
    1.4429    2.2903   -1.5191 C   0  0  0  0  0  0  0  0  0  0  0  0
    5.5398    3.1850    0.5502 C   0  0  0  0  0  0  0  0  0  0  0  0
    6.6272    2.5637    1.1343 C   0  0  0  0  0  0  0  0  0  0  0  0
    6.8077    1.2269    1.1426 N   0  0  0  0  0  0  0  0  0  0  0  0
    5.3989   -3.4780    1.7450 H   0  0  0  0  0  0  0  0  0  0  0  0
    4.1384   -3.7074    0.4977 H   0  0  0  0  0  0  0  0  0  0  0  0
    5.8649   -3.6263    0.0270 H   0  0  0  0  0  0  0  0  0  0  0  0
    4.0974   -1.4013    0.8624 H   0  0  0  0  0  0  0  0  0  0  0  0
    4.0430    0.3686   -0.6271 H   0  0  0  0  0  0  0  0  0  0  0  0
    2.4321    2.5091    1.7468 H   0  0  0  0  0  0  0  0  0  0  0  0
    0.1379    1.6262    2.1025 H   0  0  0  0  0  0  0  0  0  0  0  0
   -3.5578    0.2232   -2.3795 H   0  0  0  0  0  0  0  0  0  0  0  0
   -3.9698    0.2638    0.5894 H   0  0  0  0  0  0  0  0  0  0  0  0
   -2.8073   -1.7533    0.2705 H   0  0  0  0  0  0  0  0  0  0  0  0
   -3.4305   -2.0179   -1.3470 H   0  0  0  0  0  0  0  0  0  0  0  0
   -5.0559   -2.2536    1.2255 H   0  0  0  0  0  0  0  0  0  0  0  0
   -4.4326   -3.6017    0.2894 H   0  0  0  0  0  0  0  0  0  0  0  0
   -6.0288   -3.3784   -1.3803 H   0  0  0  0  0  0  0  0  0  0  0  0
   -6.9322   -2.7297   -0.0260 H   0  0  0  0  0  0  0  0  0  0  0  0
   -5.7408   -1.3239   -2.4131 H   0  0  0  0  0  0  0  0  0  0  0  0
   -7.3081   -1.1020   -1.6415 H   0  0  0  0  0  0  0  0  0  0  0  0
   -5.8554    0.8776   -1.2684 H   0  0  0  0  0  0  0  0  0  0  0  0
   -7.3294    0.2924    0.3122 H   0  0  0  0  0  0  0  0  0  0  0  0
    1.7983    2.4884   -2.5252 H   0  0  0  0  0  0  0  0  0  0  0  0
    5.4410    4.2647    0.5661 H   0  0  0  0  0  0  0  0  0  0  0  0
    7.4076    3.1396    1.6245 H   0  0  0  0  0  0  0  0  0  0  0  0
  1  2  1  0
  2  3  1  0
  3  4  2  0
  3  5  1  0
  5  6  2  0
  6  7  1  0
  7  8  1  0
  8  9  1  0
  9 10  2  0
 10 11  1  0
 11 12  2  0
 12 13  1  0
 13 14  2  0
 14 15  1  0
 15 16  1  0
 16 17  1  0
 17 18  1  0
 18 19  1  0
 19 20  1  0
 20 21  1  0
 21 22  1  0
 14 23  1  0
 23 24  1  0
 24 25  2  0
  7 26  2  0
 26 27  1  0
 27 28  2  0
 28  5  1  0
 25  9  1  0
 24 12  1  0
 21 16  1  0
  1 29  1  0
  1 30  1  0
  1 31  1  0
  2 32  1  0
  6 33  1  0
 10 34  1  0
 11 35  1  0
 15 36  1  0
 16 37  1  1
 17 38  1  0
 17 39  1  0
 18 40  1  0
 18 41  1  0
 19 42  1  0
 19 43  1  0
 20 44  1  0
 20 45  1  0
 21 46  1  6
 22 47  1  0
 25 48  1  0
 26 49  1  0
 27 50  1  0
M  END
$$$$
