
     RDKit          3D

 56 60  0  0  0  0  0  0  0  0999 V2000
   -8.6305   -1.3053   -0.0545 C   0  0  0  0  0  0  0  0  0  0  0  0
   -7.4492   -0.4046    0.1521 C   0  0  0  0  0  0  0  0  0  0  0  0
   -7.0239    0.4521   -0.8690 C   0  0  0  0  0  0  0  0  0  0  0  0
   -5.9416    1.3115   -0.6680 C   0  0  0  0  0  0  0  0  0  0  0  0
   -5.2747    1.3413    0.5643 C   0  0  0  0  0  0  0  0  0  0  0  0
   -4.0995    2.2622    0.7765 C   0  0  0  0  0  0  0  0  0  0  0  0
   -2.8696    1.6885    0.2574 N   0  0  0  0  0  0  0  0  0  0  0  0
   -2.4538    1.9823   -1.0023 N   0  0  0  0  0  0  0  0  0  0  0  0
   -1.3212    1.2792   -1.1173 C   0  0  0  0  0  0  0  0  0  0  0  0
   -0.9724    0.5913    0.0643 C   0  0  0  0  0  0  0  0  0  0  0  0
    0.0617   -0.2466    0.5155 C   0  0  0  0  0  0  0  0  0  0  0  0
    1.1552   -0.6013   -0.2946 N   0  0  0  0  0  0  0  0  0  0  0  0
    2.0774    0.5422   -0.4967 C   0  0  0  0  0  0  0  0  0  0  0  0
    3.1842    0.1673   -1.5076 C   0  0  0  0  0  0  0  0  0  0  0  0
    3.9193   -1.0549   -1.1062 N   0  0  0  0  0  0  0  0  0  0  0  0
    5.1069   -0.8309   -0.4057 C   0  0  0  0  0  0  0  0  0  0  0  0
    5.2234   -1.0725    0.9724 C   0  0  0  0  0  0  0  0  0  0  0  0
    6.4059   -0.8070    1.6703 C   0  0  0  0  0  0  0  0  0  0  0  0
    7.5085   -0.2949    1.0012 C   0  0  0  0  0  0  0  0  0  0  0  0
    7.4321   -0.0647   -0.3685 C   0  0  0  0  0  0  0  0  0  0  0  0
    6.2519   -0.3456   -1.0826 C   0  0  0  0  0  0  0  0  0  0  0  0
    6.2594   -0.1126   -2.5718 C   0  0  0  0  0  0  0  0  0  0  0  0
    3.0357   -2.1863   -0.7441 C   0  0  0  0  0  0  0  0  0  0  0  0
    1.8775   -1.7957    0.2040 C   0  0  0  0  0  0  0  0  0  0  0  0
   -0.0536   -0.7397    1.7784 N   0  0  0  0  0  0  0  0  0  0  0  0
   -1.1107   -0.3789    2.5342 C   0  0  0  0  0  0  0  0  0  0  0  0
   -2.1277    0.4339    2.2057 N   0  0  0  0  0  0  0  0  0  0  0  0
   -2.0032    0.8756    0.9421 C   0  0  0  0  0  0  0  0  0  0  0  0
   -5.7052    0.4856    1.5870 C   0  0  0  0  0  0  0  0  0  0  0  0
   -6.7880   -0.3734    1.3847 C   0  0  0  0  0  0  0  0  0  0  0  0
   -8.5369   -2.2164    0.5457 H   0  0  0  0  0  0  0  0  0  0  0  0
   -8.7081   -1.6139   -1.1023 H   0  0  0  0  0  0  0  0  0  0  0  0
   -9.5508   -0.7865    0.2308 H   0  0  0  0  0  0  0  0  0  0  0  0
   -7.5284    0.4513   -1.8327 H   0  0  0  0  0  0  0  0  0  0  0  0
   -5.6148    1.9545   -1.4838 H   0  0  0  0  0  0  0  0  0  0  0  0
   -3.9513    2.4805    1.8404 H   0  0  0  0  0  0  0  0  0  0  0  0
   -4.2642    3.2236    0.2756 H   0  0  0  0  0  0  0  0  0  0  0  0
   -0.7851    1.3001   -2.0570 H   0  0  0  0  0  0  0  0  0  0  0  0
    1.5455    1.4150   -0.8916 H   0  0  0  0  0  0  0  0  0  0  0  0
    2.5322    0.8329    0.4598 H   0  0  0  0  0  0  0  0  0  0  0  0
    2.7232   -0.0275   -2.4843 H   0  0  0  0  0  0  0  0  0  0  0  0
    3.8493    1.0280   -1.6404 H   0  0  0  0  0  0  0  0  0  0  0  0
    4.3869   -1.4557    1.5444 H   0  0  0  0  0  0  0  0  0  0  0  0
    6.4574   -0.9969    2.7390 H   0  0  0  0  0  0  0  0  0  0  0  0
    8.4274   -0.0831    1.5405 H   0  0  0  0  0  0  0  0  0  0  0  0
    8.3055    0.3231   -0.8882 H   0  0  0  0  0  0  0  0  0  0  0  0
    5.6324   -0.8411   -3.0954 H   0  0  0  0  0  0  0  0  0  0  0  0
    5.9088    0.8985   -2.7988 H   0  0  0  0  0  0  0  0  0  0  0  0
    7.2707   -0.2252   -2.9782 H   0  0  0  0  0  0  0  0  0  0  0  0
    3.6091   -3.0209   -0.3226 H   0  0  0  0  0  0  0  0  0  0  0  0
    2.5987   -2.5610   -1.6788 H   0  0  0  0  0  0  0  0  0  0  0  0
    2.2725   -1.6096    1.2089 H   0  0  0  0  0  0  0  0  0  0  0  0
    1.1897   -2.6485    0.2685 H   0  0  0  0  0  0  0  0  0  0  0  0
   -1.1405   -0.7990    3.5352 H   0  0  0  0  0  0  0  0  0  0  0  0
   -5.1956    0.4770    2.5489 H   0  0  0  0  0  0  0  0  0  0  0  0
   -7.1079   -1.0241    2.1955 H   0  0  0  0  0  0  0  0  0  0  0  0
  1  2  1  0
  2  3  2  0
  3  4  1  0
  4  5  2  0
  5  6  1  0
  6  7  1  0
  7  8  1  0
  8  9  2  0
  9 10  1  0
 10 11  2  0
 11 12  1  0
 12 13  1  0
 13 14  1  0
 14 15  1  0
 15 16  1  0
 16 17  2  0
 17 18  1  0
 18 19  2  0
 19 20  1  0
 20 21  2  0
 21 22  1  0
 15 23  1  0
 23 24  1  0
 11 25  1  0
 25 26  2  0
 26 27  1  0
 27 28  2  0
  5 29  1  0
 29 30  2  0
 30  2  1  0
 28  7  1  0
 28 10  1  0
 24 12  1  0
 21 16  1  0
  1 31  1  0
  1 32  1  0
  1 33  1  0
  3 34  1  0
  4 35  1  0
  6 36  1  0
  6 37  1  0
  9 38  1  0
 13 39  1  0
 13 40  1  0
 14 41  1  0
 14 42  1  0
 17 43  1  0
 18 44  1  0
 19 45  1  0
 20 46  1  0
 22 47  1  0
 22 48  1  0
 22 49  1  0
 23 50  1  0
 23 51  1  0
 24 52  1  0
 24 53  1  0
 26 54  1  0
 29 55  1  0
 30 56  1  0
M  END
$$$$
