
     RDKit          3D

 48 51  0  0  0  0  0  0  0  0999 V2000
   -4.7837    2.6946   -1.1338 C   0  0  0  0  0  0  0  0  0  0  0  0
   -3.8233    1.9962   -1.3158 C   0  0  0  0  0  0  0  0  0  0  0  0
   -2.6404    1.1530   -1.5486 C   0  0  0  0  0  0  0  0  0  0  0  0
   -1.6588    1.9198   -2.2518 O   0  0  0  0  0  0  0  0  0  0  0  0
   -2.9604   -0.0609   -2.4198 C   0  0  0  0  0  0  0  0  0  0  0  0
   -1.8061   -1.0343   -2.1708 C   0  0  0  0  0  0  0  0  0  0  0  0
   -1.1292   -0.6168   -0.8393 C   0  0  0  0  0  0  0  0  0  0  0  0
    0.3772   -0.2737   -1.0457 C   0  0  0  0  0  0  0  0  0  0  0  0
    1.1792   -1.5705   -1.3077 C   0  0  0  0  0  0  0  0  0  0  0  0
    1.5349   -2.2931   -0.0088 C   0  0  0  0  0  0  0  0  0  0  0  0
    2.3973   -1.4308    0.8726 C   0  0  0  0  0  0  0  0  0  0  0  0
    3.1821   -1.9886    1.8109 C   0  0  0  0  0  0  0  0  0  0  0  0
    4.1483   -1.1734    2.5879 C   0  0  0  0  0  0  0  0  0  0  0  0
    4.8386   -1.7127    3.4493 O   0  0  0  0  0  0  0  0  0  0  0  0
    4.3027    0.2843    2.2245 C   0  0  0  0  0  0  0  0  0  0  0  0
    2.9701    0.8575    1.7623 C   0  0  0  0  0  0  0  0  0  0  0  0
    2.3934    0.0561    0.5803 C   0  0  0  0  0  0  0  0  0  0  0  0
    1.0121    0.5876    0.0928 C   0  0  0  0  0  0  0  0  0  0  0  0
    0.0048    0.8937    1.2107 C   0  0  0  0  0  0  0  0  0  0  0  0
   -1.2534    1.5158    0.6125 C   0  0  0  0  0  0  0  0  0  0  0  0
   -2.0297    0.5180   -0.2659 C   0  0  0  0  0  0  0  0  0  0  0  0
   -3.1153   -0.1490    0.6286 C   0  0  0  0  0  0  0  0  0  0  0  0
   -5.6384    3.3115   -0.9758 H   0  0  0  0  0  0  0  0  0  0  0  0
   -1.7425    2.8407   -1.9514 H   0  0  0  0  0  0  0  0  0  0  0  0
   -3.0252    0.1913   -3.4847 H   0  0  0  0  0  0  0  0  0  0  0  0
   -3.9102   -0.5311   -2.1382 H   0  0  0  0  0  0  0  0  0  0  0  0
   -1.1075   -0.9996   -3.0141 H   0  0  0  0  0  0  0  0  0  0  0  0
   -2.1832   -2.0615   -2.1114 H   0  0  0  0  0  0  0  0  0  0  0  0
   -1.1765   -1.4761   -0.1582 H   0  0  0  0  0  0  0  0  0  0  0  0
    0.4548    0.3240   -1.9648 H   0  0  0  0  0  0  0  0  0  0  0  0
    2.0993   -1.3212   -1.8531 H   0  0  0  0  0  0  0  0  0  0  0  0
    0.6224   -2.2525   -1.9600 H   0  0  0  0  0  0  0  0  0  0  0  0
    0.6257   -2.5701    0.5357 H   0  0  0  0  0  0  0  0  0  0  0  0
    2.0599   -3.2236   -0.2574 H   0  0  0  0  0  0  0  0  0  0  0  0
    3.1943   -3.0538    2.0130 H   0  0  0  0  0  0  0  0  0  0  0  0
    4.6461    0.8312    3.1092 H   0  0  0  0  0  0  0  0  0  0  0  0
    5.0653    0.3707    1.4433 H   0  0  0  0  0  0  0  0  0  0  0  0
    3.0980    1.9081    1.4772 H   0  0  0  0  0  0  0  0  0  0  0  0
    2.2840    0.8312    2.6174 H   0  0  0  0  0  0  0  0  0  0  0  0
    3.0885    0.1970   -0.2622 H   0  0  0  0  0  0  0  0  0  0  0  0
    1.2373    1.5637   -0.3662 H   0  0  0  0  0  0  0  0  0  0  0  0
    0.4218    1.6234    1.9124 H   0  0  0  0  0  0  0  0  0  0  0  0
   -0.2343   -0.0083    1.7853 H   0  0  0  0  0  0  0  0  0  0  0  0
   -0.9598    2.4081    0.0483 H   0  0  0  0  0  0  0  0  0  0  0  0
   -1.8901    1.8909    1.4238 H   0  0  0  0  0  0  0  0  0  0  0  0
   -3.6922   -0.9091    0.0926 H   0  0  0  0  0  0  0  0  0  0  0  0
   -2.6553   -0.6461    1.4910 H   0  0  0  0  0  0  0  0  0  0  0  0
   -3.8223    0.5881    1.0242 H   0  0  0  0  0  0  0  0  0  0  0  0
  1  2  3  0
  2  3  1  0
  3  4  1  0
  3  5  1  0
  5  6  1  0
  6  7  1  0
  7  8  1  0
  8  9  1  0
  9 10  1  0
 10 11  1  0
 11 12  2  0
 12 13  1  0
 13 14  2  0
 13 15  1  0
 15 16  1  0
 16 17  1  0
 17 18  1  0
 18 19  1  0
 19 20  1  0
 20 21  1  0
 21 22  1  0
 21  3  1  0
 21  7  1  0
 18  8  1  0
 17 11  1  0
  1 23  1  0
  4 24  1  0
  5 25  1  0
  5 26  1  0
  6 27  1  0
  6 28  1  0
  7 29  1  0
  8 30  1  0
  9 31  1  0
  9 32  1  0
 10 33  1  0
 10 34  1  0
 12 35  1  0
 15 36  1  0
 15 37  1  0
 16 38  1  0
 16 39  1  0
 17 40  1  0
 18 41  1  0
 19 42  1  0
 19 43  1  0
 20 44  1  0
 20 45  1  0
 22 46  1  0
 22 47  1  0
 22 48  1  0
M  END
$$$$
