
     RDKit          3D

 35 36  0  0  0  0  0  0  0  0999 V2000
    5.7527    0.2340    1.3117 C   0  0  0  0  0  0  0  0  0  0  0  0
    4.7675   -0.7619    1.5522 O   0  0  0  0  0  0  0  0  0  0  0  0
    3.7098   -0.8398    0.6855 C   0  0  0  0  0  0  0  0  0  0  0  0
    3.5019    0.0435   -0.3818 C   0  0  0  0  0  0  0  0  0  0  0  0
    2.3907   -0.0998   -1.2187 C   0  0  0  0  0  0  0  0  0  0  0  0
    1.4761   -1.1283   -0.9859 C   0  0  0  0  0  0  0  0  0  0  0  0
    0.0777   -1.3101   -2.0630 S   0  0  0  0  0  6  0  0  0  0  0  0
    0.4905   -0.8892   -3.3831 O   0  0  0  0  0  0  0  0  0  0  0  0
   -0.5275   -2.6011   -1.8249 O   0  0  0  0  0  0  0  0  0  0  0  0
   -0.9485   -0.1251   -1.4774 N   0  0  0  0  0  0  0  0  0  0  0  0
   -1.8610   -0.4668   -0.3738 C   0  0  0  0  0  0  0  0  0  0  0  0
   -2.5244    0.8157    0.1345 C   0  0  0  0  0  0  0  0  0  0  0  0
   -3.4907    0.5787    1.2822 C   0  0  0  0  0  0  0  0  0  0  0  0
   -4.4178    1.7603    1.1450 C   0  0  0  0  0  0  0  0  0  0  0  0
   -4.5370    1.8947   -0.3583 C   0  0  0  0  0  0  0  0  0  0  0  0
   -3.3018    1.4252   -0.9206 O   0  0  0  0  0  0  0  0  0  0  0  0
    1.6687   -2.0280    0.0623 C   0  0  0  0  0  0  0  0  0  0  0  0
    2.7808   -1.8757    0.8970 C   0  0  0  0  0  0  0  0  0  0  0  0
    2.9968   -3.2556    2.4677 I   0  0  0  0  0  0  0  0  0  0  0  0
    5.3286    1.2387    1.4091 H   0  0  0  0  0  0  0  0  0  0  0  0
    6.5297    0.1262    2.0746 H   0  0  0  0  0  0  0  0  0  0  0  0
    6.2254    0.0953    0.3338 H   0  0  0  0  0  0  0  0  0  0  0  0
    4.1876    0.8583   -0.5926 H   0  0  0  0  0  0  0  0  0  0  0  0
    2.2447    0.5917   -2.0465 H   0  0  0  0  0  0  0  0  0  0  0  0
   -1.3483    0.4650   -2.2114 H   0  0  0  0  0  0  0  0  0  0  0  0
   -1.3134   -0.9527    0.4394 H   0  0  0  0  0  0  0  0  0  0  0  0
   -2.6268   -1.1483   -0.7610 H   0  0  0  0  0  0  0  0  0  0  0  0
   -1.7602    1.5474    0.4264 H   0  0  0  0  0  0  0  0  0  0  0  0
   -2.9917    0.5283    2.2538 H   0  0  0  0  0  0  0  0  0  0  0  0
   -4.0548   -0.3505    1.1363 H   0  0  0  0  0  0  0  0  0  0  0  0
   -5.3831    1.6222    1.6388 H   0  0  0  0  0  0  0  0  0  0  0  0
   -3.9432    2.6555    1.5642 H   0  0  0  0  0  0  0  0  0  0  0  0
   -5.3411    1.2628   -0.7500 H   0  0  0  0  0  0  0  0  0  0  0  0
   -4.7174    2.9258   -0.6748 H   0  0  0  0  0  0  0  0  0  0  0  0
    0.9595   -2.8365    0.2238 H   0  0  0  0  0  0  0  0  0  0  0  0
  1  2  1  0
  2  3  1  0
  3  4  2  0
  4  5  1  0
  5  6  2  0
  6  7  1  0
  7  8  2  0
  7  9  2  0
  7 10  1  0
 10 11  1  0
 11 12  1  0
 12 13  1  0
 13 14  1  0
 14 15  1  0
 15 16  1  0
  6 17  1  0
 17 18  2  0
 18 19  1  0
 18  3  1  0
 16 12  1  0
  1 20  1  0
  1 21  1  0
  1 22  1  0
  4 23  1  0
  5 24  1  0
 10 25  1  0
 11 26  1  0
 11 27  1  0
 12 28  1  0
 13 29  1  0
 13 30  1  0
 14 31  1  0
 14 32  1  0
 15 33  1  0
 15 34  1  0
 17 35  1  0
M  END
$$$$
