
     RDKit          3D

 25 25  0  0  0  0  0  0  0  0999 V2000
   -3.4998   -0.3458   -1.3914 N   0  0  0  0  0  0  0  0  0  0  0  0
   -3.2384    0.5870   -0.2940 C   0  0  0  0  0  0  0  0  0  0  0  0
   -2.2894    0.0091    0.7664 C   0  0  0  0  0  0  0  0  0  0  0  0
   -0.8314    0.0470    0.3663 C   0  0  0  0  0  0  0  0  0  0  0  0
   -0.3157   -0.8950   -0.5363 C   0  0  0  0  0  0  0  0  0  0  0  0
    1.0267   -0.8562   -0.9164 C   0  0  0  0  0  0  0  0  0  0  0  0
    1.8613    0.1273   -0.3831 C   0  0  0  0  0  0  0  0  0  0  0  0
    3.5676    0.1882   -0.8559 S   0  0  0  0  0  6  0  0  0  0  0  0
    4.2860   -0.7102    0.3764 N   0  0  0  0  0  0  0  0  0  0  0  0
    4.0307    1.5503   -0.7388 O   0  0  0  0  0  0  0  0  0  0  0  0
    3.7452   -0.5939   -2.0578 O   0  0  0  0  0  0  0  0  0  0  0  0
    1.3629    1.0826    0.5057 C   0  0  0  0  0  0  0  0  0  0  0  0
    0.0187    1.0388    0.8792 C   0  0  0  0  0  0  0  0  0  0  0  0
   -4.1257    0.0956   -2.0644 H   0  0  0  0  0  0  0  0  0  0  0  0
   -3.9934   -1.1636   -1.0366 H   0  0  0  0  0  0  0  0  0  0  0  0
   -4.1975    0.8234    0.1808 H   0  0  0  0  0  0  0  0  0  0  0  0
   -2.8364    1.5213   -0.7015 H   0  0  0  0  0  0  0  0  0  0  0  0
   -2.5708   -1.0207    1.0227 H   0  0  0  0  0  0  0  0  0  0  0  0
   -2.4160    0.5837    1.6933 H   0  0  0  0  0  0  0  0  0  0  0  0
   -0.9688   -1.6547   -0.9628 H   0  0  0  0  0  0  0  0  0  0  0  0
    1.4034   -1.5853   -1.6302 H   0  0  0  0  0  0  0  0  0  0  0  0
    4.6928   -1.5540   -0.0309 H   0  0  0  0  0  0  0  0  0  0  0  0
    3.6425   -0.9277    1.1365 H   0  0  0  0  0  0  0  0  0  0  0  0
    2.0089    1.8633    0.9027 H   0  0  0  0  0  0  0  0  0  0  0  0
   -0.3637    1.7895    1.5679 H   0  0  0  0  0  0  0  0  0  0  0  0
  1  2  1  0
  2  3  1  0
  3  4  1  0
  4  5  2  0
  5  6  1  0
  6  7  2  0
  7  8  1  0
  8  9  1  0
  8 10  2  0
  8 11  2  0
  7 12  1  0
 12 13  2  0
 13  4  1  0
  1 14  1  0
  1 15  1  0
  2 16  1  0
  2 17  1  0
  3 18  1  0
  3 19  1  0
  5 20  1  0
  6 21  1  0
  9 22  1  0
  9 23  1  0
 12 24  1  0
 13 25  1  0
M  END
$$$$
