
     RDKit          3D

 53 56  0  0  0  0  0  0  0  0999 V2000
   -3.1094   -0.6152   -3.9735 C   0  0  0  0  0  0  0  0  0  0  0  0
   -1.6349   -0.4466   -3.6383 C   0  0  0  0  0  0  0  0  0  0  0  0
   -1.2606   -1.0123   -2.2685 C   0  0  0  0  0  0  0  0  0  0  0  0
   -1.8437   -0.2861   -1.1515 N   0  0  0  0  0  0  0  0  0  0  0  0
   -2.9653   -0.6868   -0.4666 C   0  0  0  0  0  0  0  0  0  0  0  0
   -3.2808    0.2854    0.4620 C   0  0  0  0  0  0  0  0  0  0  0  0
   -4.4471    0.2342    1.3298 C   0  0  0  0  0  0  0  0  0  0  0  0
   -5.1446    1.4036    1.6364 C   0  0  0  0  0  0  0  0  0  0  0  0
   -6.2465    1.3162    2.4715 C   0  0  0  0  0  0  0  0  0  0  0  0
   -6.6881    0.1625    3.0157 N   0  0  0  0  0  0  0  0  0  0  0  0
   -5.9974   -0.9549    2.7067 C   0  0  0  0  0  0  0  0  0  0  0  0
   -4.8866   -0.9717    1.8791 C   0  0  0  0  0  0  0  0  0  0  0  0
   -2.2861    1.2931    0.3423 C   0  0  0  0  0  0  0  0  0  0  0  0
   -1.3755    0.8976   -0.6245 C   0  0  0  0  0  0  0  0  0  0  0  0
   -0.1920    1.6011   -1.0639 C   0  0  0  0  0  0  0  0  0  0  0  0
   -0.2587    2.5421   -1.8504 O   0  0  0  0  0  0  0  0  0  0  0  0
    1.0220    1.1435   -0.5655 N   0  0  0  0  0  0  0  0  0  0  0  0
    2.2576    1.7567   -1.0583 C   0  0  0  0  0  0  0  0  0  0  0  0
    3.4859    0.8561   -0.8553 C   0  0  0  0  0  0  0  0  0  0  0  0
    3.6478    0.5077    0.5660 N   0  0  0  0  0  0  0  0  0  0  0  0
    4.7769   -0.2428    0.8784 C   0  0  0  0  0  0  0  0  0  0  0  0
    5.1302   -0.4953    2.2062 C   0  0  0  0  0  0  0  0  0  0  0  0
    6.2743   -1.2368    2.5017 C   0  0  0  0  0  0  0  0  0  0  0  0
    7.0607   -1.7072    1.4630 C   0  0  0  0  0  0  0  0  0  0  0  0
    6.6660   -1.4068    0.1747 C   0  0  0  0  0  0  0  0  0  0  0  0
    5.5589   -0.6921   -0.1295 N   0  0  0  0  0  0  0  0  0  0  0  0
    2.4184    0.3070    1.3498 C   0  0  0  0  0  0  0  0  0  0  0  0
    1.1778    0.1013    0.4584 C   0  0  0  0  0  0  0  0  0  0  0  0
   -3.7416   -0.0197   -3.3091 H   0  0  0  0  0  0  0  0  0  0  0  0
   -3.3031   -0.2835   -4.9991 H   0  0  0  0  0  0  0  0  0  0  0  0
   -3.4131   -1.6629   -3.8943 H   0  0  0  0  0  0  0  0  0  0  0  0
   -1.0449   -0.9679   -4.4008 H   0  0  0  0  0  0  0  0  0  0  0  0
   -1.3709    0.6143   -3.7027 H   0  0  0  0  0  0  0  0  0  0  0  0
   -0.1726   -0.9924   -2.1405 H   0  0  0  0  0  0  0  0  0  0  0  0
   -1.5710   -2.0605   -2.1835 H   0  0  0  0  0  0  0  0  0  0  0  0
   -3.4721   -1.6068   -0.7313 H   0  0  0  0  0  0  0  0  0  0  0  0
   -4.8529    2.3646    1.2274 H   0  0  0  0  0  0  0  0  0  0  0  0
   -6.8222    2.2010    2.7294 H   0  0  0  0  0  0  0  0  0  0  0  0
   -6.3701   -1.8692    3.1590 H   0  0  0  0  0  0  0  0  0  0  0  0
   -4.3749   -1.9071    1.6835 H   0  0  0  0  0  0  0  0  0  0  0  0
   -2.2179    2.2099    0.9138 H   0  0  0  0  0  0  0  0  0  0  0  0
    2.3850    2.6983   -0.5107 H   0  0  0  0  0  0  0  0  0  0  0  0
    2.1461    2.0030   -2.1202 H   0  0  0  0  0  0  0  0  0  0  0  0
    4.3706    1.3911   -1.2200 H   0  0  0  0  0  0  0  0  0  0  0  0
    3.3614   -0.0546   -1.4548 H   0  0  0  0  0  0  0  0  0  0  0  0
    4.5386   -0.0936    3.0212 H   0  0  0  0  0  0  0  0  0  0  0  0
    6.5500   -1.4300    3.5342 H   0  0  0  0  0  0  0  0  0  0  0  0
    7.9599   -2.2816    1.6507 H   0  0  0  0  0  0  0  0  0  0  0  0
    7.2470   -1.7388   -0.6807 H   0  0  0  0  0  0  0  0  0  0  0  0
    2.4872   -0.5570    2.0212 H   0  0  0  0  0  0  0  0  0  0  0  0
    2.2681    1.1968    1.9725 H   0  0  0  0  0  0  0  0  0  0  0  0
    0.2892    0.0448    1.0928 H   0  0  0  0  0  0  0  0  0  0  0  0
    1.2653   -0.8518   -0.0765 H   0  0  0  0  0  0  0  0  0  0  0  0
  1  2  1  0
  2  3  1  0
  3  4  1  0
  4  5  1  0
  5  6  2  0
  6  7  1  0
  7  8  2  0
  8  9  1  0
  9 10  2  0
 10 11  1  0
 11 12  2  0
  6 13  1  0
 13 14  2  0
 14 15  1  0
 15 16  2  0
 15 17  1  0
 17 18  1  0
 18 19  1  0
 19 20  1  0
 20 21  1  0
 21 22  2  0
 22 23  1  0
 23 24  2  0
 24 25  1  0
 25 26  2  0
 20 27  1  0
 27 28  1  0
 14  4  1  0
 28 17  1  0
 12  7  1  0
 26 21  1  0
  1 29  1  0
  1 30  1  0
  1 31  1  0
  2 32  1  0
  2 33  1  0
  3 34  1  0
  3 35  1  0
  5 36  1  0
  8 37  1  0
  9 38  1  0
 11 39  1  0
 12 40  1  0
 13 41  1  0
 18 42  1  0
 18 43  1  0
 19 44  1  0
 19 45  1  0
 22 46  1  0
 23 47  1  0
 24 48  1  0
 25 49  1  0
 27 50  1  0
 27 51  1  0
 28 52  1  0
 28 53  1  0
M  END
$$$$
