
     RDKit          3D

 65 68  0  0  0  0  0  0  0  0999 V2000
    1.0384   -0.4197   -0.0991 C   0  0  0  0  0  0  0  0  0  0  0  0
   -0.3827    0.5895    0.2514 S   0  0  0  0  0  6  0  0  0  0  0  0
   -0.8799    0.2755    1.5743 O   0  0  0  0  0  0  0  0  0  0  0  0
   -0.1422    1.9448   -0.1938 O   0  0  0  0  0  0  0  0  0  0  0  0
   -1.4124   -0.1095   -0.7813 O   0  0  0  0  0  0  0  0  0  0  0  0
   -1.7908   -3.3116   -0.0440 C   0  0  0  0  0  0  0  0  0  0  0  0
   -2.3873   -2.0376    0.2905 N   0  0  0  0  0  0  0  0  0  0  0  0
   -1.7446   -1.0323    0.9626 C   0  0  0  0  0  0  0  0  0  0  0  0
   -2.6146    0.0320    1.0715 C   0  0  0  0  0  0  0  0  0  0  0  0
   -2.2919    1.2765    1.6836 C   0  0  0  0  0  0  0  0  0  0  0  0
   -1.1948    2.0434    1.5426 C   0  0  0  0  0  0  0  0  0  0  0  0
   -0.0486    1.8509    0.7208 C   0  0  0  0  0  0  0  0  0  0  0  0
    1.2464    1.8866    1.1887 C   0  0  0  0  0  0  0  0  0  0  0  0
    2.0877    1.6003    0.1457 N   0  0  0  0  0  0  0  0  0  0  0  0
    3.5287    1.4601    0.2907 C   0  0  0  0  0  0  0  0  0  0  0  0
    3.9488    0.0852    0.8213 C   0  0  0  0  0  0  0  0  0  0  0  0
    3.6584   -1.0338   -0.1801 C   0  0  0  0  0  0  0  0  0  0  0  0
    4.1916   -2.6598    0.4289 S   0  0  0  0  0  0  0  0  0  0  0  0
    5.8569   -2.5998   -0.0699 C   0  0  0  0  0  0  0  0  0  0  0  0
    6.7044   -1.9361    0.6236 N   0  0  0  0  0  0  0  0  0  0  0  0
    6.1563   -3.3015   -1.1844 N   0  0  0  0  0  0  0  0  0  0  0  0
    1.3652    1.4474   -1.0209 C   0  0  0  0  0  0  0  0  0  0  0  0
    1.7757    1.1803   -2.3374 C   0  0  0  0  0  0  0  0  0  0  0  0
    0.7976    1.0565   -3.3290 C   0  0  0  0  0  0  0  0  0  0  0  0
   -0.5495    1.1917   -3.0208 C   0  0  0  0  0  0  0  0  0  0  0  0
   -0.9527    1.4577   -1.7070 C   0  0  0  0  0  0  0  0  0  0  0  0
    0.0122    1.5872   -0.6830 C   0  0  0  0  0  0  0  0  0  0  0  0
   -1.3470    3.2025    2.4581 C   0  0  0  0  0  0  0  0  0  0  0  0
   -0.5470    4.1068    2.6404 O   0  0  0  0  0  0  0  0  0  0  0  0
   -2.5402    3.0803    3.0675 N   0  0  0  0  0  0  0  0  0  0  0  0
   -3.1547    1.9381    2.6896 C   0  0  0  0  0  0  0  0  0  0  0  0
   -4.2159    1.5337    3.1250 O   0  0  0  0  0  0  0  0  0  0  0  0
   -3.8415   -0.3528    0.4474 C   0  0  0  0  0  0  0  0  0  0  0  0
   -5.0817    0.2836    0.2275 C   0  0  0  0  0  0  0  0  0  0  0  0
   -6.1039   -0.3906   -0.4518 C   0  0  0  0  0  0  0  0  0  0  0  0
   -5.9067   -1.6856   -0.9190 C   0  0  0  0  0  0  0  0  0  0  0  0
   -4.6893   -2.3399   -0.7203 C   0  0  0  0  0  0  0  0  0  0  0  0
   -3.6700   -1.6546   -0.0373 C   0  0  0  0  0  0  0  0  0  0  0  0
    1.3232   -0.2781   -1.1435 H   0  0  0  0  0  0  0  0  0  0  0  0
    0.7877   -1.4642    0.0967 H   0  0  0  0  0  0  0  0  0  0  0  0
    1.8489   -0.0996    0.5587 H   0  0  0  0  0  0  0  0  0  0  0  0
   -2.1810   -0.4387   -0.2633 H   0  0  0  0  0  0  0  0  0  0  0  0
   -2.3216   -4.0926    0.5032 H   0  0  0  0  0  0  0  0  0  0  0  0
   -1.8793   -3.4661   -1.1218 H   0  0  0  0  0  0  0  0  0  0  0  0
   -0.7352   -3.3036    0.2386 H   0  0  0  0  0  0  0  0  0  0  0  0
   -0.7210   -1.1533    1.2952 H   0  0  0  0  0  0  0  0  0  0  0  0
    1.6336    2.0735    2.1819 H   0  0  0  0  0  0  0  0  0  0  0  0
    3.8545    2.2401    0.9898 H   0  0  0  0  0  0  0  0  0  0  0  0
    4.0021    1.6813   -0.6718 H   0  0  0  0  0  0  0  0  0  0  0  0
    5.0230    0.1306    1.0425 H   0  0  0  0  0  0  0  0  0  0  0  0
    3.4327   -0.1198    1.7705 H   0  0  0  0  0  0  0  0  0  0  0  0
    2.5804   -1.1126   -0.3543 H   0  0  0  0  0  0  0  0  0  0  0  0
    4.1358   -0.8295   -1.1458 H   0  0  0  0  0  0  0  0  0  0  0  0
    7.6242   -1.9994    0.1826 H   0  0  0  0  0  0  0  0  0  0  0  0
    7.1000   -3.6634   -1.2275 H   0  0  0  0  0  0  0  0  0  0  0  0
    5.4644   -4.0068   -1.4036 H   0  0  0  0  0  0  0  0  0  0  0  0
    2.8229    1.0670   -2.5959 H   0  0  0  0  0  0  0  0  0  0  0  0
    1.0968    0.8516   -4.3544 H   0  0  0  0  0  0  0  0  0  0  0  0
   -1.3004    1.0914   -3.8020 H   0  0  0  0  0  0  0  0  0  0  0  0
   -2.0108    1.5578   -1.4831 H   0  0  0  0  0  0  0  0  0  0  0  0
   -2.8871    3.7050    3.7728 H   0  0  0  0  0  0  0  0  0  0  0  0
   -5.2546    1.2908    0.5927 H   0  0  0  0  0  0  0  0  0  0  0  0
   -7.0600    0.1041   -0.6059 H   0  0  0  0  0  0  0  0  0  0  0  0
   -6.7093   -2.2010   -1.4424 H   0  0  0  0  0  0  0  0  0  0  0  0
   -4.5485   -3.3525   -1.0822 H   0  0  0  0  0  0  0  0  0  0  0  0
  1  2  1  0
  2  3  2  0
  2  4  2  0
  2  5  1  0
  6  7  1  0
  7  8  1  0
  8  9  2  0
  9 10  1  0
 10 11  2  0
 11 12  1  0
 12 13  2  0
 13 14  1  0
 14 15  1  0
 15 16  1  0
 16 17  1  0
 17 18  1  0
 18 19  1  0
 19 20  2  3
 19 21  1  0
 14 22  1  0
 22 23  2  0
 23 24  1  0
 24 25  2  0
 25 26  1  0
 26 27  2  0
 11 28  1  0
 28 29  2  0
 28 30  1  0
 30 31  1  0
 31 32  2  0
  9 33  1  0
 33 34  2  0
 34 35  1  0
 35 36  2  0
 36 37  1  0
 37 38  2  0
 38  7  1  0
 31 10  1  0
 38 33  1  0
 27 12  1  0
 27 22  1  0
  1 39  1  0
  1 40  1  0
  1 41  1  0
  5 42  1  0
  6 43  1  0
  6 44  1  0
  6 45  1  0
  8 46  1  0
 13 47  1  0
 15 48  1  0
 15 49  1  0
 16 50  1  0
 16 51  1  0
 17 52  1  0
 17 53  1  0
 20 54  1  0
 21 55  1  0
 21 56  1  0
 23 57  1  0
 24 58  1  0
 25 59  1  0
 26 60  1  0
 30 61  1  0
 34 62  1  0
 35 63  1  0
 36 64  1  0
 37 65  1  0
M  END
$$$$
