
     RDKit          3D

 93 94  0  0  0  0  0  0  0  0999 V2000
    1.0410    1.3551    0.4575 O   0  0  0  0  0  0  0  0  0  0  0  0
    0.5519    0.2976    0.0790 C   0  0  0  0  0  0  0  0  0  0  0  0
    1.3863   -0.7140   -0.2771 O   0  0  0  0  0  0  0  0  0  0  0  0
   -0.9364   -0.0561   -0.0069 C   0  0  0  0  0  0  0  0  0  0  0  0
   -1.2445   -0.7694   -1.1273 F   0  0  0  0  0  0  0  0  0  0  0  0
   -1.3453   -0.8115    1.0518 F   0  0  0  0  0  0  0  0  0  0  0  0
   -1.7401    1.0441   -0.0244 F   0  0  0  0  0  0  0  0  0  0  0  0
    1.0011   -0.8616    1.1781 O   0  0  0  0  0  0  0  0  0  0  0  0
    0.5435   -0.1959    0.2571 C   0  0  0  0  0  0  0  0  0  0  0  0
    1.4035    0.3362   -0.6505 O   0  0  0  0  0  0  0  0  0  0  0  0
   -0.9329    0.0941   -0.0333 C   0  0  0  0  0  0  0  0  0  0  0  0
   -1.4044   -0.6439   -1.0782 F   0  0  0  0  0  0  0  0  0  0  0  0
   -1.1575    1.3999   -0.3552 F   0  0  0  0  0  0  0  0  0  0  0  0
   -1.7446   -0.1811    1.0259 F   0  0  0  0  0  0  0  0  0  0  0  0
    9.0649    0.2935   -1.8106 O   0  0  0  0  0  0  0  0  0  0  0  0
    8.0643    0.8622   -1.3823 C   0  0  0  0  0  0  0  0  0  0  0  0
    7.4428    0.5615   -0.0235 C   0  0  0  0  0  0  0  0  0  0  0  0
    6.0724    0.8649    0.1853 O   0  0  0  0  0  0  0  0  0  0  0  0
    5.6061    1.9420   -0.5252 C   0  0  0  0  0  0  0  0  0  0  0  0
    4.3633    2.4728   -0.1371 C   0  0  0  0  0  0  0  0  0  0  0  0
    3.5910    1.9011    1.0317 C   0  0  0  0  0  0  0  0  0  0  0  0
    2.8129    0.6193    0.6906 C   0  0  0  0  0  0  0  0  0  0  0  0
    1.6634    0.8952   -0.1786 N   0  0  0  0  0  0  0  0  0  0  0  0
    0.9601   -0.3213   -0.5984 C   0  0  0  0  0  0  0  0  0  0  0  0
    0.1461   -1.0034    0.5202 C   0  0  0  0  0  0  0  0  0  0  0  0
   -0.7394   -2.0722    0.0269 N   0  0  0  0  0  0  0  0  0  0  0  0
   -2.0750   -1.8529   -0.3329 C   0  0  0  0  0  0  0  0  0  0  0  0
   -2.8402   -2.7811   -0.5999 O   0  0  0  0  0  0  0  0  0  0  0  0
   -2.5586   -0.4109   -0.3838 C   0  0  0  0  0  0  0  0  0  0  0  0
   -3.9847   -0.3170   -0.9291 C   0  0  0  0  0  0  0  0  0  0  0  0
   -4.3832    1.0947   -1.0260 N   0  0  0  0  0  0  0  0  0  0  0  0
   -5.7624    1.2514   -1.5093 C   0  0  0  0  0  0  0  0  0  0  0  0
   -6.8504    0.9448   -0.4657 C   0  0  0  0  0  0  0  0  0  0  0  0
   -6.8502    1.9001    0.7062 C   0  0  0  0  0  0  0  0  0  0  0  0
   -6.1771    1.5722    1.8895 C   0  0  0  0  0  0  0  0  0  0  0  0
   -6.1621    2.4615    2.9664 C   0  0  0  0  0  0  0  0  0  0  0  0
   -6.8165    3.6921    2.8712 C   0  0  0  0  0  0  0  0  0  0  0  0
   -6.7546    4.7443    4.2407 Cl  0  0  0  0  0  0  0  0  0  0  0  0
   -7.4875    4.0324    1.6923 C   0  0  0  0  0  0  0  0  0  0  0  0
   -8.3133    5.5383    1.4974 Cl  0  0  0  0  0  0  0  0  0  0  0  0
   -7.5026    3.1385    0.6157 C   0  0  0  0  0  0  0  0  0  0  0  0
   -0.2834   -3.4766    0.1284 C   0  0  0  0  0  0  0  0  0  0  0  0
   -0.5269   -4.0277    1.5490 C   0  0  0  0  0  0  0  0  0  0  0  0
    0.3899   -5.1958    1.9185 C   0  0  0  0  0  0  0  0  0  0  0  0
    0.7659   -6.0277    0.7012 C   0  0  0  0  0  0  0  0  0  0  0  0
    1.5187   -5.2031   -0.3435 C   0  0  0  0  0  0  0  0  0  0  0  0
    1.1626   -3.7129   -0.3259 C   0  0  0  0  0  0  0  0  0  0  0  0
    3.8189    3.5400   -0.8711 C   0  0  0  0  0  0  0  0  0  0  0  0
    4.5036    4.0792   -1.9605 C   0  0  0  0  0  0  0  0  0  0  0  0
    5.7352    3.5522   -2.3269 C   0  0  0  0  0  0  0  0  0  0  0  0
    6.3858    4.1501   -3.3699 O   0  0  0  0  0  0  0  0  0  0  0  0
    6.2829    2.4709   -1.6326 C   0  0  0  0  0  0  0  0  0  0  0  0
    7.4728    1.8809   -2.0740 N   0  0  0  0  0  0  0  0  0  0  0  0
    2.2870   -0.3457   -0.1527 H   0  0  0  0  0  0  0  0  0  0  0  0
    2.2913    0.0523   -0.3440 H   0  0  0  0  0  0  0  0  0  0  0  0
    7.5586   -0.5131    0.1547 H   0  0  0  0  0  0  0  0  0  0  0  0
    8.0311    1.0894    0.7361 H   0  0  0  0  0  0  0  0  0  0  0  0
    4.2928    1.6889    1.8486 H   0  0  0  0  0  0  0  0  0  0  0  0
    2.9078    2.6602    1.4354 H   0  0  0  0  0  0  0  0  0  0  0  0
    3.4803   -0.1074    0.2129 H   0  0  0  0  0  0  0  0  0  0  0  0
    2.4623    0.1805    1.6315 H   0  0  0  0  0  0  0  0  0  0  0  0
    1.0214    1.5398    0.2803 H   0  0  0  0  0  0  0  0  0  0  0  0
    1.6707   -1.0249   -1.0448 H   0  0  0  0  0  0  0  0  0  0  0  0
    0.2878   -0.0380   -1.4150 H   0  0  0  0  0  0  0  0  0  0  0  0
    0.8100   -1.4217    1.2840 H   0  0  0  0  0  0  0  0  0  0  0  0
   -0.4587   -0.2523    1.0371 H   0  0  0  0  0  0  0  0  0  0  0  0
   -2.5393    0.0027    0.6304 H   0  0  0  0  0  0  0  0  0  0  0  0
   -1.8875    0.1690   -1.0237 H   0  0  0  0  0  0  0  0  0  0  0  0
   -4.6582   -0.8633   -0.2597 H   0  0  0  0  0  0  0  0  0  0  0  0
   -4.0389   -0.7898   -1.9174 H   0  0  0  0  0  0  0  0  0  0  0  0
   -3.7593    1.5650   -1.6829 H   0  0  0  0  0  0  0  0  0  0  0  0
   -5.9207    0.6302   -2.3994 H   0  0  0  0  0  0  0  0  0  0  0  0
   -5.8792    2.2913   -1.8393 H   0  0  0  0  0  0  0  0  0  0  0  0
   -6.7700   -0.0872   -0.1045 H   0  0  0  0  0  0  0  0  0  0  0  0
   -7.8315    1.0003   -0.9556 H   0  0  0  0  0  0  0  0  0  0  0  0
   -5.6505    0.6232    1.9729 H   0  0  0  0  0  0  0  0  0  0  0  0
   -5.6328    2.1887    3.8758 H   0  0  0  0  0  0  0  0  0  0  0  0
   -8.0225    3.4098   -0.3007 H   0  0  0  0  0  0  0  0  0  0  0  0
   -0.9085   -4.0688   -0.5535 H   0  0  0  0  0  0  0  0  0  0  0  0
   -0.4080   -3.2431    2.3062 H   0  0  0  0  0  0  0  0  0  0  0  0
   -1.5741   -4.3486    1.6221 H   0  0  0  0  0  0  0  0  0  0  0  0
    1.3037   -4.8071    2.3853 H   0  0  0  0  0  0  0  0  0  0  0  0
   -0.1016   -5.8237    2.6701 H   0  0  0  0  0  0  0  0  0  0  0  0
    1.3771   -6.8859    1.0022 H   0  0  0  0  0  0  0  0  0  0  0  0
   -0.1463   -6.4389    0.2511 H   0  0  0  0  0  0  0  0  0  0  0  0
    2.5995   -5.3060   -0.1887 H   0  0  0  0  0  0  0  0  0  0  0  0
    1.3134   -5.6219   -1.3359 H   0  0  0  0  0  0  0  0  0  0  0  0
    1.3247   -3.2979   -1.3271 H   0  0  0  0  0  0  0  0  0  0  0  0
    1.8608   -3.1965    0.3436 H   0  0  0  0  0  0  0  0  0  0  0  0
    2.8490    3.9524   -0.6007 H   0  0  0  0  0  0  0  0  0  0  0  0
    4.0779    4.9102   -2.5161 H   0  0  0  0  0  0  0  0  0  0  0  0
    7.3389    4.0798   -3.1947 H   0  0  0  0  0  0  0  0  0  0  0  0
    7.8646    2.1013   -2.9785 H   0  0  0  0  0  0  0  0  0  0  0  0
  1  2  2  0
  2  3  1  0
  2  4  1  0
  4  5  1  0
  4  6  1  0
  4  7  1  0
  8  9  2  0
  9 10  1  0
  9 11  1  0
 11 12  1  0
 11 13  1  0
 11 14  1  0
 15 16  2  0
 16 17  1  0
 17 18  1  0
 18 19  1  0
 19 20  2  0
 20 21  1  0
 21 22  1  0
 22 23  1  0
 23 24  1  0
 24 25  1  0
 25 26  1  0
 26 27  1  0
 27 28  2  0
 27 29  1  0
 29 30  1  0
 30 31  1  0
 31 32  1  0
 32 33  1  0
 33 34  1  0
 34 35  2  0
 35 36  1  0
 36 37  2  0
 37 38  1  0
 37 39  1  0
 39 40  1  0
 39 41  2  0
 26 42  1  0
 42 43  1  0
 43 44  1  0
 44 45  1  0
 45 46  1  0
 46 47  1  0
 20 48  1  0
 48 49  2  0
 49 50  1  0
 50 51  1  0
 50 52  2  0
 52 53  1  0
 53 16  1  0
 52 19  1  0
 41 34  1  0
 47 42  1  0
  3 54  1  0
 10 55  1  0
 17 56  1  0
 17 57  1  0
 21 58  1  0
 21 59  1  0
 22 60  1  0
 22 61  1  0
 23 62  1  0
 24 63  1  0
 24 64  1  0
 25 65  1  0
 25 66  1  0
 29 67  1  0
 29 68  1  0
 30 69  1  0
 30 70  1  0
 31 71  1  0
 32 72  1  0
 32 73  1  0
 33 74  1  0
 33 75  1  0
 35 76  1  0
 36 77  1  0
 41 78  1  0
 42 79  1  0
 43 80  1  0
 43 81  1  0
 44 82  1  0
 44 83  1  0
 45 84  1  0
 45 85  1  0
 46 86  1  0
 46 87  1  0
 47 88  1  0
 47 89  1  0
 48 90  1  0
 49 91  1  0
 51 92  1  0
 53 93  1  0
M  END
$$$$
