
     RDKit          3D

 52 55  0  0  0  0  0  0  0  0999 V2000
    8.2678    2.6911   -0.9727 C   0  0  0  0  0  0  0  0  0  0  0  0
    7.9163    1.3160   -0.8823 O   0  0  0  0  0  0  0  0  0  0  0  0
    6.6681    1.0264   -0.4038 C   0  0  0  0  0  0  0  0  0  0  0  0
    6.3452   -0.3311   -0.4017 C   0  0  0  0  0  0  0  0  0  0  0  0
    5.1022   -0.7693    0.0609 C   0  0  0  0  0  0  0  0  0  0  0  0
    4.1562    0.1480    0.5418 C   0  0  0  0  0  0  0  0  0  0  0  0
    2.8129   -0.3570    1.0210 C   0  0  0  0  0  0  0  0  0  0  0  0
    1.6886   -0.1769    0.0071 C   0  0  0  0  0  0  0  0  0  0  0  0
    1.8939    0.1435   -1.1641 O   0  0  0  0  0  0  0  0  0  0  0  0
    0.4083   -0.4203    0.4669 N   0  0  0  0  0  0  0  0  0  0  0  0
    0.0240   -0.9089    1.7795 C   0  0  0  0  0  0  0  0  0  0  0  0
   -1.4929   -0.7730    1.8111 C   0  0  0  0  0  0  0  0  0  0  0  0
   -1.9011   -0.9687    0.3489 C   0  0  0  0  0  0  0  0  0  0  0  0
   -0.7244   -0.4103   -0.4511 C   0  0  0  0  0  0  0  0  0  0  0  0
   -2.1084   -2.4672    0.0283 C   0  0  0  0  0  0  0  0  0  0  0  0
   -1.2980   -3.3631    0.2132 O   0  0  0  0  0  0  0  0  0  0  0  0
   -3.3975   -2.6047   -0.4911 N   0  0  0  0  0  0  0  0  0  0  0  0
   -3.9774   -3.8536   -0.9093 C   0  0  0  0  0  0  0  0  0  0  0  0
   -4.0706   -1.3815   -0.5124 C   0  0  0  0  0  0  0  0  0  0  0  0
   -5.3593   -1.1122   -0.9317 C   0  0  0  0  0  0  0  0  0  0  0  0
   -5.8172    0.2091   -0.8492 C   0  0  0  0  0  0  0  0  0  0  0  0
   -4.9866    1.2291   -0.3538 C   0  0  0  0  0  0  0  0  0  0  0  0
   -5.3288    2.5483   -0.2282 O   0  0  0  0  0  0  0  0  0  0  0  0
   -6.6277    2.9239   -0.6684 C   0  0  0  0  0  0  0  0  0  0  0  0
   -3.6844    0.9295    0.0649 C   0  0  0  0  0  0  0  0  0  0  0  0
   -3.2367   -0.3805   -0.0190 C   0  0  0  0  0  0  0  0  0  0  0  0
    4.4868    1.5124    0.5314 C   0  0  0  0  0  0  0  0  0  0  0  0
    3.3833    2.7158    1.1054 Cl  0  0  0  0  0  0  0  0  0  0  0  0
    5.7339    1.9484    0.0649 C   0  0  0  0  0  0  0  0  0  0  0  0
    8.2982    3.1555    0.0185 H   0  0  0  0  0  0  0  0  0  0  0  0
    7.5892    3.2301   -1.6421 H   0  0  0  0  0  0  0  0  0  0  0  0
    9.2737    2.7516   -1.3993 H   0  0  0  0  0  0  0  0  0  0  0  0
    7.0661   -1.0560   -0.7732 H   0  0  0  0  0  0  0  0  0  0  0  0
    4.8767   -1.8334    0.0322 H   0  0  0  0  0  0  0  0  0  0  0  0
    2.8818   -1.4271    1.2534 H   0  0  0  0  0  0  0  0  0  0  0  0
    2.5625    0.1486    1.9592 H   0  0  0  0  0  0  0  0  0  0  0  0
    0.3427   -1.9533    1.8619 H   0  0  0  0  0  0  0  0  0  0  0  0
    0.5029   -0.3306    2.5737 H   0  0  0  0  0  0  0  0  0  0  0  0
   -1.7568    0.2332    2.1599 H   0  0  0  0  0  0  0  0  0  0  0  0
   -1.9483   -1.4937    2.4984 H   0  0  0  0  0  0  0  0  0  0  0  0
   -0.4823   -1.0040   -1.3401 H   0  0  0  0  0  0  0  0  0  0  0  0
   -0.8745    0.6289   -0.7657 H   0  0  0  0  0  0  0  0  0  0  0  0
   -3.2516   -4.6657   -0.8116 H   0  0  0  0  0  0  0  0  0  0  0  0
   -4.8447   -4.0776   -0.2813 H   0  0  0  0  0  0  0  0  0  0  0  0
   -4.2854   -3.7783   -1.9563 H   0  0  0  0  0  0  0  0  0  0  0  0
   -6.0094   -1.8904   -1.3152 H   0  0  0  0  0  0  0  0  0  0  0  0
   -6.8307    0.4147   -1.1792 H   0  0  0  0  0  0  0  0  0  0  0  0
   -6.7551    2.7258   -1.7378 H   0  0  0  0  0  0  0  0  0  0  0  0
   -7.4033    2.4254   -0.0778 H   0  0  0  0  0  0  0  0  0  0  0  0
   -6.7339    4.0021   -0.5147 H   0  0  0  0  0  0  0  0  0  0  0  0
   -3.0422    1.7195    0.4440 H   0  0  0  0  0  0  0  0  0  0  0  0
    5.9479    3.0115    0.0774 H   0  0  0  0  0  0  0  0  0  0  0  0
  1  2  1  0
  2  3  1  0
  3  4  2  0
  4  5  1  0
  5  6  2  0
  6  7  1  0
  7  8  1  0
  8  9  2  0
  8 10  1  0
 10 11  1  0
 11 12  1  0
 12 13  1  0
 13 14  1  0
 13 15  1  0
 15 16  2  0
 15 17  1  0
 17 18  1  0
 17 19  1  0
 19 20  2  0
 20 21  1  0
 21 22  2  0
 22 23  1  0
 23 24  1  0
 22 25  1  0
 25 26  2  0
  6 27  1  0
 27 28  1  0
 27 29  2  0
 29  3  1  0
 14 10  1  0
 26 19  1  0
 26 13  1  0
  1 30  1  0
  1 31  1  0
  1 32  1  0
  4 33  1  0
  5 34  1  0
  7 35  1  0
  7 36  1  0
 11 37  1  0
 11 38  1  0
 12 39  1  0
 12 40  1  0
 14 41  1  0
 14 42  1  0
 18 43  1  0
 18 44  1  0
 18 45  1  0
 20 46  1  0
 21 47  1  0
 24 48  1  0
 24 49  1  0
 24 50  1  0
 25 51  1  0
 29 52  1  0
M  END
$$$$
