
     RDKit          3D

 45 47  0  0  0  0  0  0  0  0999 V2000
   -0.1829    5.8002   -0.7210 C   0  0  0  0  0  0  0  0  0  0  0  0
    0.2875    4.5478   -0.0029 C   0  0  0  0  0  0  0  0  0  0  0  0
   -0.5274    3.3187   -0.3765 C   0  0  0  0  0  0  0  0  0  0  0  0
   -1.4407    3.3597   -1.1919 O   0  0  0  0  0  0  0  0  0  0  0  0
   -0.0857    2.1951    0.3045 N   0  0  0  0  0  0  0  0  0  0  0  0
   -0.6076    0.8775    0.2680 C   0  0  0  0  0  0  0  0  0  0  0  0
   -1.7710    0.5758   -0.4600 C   0  0  0  0  0  0  0  0  0  0  0  0
   -2.2443   -0.7231   -0.4421 C   0  0  0  0  0  0  0  0  0  0  0  0
   -1.6083   -1.7328    0.2748 C   0  0  0  0  0  0  0  0  0  0  0  0
   -0.4678   -1.4907    1.0003 C   0  0  0  0  0  0  0  0  0  0  0  0
    0.0356   -0.1745    0.9841 C   0  0  0  0  0  0  0  0  0  0  0  0
    1.5426    0.0808    1.9066 S   0  0  0  0  0  6  0  0  0  0  0  0
    1.3643   -0.5962    3.1776 O   0  0  0  0  0  0  0  0  0  0  0  0
    1.8649    1.4982    1.8689 O   0  0  0  0  0  0  0  0  0  0  0  0
    2.8292   -0.7526    1.0092 C   0  0  0  0  0  0  0  0  0  0  0  0
    3.1253   -0.3406   -0.2942 C   0  0  0  0  0  0  0  0  0  0  0  0
    4.1235   -1.0017   -1.0089 C   0  0  0  0  0  0  0  0  0  0  0  0
    4.8192   -2.0602   -0.4219 C   0  0  0  0  0  0  0  0  0  0  0  0
    4.5237   -2.4605    0.8826 C   0  0  0  0  0  0  0  0  0  0  0  0
    3.5267   -1.8062    1.6056 C   0  0  0  0  0  0  0  0  0  0  0  0
   -2.3325   -2.9159    0.0939 N   0  0  0  0  0  0  0  0  0  0  0  0
   -2.0139   -4.1863    0.6780 C   0  0  0  0  0  0  0  0  0  0  0  0
   -3.4405   -2.6545   -0.7440 C   0  0  0  0  0  0  0  0  0  0  0  0
   -4.2869   -3.4534   -1.1106 O   0  0  0  0  0  0  0  0  0  0  0  0
   -3.3653   -1.2823   -1.0684 N   0  0  0  0  0  0  0  0  0  0  0  0
   -4.2927   -0.5684   -1.8987 C   0  0  0  0  0  0  0  0  0  0  0  0
    0.4255    6.6604   -0.4252 H   0  0  0  0  0  0  0  0  0  0  0  0
   -0.1053    5.6837   -1.8070 H   0  0  0  0  0  0  0  0  0  0  0  0
   -1.2282    6.0216   -0.4811 H   0  0  0  0  0  0  0  0  0  0  0  0
    1.3374    4.3575   -0.2528 H   0  0  0  0  0  0  0  0  0  0  0  0
    0.2118    4.6995    1.0798 H   0  0  0  0  0  0  0  0  0  0  0  0
    0.7188    2.3472    0.9193 H   0  0  0  0  0  0  0  0  0  0  0  0
   -2.3162    1.3225   -1.0229 H   0  0  0  0  0  0  0  0  0  0  0  0
    0.0192   -2.2814    1.5611 H   0  0  0  0  0  0  0  0  0  0  0  0
    2.5967    0.4892   -0.7572 H   0  0  0  0  0  0  0  0  0  0  0  0
    4.3652   -0.6914   -2.0231 H   0  0  0  0  0  0  0  0  0  0  0  0
    5.5995   -2.5719   -0.9813 H   0  0  0  0  0  0  0  0  0  0  0  0
    5.0752   -3.2813    1.3360 H   0  0  0  0  0  0  0  0  0  0  0  0
    3.3078   -2.1212    2.6236 H   0  0  0  0  0  0  0  0  0  0  0  0
   -2.7413   -4.9418    0.3686 H   0  0  0  0  0  0  0  0  0  0  0  0
   -2.0341   -4.0978    1.7680 H   0  0  0  0  0  0  0  0  0  0  0  0
   -1.0172   -4.4955    0.3502 H   0  0  0  0  0  0  0  0  0  0  0  0
   -3.7600   -0.1452   -2.7552 H   0  0  0  0  0  0  0  0  0  0  0  0
   -4.7559    0.2337   -1.3169 H   0  0  0  0  0  0  0  0  0  0  0  0
   -5.0740   -1.2415   -2.2621 H   0  0  0  0  0  0  0  0  0  0  0  0
  1  2  1  0
  2  3  1  0
  3  4  2  0
  3  5  1  0
  5  6  1  0
  6  7  2  0
  7  8  1  0
  8  9  2  0
  9 10  1  0
 10 11  2  0
 11 12  1  0
 12 13  2  0
 12 14  2  0
 12 15  1  0
 15 16  2  0
 16 17  1  0
 17 18  2  0
 18 19  1  0
 19 20  2  0
  9 21  1  0
 21 22  1  0
 21 23  1  0
 23 24  2  0
 23 25  1  0
 25 26  1  0
 11  6  1  0
 20 15  1  0
 25  8  1  0
  1 27  1  0
  1 28  1  0
  1 29  1  0
  2 30  1  0
  2 31  1  0
  5 32  1  0
  7 33  1  0
 10 34  1  0
 16 35  1  0
 17 36  1  0
 18 37  1  0
 19 38  1  0
 20 39  1  0
 22 40  1  0
 22 41  1  0
 22 42  1  0
 26 43  1  0
 26 44  1  0
 26 45  1  0
M  END
$$$$
