
     RDKit          3D

 45 46  0  0  0  0  0  0  0  0999 V2000
    4.5416   -0.8657   -2.5528 C   0  0  0  0  0  0  0  0  0  0  0  0
    3.9388    0.3953   -1.9559 C   0  0  0  0  0  0  0  0  0  0  0  0
    4.0504    0.4457   -0.4944 N   0  0  0  0  0  0  0  0  0  0  0  0
    5.3086    0.9366    0.0742 C   0  0  0  0  0  0  0  0  0  0  0  0
    6.2531   -0.1808    0.4932 C   0  0  0  0  0  0  0  0  0  0  0  0
    3.0736   -0.0236    0.3945 C   0  0  0  0  0  0  0  0  0  0  0  0
    3.2632   -0.0012    1.6125 O   0  0  0  0  0  0  0  0  0  0  0  0
    1.7855   -0.5623   -0.2200 C   0  0  0  0  0  0  0  0  0  0  0  0
    0.7887   -1.1093    0.7574 C   0  0  0  0  0  0  0  0  0  0  0  0
    1.0245   -1.8986    1.8711 C   0  0  0  0  0  0  0  0  0  0  0  0
   -0.4546   -2.2977    2.6415 S   0  0  0  0  0  0  0  0  0  0  0  0
   -1.2849   -1.3930    1.4600 C   0  0  0  0  0  0  0  0  0  0  0  0
   -2.7331   -1.3154    1.4110 N   0  0  0  0  0  0  0  0  0  0  0  0
   -3.2886    0.0529    2.2335 S   0  0  0  0  0  6  0  0  0  0  0  0
   -2.3238    1.1269    2.2578 O   0  0  0  0  0  0  0  0  0  0  0  0
   -3.8528   -0.4725    3.4619 O   0  0  0  0  0  0  0  0  0  0  0  0
   -4.6508    0.5743    1.1933 C   0  0  0  0  0  0  0  0  0  0  0  0
   -5.9224    0.6164    1.7935 C   0  0  0  0  0  0  0  0  0  0  0  0
   -7.0417    0.9680    1.0470 C   0  0  0  0  0  0  0  0  0  0  0  0
   -6.8977    1.2671   -0.3028 C   0  0  0  0  0  0  0  0  0  0  0  0
   -5.6343    1.2328   -0.9063 C   0  0  0  0  0  0  0  0  0  0  0  0
   -5.5828    1.5830   -2.6018 Cl  0  0  0  0  0  0  0  0  0  0  0  0
   -4.4759    0.9124   -0.1689 C   0  0  0  0  0  0  0  0  0  0  0  0
   -3.1293    0.8772   -0.8436 C   0  0  0  0  0  0  0  0  0  0  0  0
   -0.5597   -0.8736    0.5035 N   0  0  0  0  0  0  0  0  0  0  0  0
    4.3399   -0.9077   -3.6278 H   0  0  0  0  0  0  0  0  0  0  0  0
    4.1279   -1.7668   -2.0899 H   0  0  0  0  0  0  0  0  0  0  0  0
    5.6267   -0.8862   -2.4199 H   0  0  0  0  0  0  0  0  0  0  0  0
    2.8877    0.4573   -2.2489 H   0  0  0  0  0  0  0  0  0  0  0  0
    4.4249    1.2835   -2.3747 H   0  0  0  0  0  0  0  0  0  0  0  0
    5.0744    1.5503    0.9521 H   0  0  0  0  0  0  0  0  0  0  0  0
    5.7997    1.5953   -0.6502 H   0  0  0  0  0  0  0  0  0  0  0  0
    7.1599    0.2409    0.9381 H   0  0  0  0  0  0  0  0  0  0  0  0
    5.7903   -0.8428    1.2317 H   0  0  0  0  0  0  0  0  0  0  0  0
    6.5523   -0.7949   -0.3600 H   0  0  0  0  0  0  0  0  0  0  0  0
    2.0345   -1.3621   -0.9252 H   0  0  0  0  0  0  0  0  0  0  0  0
    1.3082    0.2580   -0.7688 H   0  0  0  0  0  0  0  0  0  0  0  0
    1.9719   -2.2371    2.2679 H   0  0  0  0  0  0  0  0  0  0  0  0
   -3.1210   -2.1205    1.9015 H   0  0  0  0  0  0  0  0  0  0  0  0
   -6.0522    0.3746    2.8474 H   0  0  0  0  0  0  0  0  0  0  0  0
   -8.0235    0.9998    1.5130 H   0  0  0  0  0  0  0  0  0  0  0  0
   -7.7776    1.5261   -0.8877 H   0  0  0  0  0  0  0  0  0  0  0  0
   -2.3261    1.1967   -0.1784 H   0  0  0  0  0  0  0  0  0  0  0  0
   -2.9207   -0.1312   -1.2129 H   0  0  0  0  0  0  0  0  0  0  0  0
   -3.0728    1.5719   -1.6869 H   0  0  0  0  0  0  0  0  0  0  0  0
  1  2  1  0
  2  3  1  0
  3  4  1  0
  4  5  1  0
  3  6  1  0
  6  7  2  0
  6  8  1  0
  8  9  1  0
  9 10  2  0
 10 11  1  0
 11 12  1  0
 12 13  1  0
 13 14  1  0
 14 15  2  0
 14 16  2  0
 14 17  1  0
 17 18  2  0
 18 19  1  0
 19 20  2  0
 20 21  1  0
 21 22  1  0
 21 23  2  0
 23 24  1  0
 12 25  2  0
 25  9  1  0
 23 17  1  0
  1 26  1  0
  1 27  1  0
  1 28  1  0
  2 29  1  0
  2 30  1  0
  4 31  1  0
  4 32  1  0
  5 33  1  0
  5 34  1  0
  5 35  1  0
  8 36  1  0
  8 37  1  0
 10 38  1  0
 13 39  1  0
 18 40  1  0
 19 41  1  0
 20 42  1  0
 24 43  1  0
 24 44  1  0
 24 45  1  0
M  END
$$$$
