
     RDKit          3D

 57 60  0  0  0  0  0  0  0  0999 V2000
   -1.0850   -0.6462    2.0463 O   0  0  0  0  0  0  0  0  0  0  0  0
   -1.1467    0.4562    1.5135 C   0  0  0  0  0  0  0  0  0  0  0  0
   -2.3252    0.9899    1.0320 N   0  0  0  0  0  0  0  0  0  0  0  0
   -3.5985    0.3164    1.2433 C   0  0  0  0  0  0  0  0  0  0  0  0
   -4.5941    0.6254    0.1105 C   0  0  0  0  0  0  0  0  0  0  0  0
   -5.9427    0.0943    0.3562 N   0  0  0  0  0  0  0  0  0  0  0  0
   -6.9291    0.7449   -0.5349 C   0  0  0  0  0  0  0  0  0  0  0  0
   -8.2135   -0.0862   -0.6637 C   0  0  0  0  0  0  0  0  0  0  0  0
   -7.9881   -1.3565   -1.2894 O   0  0  0  0  0  0  0  0  0  0  0  0
   -6.6596   -1.8554   -1.0863 C   0  0  0  0  0  0  0  0  0  0  0  0
   -6.0259   -1.3789    0.2319 C   0  0  0  0  0  0  0  0  0  0  0  0
    0.0708    1.3715    1.3270 C   0  0  0  0  0  0  0  0  0  0  0  0
    1.3158    0.8387    2.0607 C   0  0  0  0  0  0  0  0  0  0  0  0
    1.9619   -0.4270    1.4854 C   0  0  0  0  0  0  0  0  0  0  0  0
    2.7739   -0.1851    0.2331 C   0  0  0  0  0  0  0  0  0  0  0  0
    4.1171   -0.4511    0.3622 N   0  0  0  0  0  0  0  0  0  0  0  0
    4.8840   -0.2555   -0.6615 C   0  0  0  0  0  0  0  0  0  0  0  0
    6.3446   -0.5296   -0.5777 C   0  0  0  0  0  0  0  0  0  0  0  0
    7.2748    0.1642   -1.3661 C   0  0  0  0  0  0  0  0  0  0  0  0
    8.6376   -0.1256   -1.2533 C   0  0  0  0  0  0  0  0  0  0  0  0
    9.0645   -1.0967   -0.3537 C   0  0  0  0  0  0  0  0  0  0  0  0
   10.3715   -1.3690   -0.2499 F   0  0  0  0  0  0  0  0  0  0  0  0
    8.1562   -1.7818    0.4441 C   0  0  0  0  0  0  0  0  0  0  0  0
    6.7939   -1.4955    0.3360 C   0  0  0  0  0  0  0  0  0  0  0  0
    4.4007    0.1915   -1.8634 N   0  0  0  0  0  0  0  0  0  0  0  0
    3.0803    0.4544   -2.0693 C   0  0  0  0  0  0  0  0  0  0  0  0
    2.6684    0.8354   -3.1596 O   0  0  0  0  0  0  0  0  0  0  0  0
    2.1959    0.2543   -0.8987 C   0  0  0  0  0  0  0  0  0  0  0  0
    0.7364    0.5671   -1.0429 C   0  0  0  0  0  0  0  0  0  0  0  0
    0.3045    1.7334   -0.1502 C   0  0  0  0  0  0  0  0  0  0  0  0
   -2.3559    1.9919    0.8931 H   0  0  0  0  0  0  0  0  0  0  0  0
   -3.9884    0.6733    2.2035 H   0  0  0  0  0  0  0  0  0  0  0  0
   -3.4255   -0.7601    1.3337 H   0  0  0  0  0  0  0  0  0  0  0  0
   -4.1968    0.2626   -0.8468 H   0  0  0  0  0  0  0  0  0  0  0  0
   -4.6535    1.7190    0.0238 H   0  0  0  0  0  0  0  0  0  0  0  0
   -6.5048    0.8801   -1.5387 H   0  0  0  0  0  0  0  0  0  0  0  0
   -7.1719    1.7356   -0.1350 H   0  0  0  0  0  0  0  0  0  0  0  0
   -8.6668   -0.2623    0.3189 H   0  0  0  0  0  0  0  0  0  0  0  0
   -8.9503    0.4506   -1.2700 H   0  0  0  0  0  0  0  0  0  0  0  0
   -6.7162   -2.9487   -1.1010 H   0  0  0  0  0  0  0  0  0  0  0  0
   -6.0458   -1.5512   -1.9422 H   0  0  0  0  0  0  0  0  0  0  0  0
   -6.6563   -1.7282    1.0594 H   0  0  0  0  0  0  0  0  0  0  0  0
   -5.0529   -1.8635    0.3611 H   0  0  0  0  0  0  0  0  0  0  0  0
   -0.2002    2.3055    1.8418 H   0  0  0  0  0  0  0  0  0  0  0  0
    1.0357    0.6268    3.1014 H   0  0  0  0  0  0  0  0  0  0  0  0
    2.0673    1.6380    2.1087 H   0  0  0  0  0  0  0  0  0  0  0  0
    2.6241   -0.8388    2.2595 H   0  0  0  0  0  0  0  0  0  0  0  0
    1.2221   -1.2119    1.2946 H   0  0  0  0  0  0  0  0  0  0  0  0
    6.9674    0.9510   -2.0483 H   0  0  0  0  0  0  0  0  0  0  0  0
    9.3705    0.4056   -1.8533 H   0  0  0  0  0  0  0  0  0  0  0  0
    8.5112   -2.5302    1.1457 H   0  0  0  0  0  0  0  0  0  0  0  0
    6.0832   -2.0297    0.9644 H   0  0  0  0  0  0  0  0  0  0  0  0
    4.9856    0.2833   -2.6784 H   0  0  0  0  0  0  0  0  0  0  0  0
    0.1372   -0.3292   -0.8433 H   0  0  0  0  0  0  0  0  0  0  0  0
    0.5078    0.8397   -2.0800 H   0  0  0  0  0  0  0  0  0  0  0  0
    1.0466    2.5410   -0.2079 H   0  0  0  0  0  0  0  0  0  0  0  0
   -0.6179    2.1521   -0.5715 H   0  0  0  0  0  0  0  0  0  0  0  0
  1  2  2  0
  2  3  1  0
  3  4  1  0
  4  5  1  0
  5  6  1  0
  6  7  1  0
  7  8  1  0
  8  9  1  0
  9 10  1  0
 10 11  1  0
  2 12  1  0
 12 13  1  0
 13 14  1  0
 14 15  1  0
 15 16  1  0
 16 17  2  0
 17 18  1  0
 18 19  2  0
 19 20  1  0
 20 21  2  0
 21 22  1  0
 21 23  1  0
 23 24  2  0
 17 25  1  0
 25 26  1  0
 26 27  2  0
 26 28  1  0
 28 29  1  0
 29 30  1  0
 11  6  1  0
 30 12  1  0
 28 15  2  0
 24 18  1  0
  3 31  1  0
  4 32  1  0
  4 33  1  0
  5 34  1  0
  5 35  1  0
  7 36  1  0
  7 37  1  0
  8 38  1  0
  8 39  1  0
 10 40  1  0
 10 41  1  0
 11 42  1  0
 11 43  1  0
 12 44  1  0
 13 45  1  0
 13 46  1  0
 14 47  1  0
 14 48  1  0
 19 49  1  0
 20 50  1  0
 23 51  1  0
 24 52  1  0
 25 53  1  0
 29 54  1  0
 29 55  1  0
 30 56  1  0
 30 57  1  0
M  END
$$$$
