
     RDKit          3D

 40 41  0  0  0  0  0  0  0  0999 V2000
    3.2416    2.0528    0.0087 C   0  0  0  0  0  0  0  0  0  0  0  0
    4.0592    0.7639   -0.0262 C   0  0  0  0  0  0  0  0  0  0  0  0
    5.4334    1.0318   -0.6329 C   0  0  0  0  0  0  0  0  0  0  0  0
    3.4001   -0.1976   -0.8706 O   0  0  0  0  0  0  0  0  0  0  0  0
    2.6231   -1.0720   -0.1571 C   0  0  0  0  0  0  0  0  0  0  0  0
    1.2442   -0.8440   -0.1481 C   0  0  0  0  0  0  0  0  0  0  0  0
    0.3558   -1.7211    0.5054 C   0  0  0  0  0  0  0  0  0  0  0  0
   -1.0270   -1.4332    0.4276 N   0  0  0  0  0  0  0  0  0  0  0  0
   -1.4286   -0.1400    0.2089 N   0  0  0  0  0  0  0  0  0  0  0  0
   -2.7173   -0.2447    0.1367 C   0  0  0  0  0  0  0  0  0  0  0  0
   -3.7107    0.8696   -0.0832 C   0  0  0  0  0  0  0  0  0  0  0  0
   -2.9959    2.2292   -0.0849 C   0  0  0  0  0  0  0  0  0  0  0  0
   -4.3971    0.6567   -1.4381 C   0  0  0  0  0  0  0  0  0  0  0  0
   -4.7486    0.8504    1.0466 C   0  0  0  0  0  0  0  0  0  0  0  0
   -3.2146   -1.4925    0.2496 O   0  0  0  0  0  0  0  0  0  0  0  0
   -2.1130   -2.2884    0.3914 C   0  0  0  0  0  0  0  0  0  0  0  0
   -2.1765   -3.5051    0.3978 O   0  0  0  0  0  0  0  0  0  0  0  0
    0.9096   -2.8164    1.1945 C   0  0  0  0  0  0  0  0  0  0  0  0
    0.0142   -3.8188    2.2832 Cl  0  0  0  0  0  0  0  0  0  0  0  0
    2.2910   -3.0640    1.1528 C   0  0  0  0  0  0  0  0  0  0  0  0
    3.1444   -2.2064    0.4621 C   0  0  0  0  0  0  0  0  0  0  0  0
    4.8259   -2.5839    0.4140 Cl  0  0  0  0  0  0  0  0  0  0  0  0
    3.7603    2.8361    0.5701 H   0  0  0  0  0  0  0  0  0  0  0  0
    2.2689    1.8840    0.4816 H   0  0  0  0  0  0  0  0  0  0  0  0
    3.0412    2.4185   -1.0044 H   0  0  0  0  0  0  0  0  0  0  0  0
    4.1948    0.3891    0.9970 H   0  0  0  0  0  0  0  0  0  0  0  0
    5.9911    1.7669   -0.0446 H   0  0  0  0  0  0  0  0  0  0  0  0
    5.3438    1.3999   -1.6611 H   0  0  0  0  0  0  0  0  0  0  0  0
    6.0203    0.1090   -0.6812 H   0  0  0  0  0  0  0  0  0  0  0  0
    0.8626    0.0183   -0.6918 H   0  0  0  0  0  0  0  0  0  0  0  0
   -2.2459    2.2853   -0.8825 H   0  0  0  0  0  0  0  0  0  0  0  0
   -2.4781    2.4077    0.8647 H   0  0  0  0  0  0  0  0  0  0  0  0
   -3.7054    3.0503   -0.2378 H   0  0  0  0  0  0  0  0  0  0  0  0
   -5.1116    1.4594   -1.6518 H   0  0  0  0  0  0  0  0  0  0  0  0
   -4.9448   -0.2924   -1.4661 H   0  0  0  0  0  0  0  0  0  0  0  0
   -3.6637    0.6311   -2.2524 H   0  0  0  0  0  0  0  0  0  0  0  0
   -5.3167   -0.0869    1.0565 H   0  0  0  0  0  0  0  0  0  0  0  0
   -5.4667    1.6711    0.9400 H   0  0  0  0  0  0  0  0  0  0  0  0
   -4.2666    0.9478    2.0263 H   0  0  0  0  0  0  0  0  0  0  0  0
    2.7035   -3.9211    1.6813 H   0  0  0  0  0  0  0  0  0  0  0  0
  1  2  1  0
  2  3  1  0
  2  4  1  0
  4  5  1  0
  5  6  2  0
  6  7  1  0
  7  8  1  0
  8  9  1  0
  9 10  2  0
 10 11  1  0
 11 12  1  0
 11 13  1  0
 11 14  1  0
 10 15  1  0
 15 16  1  0
 16 17  2  0
  7 18  2  0
 18 19  1  0
 18 20  1  0
 20 21  2  0
 21 22  1  0
 21  5  1  0
 16  8  1  0
  1 23  1  0
  1 24  1  0
  1 25  1  0
  2 26  1  0
  3 27  1  0
  3 28  1  0
  3 29  1  0
  6 30  1  0
 12 31  1  0
 12 32  1  0
 12 33  1  0
 13 34  1  0
 13 35  1  0
 13 36  1  0
 14 37  1  0
 14 38  1  0
 14 39  1  0
 20 40  1  0
M  END
$$$$
