
     RDKit          3D

 45 47  0  0  0  0  0  0  0  0999 V2000
   -5.5391   -1.3084    1.4951 C   0  0  0  0  0  0  0  0  0  0  0  0
   -4.7027   -1.0643    0.3700 O   0  0  0  0  0  0  0  0  0  0  0  0
   -4.7264    0.1988   -0.1644 C   0  0  0  0  0  0  0  0  0  0  0  0
   -5.3791    1.2945    0.4112 C   0  0  0  0  0  0  0  0  0  0  0  0
   -5.3237    2.5526   -0.1944 C   0  0  0  0  0  0  0  0  0  0  0  0
   -4.6083    2.7297   -1.3745 C   0  0  0  0  0  0  0  0  0  0  0  0
   -3.9539    1.6461   -1.9556 C   0  0  0  0  0  0  0  0  0  0  0  0
   -4.0147    0.3714   -1.3675 C   0  0  0  0  0  0  0  0  0  0  0  0
   -3.2757   -0.7708   -2.0213 C   0  0  0  0  0  0  0  0  0  0  0  0
   -1.9603   -0.9209   -1.4459 N   0  0  0  0  0  0  0  0  0  0  0  0
   -0.8388   -0.3771   -2.0445 C   0  0  0  0  0  0  0  0  0  0  0  0
   -0.8857    0.1334   -3.1623 O   0  0  0  0  0  0  0  0  0  0  0  0
    0.4041   -0.4554   -1.2407 C   0  0  0  0  0  0  0  0  0  0  0  0
    0.5844   -0.9977    0.0886 C   0  0  0  0  0  0  0  0  0  0  0  0
    1.9115   -0.8162    0.3561 C   0  0  0  0  0  0  0  0  0  0  0  0
    2.4329   -0.2273   -0.7427 N   0  0  0  0  0  0  0  0  0  0  0  0
    1.5821    0.0184   -1.7249 N   0  0  0  0  0  0  0  0  0  0  0  0
    3.8527    0.0669   -0.6742 C   0  0  0  0  0  0  0  0  0  0  0  0
    4.2737   -0.8145    0.5395 C   0  0  1  0  0  0  0  0  0  0  0  0
    5.4596   -0.4155    1.3232 N   0  0  0  0  0  0  0  0  0  0  0  0
    6.6873   -0.5611    0.5335 C   0  0  0  0  0  0  0  0  0  0  0  0
    5.3859    0.9379    1.8778 C   0  0  0  0  0  0  0  0  0  0  0  0
    2.9537   -1.0205    1.3815 C   0  0  0  0  0  0  0  0  0  0  0  0
   -6.5864   -1.0766    1.2750 H   0  0  0  0  0  0  0  0  0  0  0  0
   -5.1830   -0.7549    2.3698 H   0  0  0  0  0  0  0  0  0  0  0  0
   -5.4798   -2.3765    1.7292 H   0  0  0  0  0  0  0  0  0  0  0  0
   -5.9352    1.2077    1.3391 H   0  0  0  0  0  0  0  0  0  0  0  0
   -5.8319    3.3985    0.2619 H   0  0  0  0  0  0  0  0  0  0  0  0
   -4.5534    3.7106   -1.8398 H   0  0  0  0  0  0  0  0  0  0  0  0
   -3.3837    1.7961   -2.8723 H   0  0  0  0  0  0  0  0  0  0  0  0
   -3.8132   -1.7147   -1.8801 H   0  0  0  0  0  0  0  0  0  0  0  0
   -3.2085   -0.6142   -3.1043 H   0  0  0  0  0  0  0  0  0  0  0  0
   -1.9284   -1.2038   -0.4802 H   0  0  0  0  0  0  0  0  0  0  0  0
   -0.1545   -1.4435    0.7396 H   0  0  0  0  0  0  0  0  0  0  0  0
    3.9467    1.1428   -0.5049 H   0  0  0  0  0  0  0  0  0  0  0  0
    4.3357   -0.2363   -1.6076 H   0  0  0  0  0  0  0  0  0  0  0  0
    4.4901   -1.8165    0.1302 H   0  0  0  0  0  0  0  0  0  0  0  0
    7.5688   -0.3431    1.1468 H   0  0  0  0  0  0  0  0  0  0  0  0
    6.8017   -1.5935    0.1814 H   0  0  0  0  0  0  0  0  0  0  0  0
    6.7022    0.1058   -0.3365 H   0  0  0  0  0  0  0  0  0  0  0  0
    4.4921    1.0797    2.4920 H   0  0  0  0  0  0  0  0  0  0  0  0
    5.4001    1.7129    1.1035 H   0  0  0  0  0  0  0  0  0  0  0  0
    6.2401    1.1182    2.5403 H   0  0  0  0  0  0  0  0  0  0  0  0
    2.9219   -2.0220    1.8235 H   0  0  0  0  0  0  0  0  0  0  0  0
    2.8392   -0.2766    2.1764 H   0  0  0  0  0  0  0  0  0  0  0  0
  1  2  1  0
  2  3  1  0
  3  4  2  0
  4  5  1  0
  5  6  2  0
  6  7  1  0
  7  8  2  0
  8  9  1  0
  9 10  1  0
 10 11  1  0
 11 12  2  0
 11 13  1  0
 13 14  1  0
 14 15  2  0
 15 16  1  0
 16 17  1  0
 16 18  1  0
 18 19  1  0
 19 20  1  0
 20 21  1  0
 20 22  1  0
 19 23  1  0
  8  3  1  0
 17 13  2  0
 23 15  1  0
  1 24  1  0
  1 25  1  0
  1 26  1  0
  4 27  1  0
  5 28  1  0
  6 29  1  0
  7 30  1  0
  9 31  1  0
  9 32  1  0
 10 33  1  0
 14 34  1  0
 18 35  1  0
 18 36  1  0
 19 37  1  6
 21 38  1  0
 21 39  1  0
 21 40  1  0
 22 41  1  0
 22 42  1  0
 22 43  1  0
 23 44  1  0
 23 45  1  0
M  END
$$$$
