
     RDKit          3D

 43 44  0  0  0  0  0  0  0  0999 V2000
    6.7569    0.5415    0.4035 C   0  0  0  0  0  0  0  0  0  0  0  0
    5.2684    0.5805    0.0559 C   0  0  0  0  0  0  0  0  0  0  0  0
    5.0794    1.0761   -1.3795 C   0  0  0  0  0  0  0  0  0  0  0  0
    4.6444   -0.8083    0.2599 C   0  0  0  0  0  0  0  0  0  0  0  0
    3.2048   -0.7982    0.0959 N   0  0  0  0  0  0  0  0  0  0  0  0
    2.3532   -0.4336    1.1125 C   0  0  0  0  0  0  0  0  0  0  0  0
    2.7428   -0.0955    2.2258 O   0  0  0  0  0  0  0  0  0  0  0  0
    0.8962   -0.3934    0.8037 C   0  0  0  0  0  0  0  0  0  0  0  0
    0.1505    0.5864    1.4828 C   0  0  0  0  0  0  0  0  0  0  0  0
   -1.2219    0.7208    1.2636 C   0  0  0  0  0  0  0  0  0  0  0  0
   -1.8660   -0.1115    0.3511 C   0  0  0  0  0  0  0  0  0  0  0  0
   -3.2906    0.0156    0.2143 N   0  0  0  0  0  0  0  0  0  0  0  0
   -4.0977   -0.8366    1.1271 C   0  0  0  0  0  0  0  0  0  0  0  0
   -5.6023   -0.6812    0.8847 C   0  0  0  0  0  0  0  0  0  0  0  0
   -5.9653    0.7051    0.3619 C   0  0  0  0  0  0  0  0  0  0  0  0
   -5.4669    0.9306   -1.0622 C   0  0  0  0  0  0  0  0  0  0  0  0
   -3.8730    0.1811   -1.3747 S   0  0  0  0  0  6  0  0  0  0  0  0
   -3.0491    1.1427   -2.0758 O   0  0  0  0  0  0  0  0  0  0  0  0
   -4.0834   -1.1514   -1.9037 O   0  0  0  0  0  0  0  0  0  0  0  0
   -1.1468   -1.1208   -0.2929 C   0  0  0  0  0  0  0  0  0  0  0  0
    0.2318   -1.2594   -0.0767 C   0  0  0  0  0  0  0  0  0  0  0  0
    1.0100   -2.5653   -0.9020 Cl  0  0  0  0  0  0  0  0  0  0  0  0
    6.9053    0.2291    1.4425 H   0  0  0  0  0  0  0  0  0  0  0  0
    7.2103    1.5313    0.2853 H   0  0  0  0  0  0  0  0  0  0  0  0
    7.2981   -0.1587   -0.2420 H   0  0  0  0  0  0  0  0  0  0  0  0
    4.7810    1.2975    0.7286 H   0  0  0  0  0  0  0  0  0  0  0  0
    5.5340    0.3881   -2.1004 H   0  0  0  0  0  0  0  0  0  0  0  0
    4.0178    1.1752   -1.6278 H   0  0  0  0  0  0  0  0  0  0  0  0
    5.5420    2.0599   -1.5136 H   0  0  0  0  0  0  0  0  0  0  0  0
    5.0468   -1.5275   -0.4621 H   0  0  0  0  0  0  0  0  0  0  0  0
    4.8725   -1.1807    1.2653 H   0  0  0  0  0  0  0  0  0  0  0  0
    2.8250   -1.0448   -0.8102 H   0  0  0  0  0  0  0  0  0  0  0  0
    0.6434    1.2555    2.1875 H   0  0  0  0  0  0  0  0  0  0  0  0
   -1.7793    1.4863    1.7973 H   0  0  0  0  0  0  0  0  0  0  0  0
   -3.8841   -0.5219    2.1565 H   0  0  0  0  0  0  0  0  0  0  0  0
   -3.8098   -1.8904    1.0388 H   0  0  0  0  0  0  0  0  0  0  0  0
   -6.1359   -0.8807    1.8213 H   0  0  0  0  0  0  0  0  0  0  0  0
   -5.9443   -1.4416    0.1715 H   0  0  0  0  0  0  0  0  0  0  0  0
   -5.5405    1.4670    1.0275 H   0  0  0  0  0  0  0  0  0  0  0  0
   -7.0523    0.8433    0.3855 H   0  0  0  0  0  0  0  0  0  0  0  0
   -6.1628    0.4940   -1.7862 H   0  0  0  0  0  0  0  0  0  0  0  0
   -5.3850    2.0026   -1.2654 H   0  0  0  0  0  0  0  0  0  0  0  0
   -1.6571   -1.8085   -0.9638 H   0  0  0  0  0  0  0  0  0  0  0  0
  1  2  1  0
  2  3  1  0
  2  4  1  0
  4  5  1  0
  5  6  1  0
  6  7  2  0
  6  8  1  0
  8  9  2  0
  9 10  1  0
 10 11  2  0
 11 12  1  0
 12 13  1  0
 13 14  1  0
 14 15  1  0
 15 16  1  0
 16 17  1  0
 17 18  2  0
 17 19  2  0
 11 20  1  0
 20 21  2  0
 21 22  1  0
 21  8  1  0
 17 12  1  0
  1 23  1  0
  1 24  1  0
  1 25  1  0
  2 26  1  0
  3 27  1  0
  3 28  1  0
  3 29  1  0
  4 30  1  0
  4 31  1  0
  5 32  1  0
  9 33  1  0
 10 34  1  0
 13 35  1  0
 13 36  1  0
 14 37  1  0
 14 38  1  0
 15 39  1  0
 15 40  1  0
 16 41  1  0
 16 42  1  0
 20 43  1  0
M  END
$$$$
