
     RDKit          3D

 61 66  0  0  0  0  0  0  0  0999 V2000
    7.4883   -1.7374    0.8399 C   0  0  0  0  0  0  0  0  0  0  0  0
    7.1988   -0.4191    0.1023 C   0  0  0  0  0  0  0  0  0  0  0  0
    8.3372    0.5581    0.4446 C   0  0  0  0  0  0  0  0  0  0  0  0
    5.8919    0.1791    0.4478 N   0  0  0  0  0  0  0  0  0  0  0  0
    5.5332    1.3310   -0.4127 C   0  0  0  0  0  0  0  0  0  0  0  0
    4.2469    1.1574   -1.2556 C   0  0  0  0  0  0  0  0  0  0  0  0
    3.0505    0.7462   -0.5020 N   0  0  0  0  0  0  0  0  0  0  0  0
    2.2256    1.9011   -0.1153 C   0  0  0  0  0  0  0  0  0  0  0  0
    0.9082    1.5048    0.4450 C   0  0  0  0  0  0  0  0  0  0  0  0
    0.2887    1.6609    1.6617 C   0  0  0  0  0  0  0  0  0  0  0  0
   -0.9588    1.0909    1.6296 N   0  0  0  0  0  0  0  0  0  0  0  0
   -1.0565    0.5963    0.4078 C   0  0  0  0  0  0  0  0  0  0  0  0
   -2.1697   -0.1181   -0.1993 C   0  0  0  0  0  0  0  0  0  0  0  0
   -3.4307   -0.1406    0.4322 C   0  0  0  0  0  0  0  0  0  0  0  0
   -4.5297   -0.8144   -0.1209 C   0  0  0  0  0  0  0  0  0  0  0  0
   -5.8231   -0.8060    0.5620 C   0  0  0  0  0  0  0  0  0  0  0  0
   -6.1933   -1.8300    1.4533 C   0  0  0  0  0  0  0  0  0  0  0  0
   -7.4294   -1.8131    2.0967 C   0  0  0  0  0  0  0  0  0  0  0  0
   -8.3401   -0.7774    1.8763 C   0  0  0  0  0  0  0  0  0  0  0  0
   -7.9668    0.2389    0.9893 C   0  0  0  0  0  0  0  0  0  0  0  0
   -8.6557    1.3643    0.5948 N   0  0  0  0  0  0  0  0  0  0  0  0
   -7.9112    2.0896   -0.2960 C   0  0  0  0  0  0  0  0  0  0  0  0
   -6.7192    1.4286   -0.4811 C   0  0  0  0  0  0  0  0  0  0  0  0
   -6.7362    0.2522    0.3277 C   0  0  0  0  0  0  0  0  0  0  0  0
   -4.3801   -1.5001   -1.3369 C   0  0  0  0  0  0  0  0  0  0  0  0
   -3.1233   -1.4808   -1.9517 C   0  0  0  0  0  0  0  0  0  0  0  0
   -2.6841   -2.0519   -3.1173 N   0  0  0  0  0  0  0  0  0  0  0  0
   -1.3894   -1.8242   -3.3867 N   0  0  0  0  0  0  0  0  0  0  0  0
   -0.9874   -1.0752   -2.3553 C   0  0  0  0  0  0  0  0  0  0  0  0
   -2.0212   -0.8141   -1.4195 C   0  0  0  0  0  0  0  0  0  0  0  0
    0.0423    0.8336   -0.3738 O   0  0  0  0  0  0  0  0  0  0  0  0
    3.4156   -0.0831    0.6654 C   0  0  0  0  0  0  0  0  0  0  0  0
    4.7808   -0.7905    0.5170 C   0  0  0  0  0  0  0  0  0  0  0  0
    7.4086   -1.6137    1.9258 H   0  0  0  0  0  0  0  0  0  0  0  0
    6.8034   -2.5336    0.5301 H   0  0  0  0  0  0  0  0  0  0  0  0
    8.5020   -2.0908    0.6184 H   0  0  0  0  0  0  0  0  0  0  0  0
    7.2287   -0.6345   -0.9742 H   0  0  0  0  0  0  0  0  0  0  0  0
    9.3103    0.1176    0.1976 H   0  0  0  0  0  0  0  0  0  0  0  0
    8.2654    1.4974   -0.1120 H   0  0  0  0  0  0  0  0  0  0  0  0
    8.3424    0.8008    1.5138 H   0  0  0  0  0  0  0  0  0  0  0  0
    6.3395    1.5923   -1.1071 H   0  0  0  0  0  0  0  0  0  0  0  0
    5.4035    2.1990    0.2457 H   0  0  0  0  0  0  0  0  0  0  0  0
    4.4391    0.3811   -2.0088 H   0  0  0  0  0  0  0  0  0  0  0  0
    4.0615    2.0718   -1.8332 H   0  0  0  0  0  0  0  0  0  0  0  0
    2.0189    2.5148   -1.0018 H   0  0  0  0  0  0  0  0  0  0  0  0
    2.7601    2.5446    0.5951 H   0  0  0  0  0  0  0  0  0  0  0  0
    0.6690    2.1471    2.5490 H   0  0  0  0  0  0  0  0  0  0  0  0
   -3.5545    0.3893    1.3782 H   0  0  0  0  0  0  0  0  0  0  0  0
   -5.5032   -2.6487    1.6483 H   0  0  0  0  0  0  0  0  0  0  0  0
   -7.6879   -2.6167    2.7824 H   0  0  0  0  0  0  0  0  0  0  0  0
   -9.3010   -0.7664    2.3803 H   0  0  0  0  0  0  0  0  0  0  0  0
   -9.5789    1.6133    0.9218 H   0  0  0  0  0  0  0  0  0  0  0  0
   -8.2901    3.0107   -0.7177 H   0  0  0  0  0  0  0  0  0  0  0  0
   -5.9126    1.7516   -1.1271 H   0  0  0  0  0  0  0  0  0  0  0  0
   -5.2187   -2.0268   -1.7849 H   0  0  0  0  0  0  0  0  0  0  0  0
   -3.2189   -2.6140   -3.7699 H   0  0  0  0  0  0  0  0  0  0  0  0
    0.0454   -0.7499   -2.3248 H   0  0  0  0  0  0  0  0  0  0  0  0
    2.6383   -0.8425    0.8117 H   0  0  0  0  0  0  0  0  0  0  0  0
    3.4535    0.5196    1.5838 H   0  0  0  0  0  0  0  0  0  0  0  0
    4.9107   -1.4357    1.3933 H   0  0  0  0  0  0  0  0  0  0  0  0
    4.7632   -1.4351   -0.3719 H   0  0  0  0  0  0  0  0  0  0  0  0
  1  2  1  0
  2  3  1  0
  2  4  1  0
  4  5  1  0
  5  6  1  0
  6  7  1  0
  7  8  1  0
  8  9  1  0
  9 10  2  0
 10 11  1  0
 11 12  2  0
 12 13  1  0
 13 14  2  0
 14 15  1  0
 15 16  1  0
 16 17  2  0
 17 18  1  0
 18 19  2  0
 19 20  1  0
 20 21  1  0
 21 22  1  0
 22 23  2  0
 23 24  1  0
 15 25  2  0
 25 26  1  0
 26 27  1  0
 27 28  1  0
 28 29  2  0
 29 30  1  0
 12 31  1  0
  7 32  1  0
 32 33  1  0
 33  4  1  0
 31  9  1  0
 30 13  1  0
 24 16  1  0
 30 26  2  0
 24 20  2  0
  1 34  1  0
  1 35  1  0
  1 36  1  0
  2 37  1  0
  3 38  1  0
  3 39  1  0
  3 40  1  0
  5 41  1  0
  5 42  1  0
  6 43  1  0
  6 44  1  0
  8 45  1  0
  8 46  1  0
 10 47  1  0
 14 48  1  0
 17 49  1  0
 18 50  1  0
 19 51  1  0
 21 52  1  0
 22 53  1  0
 23 54  1  0
 25 55  1  0
 27 56  1  0
 29 57  1  0
 32 58  1  0
 32 59  1  0
 33 60  1  0
 33 61  1  0
M  END
$$$$
