
     RDKit          3D

 49 52  0  0  0  0  0  0  0  0999 V2000
   -5.6628   -1.6396   -0.9686 C   0  0  0  0  0  0  0  0  0  0  0  0
   -5.4290   -0.5533    0.0879 C   0  0  2  0  0  0  0  0  0  0  0  0
   -6.4650    0.5688   -0.0333 C   0  0  0  0  0  0  0  0  0  0  0  0
   -5.7842    1.9200   -0.0249 C   0  0  0  0  0  0  0  0  0  0  0  0
   -4.8237    1.9225   -1.0760 O   0  0  0  0  0  0  0  0  0  0  0  0
   -3.7173    1.0460   -0.8421 C   0  0  1  0  0  0  0  0  0  0  0  0
   -2.5356    1.8590   -0.2875 C   0  0  0  0  0  0  0  0  0  0  0  0
   -1.3839    0.9723   -0.0586 N   0  0  0  0  0  0  0  0  0  0  0  0
   -0.0853    1.4556   -0.1542 C   0  0  0  0  0  0  0  0  0  0  0  0
    1.0239    0.7351    0.0695 C   0  0  0  0  0  0  0  0  0  0  0  0
    2.3504    1.3940   -0.0715 C   0  0  0  0  0  0  0  0  0  0  0  0
    2.4516    2.5724   -0.4014 O   0  0  0  0  0  0  0  0  0  0  0  0
    3.4351    0.6017    0.1960 N   0  0  0  0  0  0  0  0  0  0  0  0
    4.7799    1.1308    0.1782 C   0  0  0  0  0  0  0  0  0  0  0  0
    5.8099    0.0404    0.2840 C   0  0  0  0  0  0  0  0  0  0  0  0
    5.8415   -1.0170   -0.6426 C   0  0  0  0  0  0  0  0  0  0  0  0
    6.8088   -2.0185   -0.5350 C   0  0  0  0  0  0  0  0  0  0  0  0
    7.7474   -1.9619    0.4912 C   0  0  0  0  0  0  0  0  0  0  0  0
    8.6726   -2.9255    0.5906 F   0  0  0  0  0  0  0  0  0  0  0  0
    7.7382   -0.9255    1.4129 C   0  0  0  0  0  0  0  0  0  0  0  0
    6.7728    0.0685    1.2991 C   0  0  0  0  0  0  0  0  0  0  0  0
    6.7711    1.0661    2.1952 F   0  0  0  0  0  0  0  0  0  0  0  0
    0.8187   -0.6844    0.4445 C   0  0  0  0  0  0  0  0  0  0  0  0
    1.7580   -1.4581    0.6447 O   0  0  0  0  0  0  0  0  0  0  0  0
   -0.5772   -1.2026    0.6011 C   0  0  0  0  0  0  0  0  0  0  0  0
   -0.6995   -2.5291    0.9657 O   0  0  0  0  0  0  0  0  0  0  0  0
   -1.6023   -0.3552    0.3677 C   0  0  0  0  0  0  0  0  0  0  0  0
   -3.0331   -0.8472    0.5860 C   0  0  0  0  0  0  0  0  0  0  0  0
   -3.2887   -1.8546    1.2397 O   0  0  0  0  0  0  0  0  0  0  0  0
   -4.0531   -0.0525    0.0492 N   0  0  0  0  0  0  0  0  0  0  0  0
   -4.9821   -2.4859   -0.8242 H   0  0  0  0  0  0  0  0  0  0  0  0
   -5.4967   -1.2542   -1.9814 H   0  0  0  0  0  0  0  0  0  0  0  0
   -6.6871   -2.0237   -0.9107 H   0  0  0  0  0  0  0  0  0  0  0  0
   -5.5722   -1.0280    1.0679 H   0  0  0  0  0  0  0  0  0  0  0  0
   -7.0208    0.4629   -0.9757 H   0  0  0  0  0  0  0  0  0  0  0  0
   -7.2037    0.5022    0.7750 H   0  0  0  0  0  0  0  0  0  0  0  0
   -6.5157    2.7077   -0.2237 H   0  0  0  0  0  0  0  0  0  0  0  0
   -5.3067    2.1473    0.9353 H   0  0  0  0  0  0  0  0  0  0  0  0
   -3.4357    0.6062   -1.8078 H   0  0  0  0  0  0  0  0  0  0  0  0
   -2.8113    2.3392    0.6609 H   0  0  0  0  0  0  0  0  0  0  0  0
   -2.2889    2.6663   -0.9891 H   0  0  0  0  0  0  0  0  0  0  0  0
   -0.0211    2.5074   -0.4336 H   0  0  0  0  0  0  0  0  0  0  0  0
    3.2855   -0.3558    0.5104 H   0  0  0  0  0  0  0  0  0  0  0  0
    4.8572    1.8401    1.0101 H   0  0  0  0  0  0  0  0  0  0  0  0
    4.9328    1.6971   -0.7486 H   0  0  0  0  0  0  0  0  0  0  0  0
    5.1094   -1.0650   -1.4477 H   0  0  0  0  0  0  0  0  0  0  0  0
    6.8368   -2.8403   -1.2445 H   0  0  0  0  0  0  0  0  0  0  0  0
    8.4686   -0.8923    2.2124 H   0  0  0  0  0  0  0  0  0  0  0  0
    0.2124   -2.8594    1.0982 H   0  0  0  0  0  0  0  0  0  0  0  0
  1  2  1  0
  2  3  1  0
  3  4  1  0
  4  5  1  0
  5  6  1  0
  6  7  1  0
  7  8  1  0
  8  9  1  0
  9 10  2  0
 10 11  1  0
 11 12  2  0
 11 13  1  0
 13 14  1  0
 14 15  1  0
 15 16  2  0
 16 17  1  0
 17 18  2  0
 18 19  1  0
 18 20  1  0
 20 21  2  0
 21 22  1  0
 10 23  1  0
 23 24  2  0
 23 25  1  0
 25 26  1  0
 25 27  2  0
 27 28  1  0
 28 29  2  0
 28 30  1  0
 30  2  1  0
 30  6  1  0
 27  8  1  0
 21 15  1  0
  1 31  1  0
  1 32  1  0
  1 33  1  0
  2 34  1  1
  3 35  1  0
  3 36  1  0
  4 37  1  0
  4 38  1  0
  6 39  1  6
  7 40  1  0
  7 41  1  0
  9 42  1  0
 13 43  1  0
 14 44  1  0
 14 45  1  0
 16 46  1  0
 17 47  1  0
 20 48  1  0
 26 49  1  0
M  END
$$$$
