
     RDKit          3D

 41 43  0  0  0  0  0  0  0  0999 V2000
   -4.9443   -3.6111    0.7136 C   0  0  0  0  0  0  0  0  0  0  0  0
   -5.4160   -2.2710    0.7640 O   0  0  0  0  0  0  0  0  0  0  0  0
   -4.4871   -1.2737    0.6347 C   0  0  0  0  0  0  0  0  0  0  0  0
   -3.1129   -1.4500    0.4568 C   0  0  0  0  0  0  0  0  0  0  0  0
   -2.2580   -0.3432    0.3362 C   0  0  0  0  0  0  0  0  0  0  0  0
   -0.8818   -0.6158    0.1589 N   0  0  0  0  0  0  0  0  0  0  0  0
    0.1597    0.2934    0.0156 C   0  0  0  0  0  0  0  0  0  0  0  0
    0.0189    1.5122    0.0240 O   0  0  0  0  0  0  0  0  0  0  0  0
    1.4696   -0.3278   -0.1502 C   0  0  0  0  0  0  0  0  0  0  0  0
    1.9164   -1.6376   -0.1977 C   0  0  0  0  0  0  0  0  0  0  0  0
    3.3226   -1.5889   -0.3815 C   0  0  0  0  0  0  0  0  0  0  0  0
    3.6713   -0.2553   -0.4380 C   0  0  0  0  0  0  0  0  0  0  0  0
    4.9272    0.4727   -0.6077 C   0  0  0  0  0  0  0  0  0  0  0  0
    4.9567    1.8772   -0.6231 C   0  0  0  0  0  0  0  0  0  0  0  0
    6.1601    2.5719   -0.7858 C   0  0  0  0  0  0  0  0  0  0  0  0
    7.3499    1.8664   -0.9352 C   0  0  0  0  0  0  0  0  0  0  0  0
    8.8319    2.7159   -1.1355 Cl  0  0  0  0  0  0  0  0  0  0  0  0
    7.3456    0.4743   -0.9232 C   0  0  0  0  0  0  0  0  0  0  0  0
    6.1400   -0.2178   -0.7603 C   0  0  0  0  0  0  0  0  0  0  0  0
    2.5478    0.5055   -0.2976 O   0  0  0  0  0  0  0  0  0  0  0  0
   -2.8044    0.9398    0.3970 C   0  0  0  0  0  0  0  0  0  0  0  0
   -4.1801    1.1278    0.5749 C   0  0  0  0  0  0  0  0  0  0  0  0
   -4.5777    2.4370    0.6160 O   0  0  0  0  0  0  0  0  0  0  0  0
   -5.9660    2.6860    0.7950 C   0  0  0  0  0  0  0  0  0  0  0  0
   -5.0149    0.0184    0.6929 C   0  0  0  0  0  0  0  0  0  0  0  0
   -5.8068   -4.2741    0.8315 H   0  0  0  0  0  0  0  0  0  0  0  0
   -4.2512   -3.8165    1.5360 H   0  0  0  0  0  0  0  0  0  0  0  0
   -4.4850   -3.8312   -0.2557 H   0  0  0  0  0  0  0  0  0  0  0  0
   -2.6920   -2.4479    0.4101 H   0  0  0  0  0  0  0  0  0  0  0  0
   -0.6335   -1.5927    0.1346 H   0  0  0  0  0  0  0  0  0  0  0  0
    1.3192   -2.5334   -0.1125 H   0  0  0  0  0  0  0  0  0  0  0  0
    3.9962   -2.4303   -0.4625 H   0  0  0  0  0  0  0  0  0  0  0  0
    4.0363    2.4484   -0.5078 H   0  0  0  0  0  0  0  0  0  0  0  0
    6.1557    3.6586   -0.7942 H   0  0  0  0  0  0  0  0  0  0  0  0
    8.2735   -0.0793   -1.0397 H   0  0  0  0  0  0  0  0  0  0  0  0
    6.1655   -1.3045   -0.7547 H   0  0  0  0  0  0  0  0  0  0  0  0
   -2.1870    1.8286    0.3091 H   0  0  0  0  0  0  0  0  0  0  0  0
   -6.1124    3.7704    0.8052 H   0  0  0  0  0  0  0  0  0  0  0  0
   -6.3168    2.2938    1.7553 H   0  0  0  0  0  0  0  0  0  0  0  0
   -6.5505    2.2791   -0.0367 H   0  0  0  0  0  0  0  0  0  0  0  0
   -6.0857    0.1247    0.8317 H   0  0  0  0  0  0  0  0  0  0  0  0
  1  2  1  0
  2  3  1  0
  3  4  2  0
  4  5  1  0
  5  6  1  0
  6  7  1  0
  7  8  2  0
  7  9  1  0
  9 10  2  0
 10 11  1  0
 11 12  2  0
 12 13  1  0
 13 14  2  0
 14 15  1  0
 15 16  2  0
 16 17  1  0
 16 18  1  0
 18 19  2  0
 12 20  1  0
  5 21  2  0
 21 22  1  0
 22 23  1  0
 23 24  1  0
 22 25  2  0
 25  3  1  0
 20  9  1  0
 19 13  1  0
  1 26  1  0
  1 27  1  0
  1 28  1  0
  4 29  1  0
  6 30  1  0
 10 31  1  0
 11 32  1  0
 14 33  1  0
 15 34  1  0
 18 35  1  0
 19 36  1  0
 21 37  1  0
 24 38  1  0
 24 39  1  0
 24 40  1  0
 25 41  1  0
M  END
$$$$
