
     RDKit          3D

 37 40  0  0  0  0  0  0  0  0999 V2000
    5.2739   -1.2330    0.0151 C   0  0  0  0  0  0  0  0  0  0  0  0
    4.2481   -0.3821   -0.5228 N   0  0  0  0  0  0  0  0  0  0  0  0
    4.0656   -0.0756   -1.8382 C   0  0  0  0  0  0  0  0  0  0  0  0
    3.0198    0.7097   -1.9677 N   0  0  0  0  0  0  0  0  0  0  0  0
    2.4991    0.9200   -0.7108 N   0  0  0  0  0  0  0  0  0  0  0  0
    3.2483    0.2615    0.1429 C   0  0  0  0  0  0  0  0  0  0  0  0
    3.0148    0.1797    1.8520 S   0  0  0  0  0  0  0  0  0  0  0  0
    1.2170    0.4980    1.9261 C   0  0  0  0  0  0  0  0  0  0  0  0
    0.4403   -0.6113    1.2610 C   0  0  0  0  0  0  0  0  0  0  0  0
    0.8129   -1.7807    1.1990 O   0  0  0  0  0  0  0  0  0  0  0  0
   -0.7981   -0.2420    0.6781 N   0  0  0  0  0  0  0  0  0  0  0  0
   -1.3974   -0.9441   -0.3803 C   0  0  0  0  0  0  0  0  0  0  0  0
   -0.9913   -2.1054   -1.0715 C   0  0  0  0  0  0  0  0  0  0  0  0
   -1.7676   -2.5670   -2.1385 C   0  0  0  0  0  0  0  0  0  0  0  0
   -2.9166   -1.8922   -2.5251 C   0  0  0  0  0  0  0  0  0  0  0  0
   -3.3128   -0.7367   -1.8486 C   0  0  0  0  0  0  0  0  0  0  0  0
   -2.5451   -0.2534   -0.7652 C   0  0  0  0  0  0  0  0  0  0  0  0
   -2.6935    0.8577    0.1089 C   0  0  0  0  0  0  0  0  0  0  0  0
   -3.6742    1.8712    0.2026 C   0  0  0  0  0  0  0  0  0  0  0  0
   -3.6109    2.8159    1.2259 C   0  0  0  0  0  0  0  0  0  0  0  0
   -2.5945    2.7514    2.1653 C   0  0  0  0  0  0  0  0  0  0  0  0
   -1.6081    1.7616    2.0905 C   0  0  0  0  0  0  0  0  0  0  0  0
   -1.6393    0.8290    1.0295 C   0  0  0  0  0  0  0  0  0  0  0  0
    5.8735   -0.6569    0.7244 H   0  0  0  0  0  0  0  0  0  0  0  0
    5.9142   -1.5907   -0.7957 H   0  0  0  0  0  0  0  0  0  0  0  0
    4.8016   -2.0859    0.5091 H   0  0  0  0  0  0  0  0  0  0  0  0
    4.6945   -0.4356   -2.6402 H   0  0  0  0  0  0  0  0  0  0  0  0
    1.0351    1.4679    1.4572 H   0  0  0  0  0  0  0  0  0  0  0  0
    0.9411    0.5330    2.9830 H   0  0  0  0  0  0  0  0  0  0  0  0
   -0.0871   -2.6432   -0.7999 H   0  0  0  0  0  0  0  0  0  0  0  0
   -1.4598   -3.4620   -2.6741 H   0  0  0  0  0  0  0  0  0  0  0  0
   -3.5089   -2.2601   -3.3587 H   0  0  0  0  0  0  0  0  0  0  0  0
   -4.2128   -0.2126   -2.1577 H   0  0  0  0  0  0  0  0  0  0  0  0
   -4.4897    1.9071   -0.5148 H   0  0  0  0  0  0  0  0  0  0  0  0
   -4.3708    3.5899    1.2949 H   0  0  0  0  0  0  0  0  0  0  0  0
   -2.5658    3.4772    2.9755 H   0  0  0  0  0  0  0  0  0  0  0  0
   -0.8553    1.7399    2.8691 H   0  0  0  0  0  0  0  0  0  0  0  0
  1  2  1  0
  2  3  1  0
  3  4  2  0
  4  5  1  0
  5  6  2  0
  6  7  1  0
  7  8  1  0
  8  9  1  0
  9 10  2  0
  9 11  1  0
 11 12  1  0
 12 13  2  0
 13 14  1  0
 14 15  2  0
 15 16  1  0
 16 17  2  0
 17 18  1  0
 18 19  2  0
 19 20  1  0
 20 21  2  0
 21 22  1  0
 22 23  2  0
  6  2  1  0
 23 11  1  0
 17 12  1  0
 23 18  1  0
  1 24  1  0
  1 25  1  0
  1 26  1  0
  3 27  1  0
  8 28  1  0
  8 29  1  0
 13 30  1  0
 14 31  1  0
 15 32  1  0
 16 33  1  0
 19 34  1  0
 20 35  1  0
 21 36  1  0
 22 37  1  0
M  END
$$$$
