
     RDKit          3D

 55 59  0  0  0  0  0  0  0  0999 V2000
    0.8548   -0.1585    1.3656 O   0  0  0  0  0  0  0  0  0  0  0  0
    1.2238    1.0007    1.1936 C   0  0  0  0  0  0  0  0  0  0  0  0
    0.6038    2.1477    1.9977 C   0  0  0  0  0  0  0  0  0  0  0  0
   -0.3382    2.9201    1.1777 N   0  0  0  0  0  0  0  0  0  0  0  0
    0.2018    4.0159    0.5021 C   0  0  0  0  0  0  0  0  0  0  0  0
    1.4238    4.2063    0.4559 O   0  0  0  0  0  0  0  0  0  0  0  0
   -0.7542    5.0300   -0.0736 C   0  0  0  0  0  0  0  0  0  0  0  0
   -1.9572    4.2708   -1.1577 S   0  0  0  0  0  0  0  0  0  0  0  0
   -2.4976    2.9814   -0.0537 C   0  0  0  0  0  0  0  0  0  0  0  0
   -3.7871    2.4737   -0.2826 C   0  0  0  0  0  0  0  0  0  0  0  0
   -4.2767    1.4107    0.4681 C   0  0  0  0  0  0  0  0  0  0  0  0
   -3.4612    0.8465    1.4353 C   0  0  0  0  0  0  0  0  0  0  0  0
   -3.9418   -0.3218    2.1943 C   0  0  0  0  0  0  0  0  0  0  0  0
   -4.6857   -0.1345    3.1500 O   0  0  0  0  0  0  0  0  0  0  0  0
   -3.5039   -1.5597    1.7793 N   0  0  0  0  0  0  0  0  0  0  0  0
   -3.8787   -2.7713    2.4876 C   0  0  0  0  0  0  0  0  0  0  0  0
   -2.9212   -3.8349    1.9602 C   0  0  0  0  0  0  0  0  0  0  0  0
   -2.6413   -3.3635    0.5383 C   0  0  0  0  0  0  0  0  0  0  0  0
   -2.5712   -1.8499    0.6965 C   0  0  0  0  0  0  0  0  0  0  0  0
   -2.1846    1.3543    1.6901 C   0  0  0  0  0  0  0  0  0  0  0  0
   -1.6741    2.4355    0.9529 C   0  0  0  0  0  0  0  0  0  0  0  0
    2.1782    1.4423    0.2946 N   0  0  0  0  0  0  0  0  0  0  0  0
    2.9378    0.6775   -0.6103 C   0  0  0  0  0  0  0  0  0  0  0  0
    3.8388    1.3732   -1.4279 C   0  0  0  0  0  0  0  0  0  0  0  0
    4.6311    0.6962   -2.3581 C   0  0  0  0  0  0  0  0  0  0  0  0
    4.5215   -0.6838   -2.4821 C   0  0  0  0  0  0  0  0  0  0  0  0
    3.6116   -1.3817   -1.6861 C   0  0  0  0  0  0  0  0  0  0  0  0
    2.8381   -0.7055   -0.7389 C   0  0  0  0  0  0  0  0  0  0  0  0
    3.4225   -2.7386   -1.7792 O   0  0  0  0  0  0  0  0  0  0  0  0
    3.9889   -3.2698   -2.9813 C   0  0  0  0  0  0  0  0  0  0  0  0
    5.3821   -2.7049   -3.2132 C   0  0  0  0  0  0  0  0  0  0  0  0
    5.3326   -1.2861   -3.4078 O   0  0  0  0  0  0  0  0  0  0  0  0
    0.1337    1.7716    2.9104 H   0  0  0  0  0  0  0  0  0  0  0  0
    1.4166    2.7945    2.3551 H   0  0  0  0  0  0  0  0  0  0  0  0
   -1.2473    5.5565    0.7489 H   0  0  0  0  0  0  0  0  0  0  0  0
   -0.1862    5.7650   -0.6546 H   0  0  0  0  0  0  0  0  0  0  0  0
   -4.4153    2.8991   -1.0612 H   0  0  0  0  0  0  0  0  0  0  0  0
   -5.2708    1.0140    0.2878 H   0  0  0  0  0  0  0  0  0  0  0  0
   -3.8020   -2.6364    3.5709 H   0  0  0  0  0  0  0  0  0  0  0  0
   -4.9170   -3.0029    2.2259 H   0  0  0  0  0  0  0  0  0  0  0  0
   -3.3420   -4.8437    2.0023 H   0  0  0  0  0  0  0  0  0  0  0  0
   -1.9912   -3.8227    2.5456 H   0  0  0  0  0  0  0  0  0  0  0  0
   -3.4851   -3.6344   -0.1127 H   0  0  0  0  0  0  0  0  0  0  0  0
   -1.7268   -3.7896    0.1193 H   0  0  0  0  0  0  0  0  0  0  0  0
   -1.5716   -1.5321    1.0226 H   0  0  0  0  0  0  0  0  0  0  0  0
   -2.8469   -1.3126   -0.2163 H   0  0  0  0  0  0  0  0  0  0  0  0
   -1.6182    0.8544    2.4650 H   0  0  0  0  0  0  0  0  0  0  0  0
    2.3071    2.4552    0.2458 H   0  0  0  0  0  0  0  0  0  0  0  0
    3.9370    2.4545   -1.3514 H   0  0  0  0  0  0  0  0  0  0  0  0
    5.3313    1.2441   -2.9811 H   0  0  0  0  0  0  0  0  0  0  0  0
    2.1566   -1.2865   -0.1326 H   0  0  0  0  0  0  0  0  0  0  0  0
    4.0388   -4.3609   -2.8711 H   0  0  0  0  0  0  0  0  0  0  0  0
    3.3142   -3.0382   -3.8181 H   0  0  0  0  0  0  0  0  0  0  0  0
    5.8242   -3.1458   -4.1113 H   0  0  0  0  0  0  0  0  0  0  0  0
    6.0443   -2.9211   -2.3660 H   0  0  0  0  0  0  0  0  0  0  0  0
  1  2  2  0
  2  3  1  0
  3  4  1  0
  4  5  1  0
  5  6  2  0
  5  7  1  0
  7  8  1  0
  8  9  1  0
  9 10  2  0
 10 11  1  0
 11 12  2  0
 12 13  1  0
 13 14  2  0
 13 15  1  0
 15 16  1  0
 16 17  1  0
 17 18  1  0
 18 19  1  0
 12 20  1  0
 20 21  2  0
  2 22  1  0
 22 23  1  0
 23 24  2  0
 24 25  1  0
 25 26  2  0
 26 27  1  0
 27 28  2  0
 27 29  1  0
 29 30  1  0
 30 31  1  0
 31 32  1  0
 21  4  1  0
 28 23  1  0
 21  9  1  0
 32 26  1  0
 19 15  1  0
  3 33  1  0
  3 34  1  0
  7 35  1  0
  7 36  1  0
 10 37  1  0
 11 38  1  0
 16 39  1  0
 16 40  1  0
 17 41  1  0
 17 42  1  0
 18 43  1  0
 18 44  1  0
 19 45  1  0
 19 46  1  0
 20 47  1  0
 22 48  1  0
 24 49  1  0
 25 50  1  0
 28 51  1  0
 30 52  1  0
 30 53  1  0
 31 54  1  0
 31 55  1  0
M  END
$$$$
