
     RDKit          3D

 43 45  0  0  0  0  0  0  0  0999 V2000
   -0.7078    3.0538   -2.6173 C   0  0  0  0  0  0  0  0  0  0  0  0
   -0.4539    2.1636   -1.5355 O   0  0  0  0  0  0  0  0  0  0  0  0
   -1.5251    1.5024   -0.9749 C   0  0  0  0  0  0  0  0  0  0  0  0
   -2.7898    1.5365   -1.4228 C   0  0  0  0  0  0  0  0  0  0  0  0
   -3.8561    0.7673   -0.7402 C   0  0  0  0  0  0  0  0  0  0  0  0
   -5.0025    0.8377   -1.1743 O   0  0  0  0  0  0  0  0  0  0  0  0
   -3.4586    0.0021    0.3486 N   0  0  0  0  0  0  0  0  0  0  0  0
   -2.1448   -0.0109    0.8333 C   0  0  0  0  0  0  0  0  0  0  0  0
   -1.1916    0.7144    0.2065 C   0  0  0  0  0  0  0  0  0  0  0  0
    0.1970    0.7328    0.7772 C   0  0  0  0  0  0  0  0  0  0  0  0
    0.3844    1.1084    1.9289 O   0  0  0  0  0  0  0  0  0  0  0  0
    1.1409    0.2593   -0.1123 N   0  0  0  0  0  0  0  0  0  0  0  0
    2.5234    0.0984    0.1034 C   0  0  0  0  0  0  0  0  0  0  0  0
    3.1564    0.3514    1.3184 C   0  0  0  0  0  0  0  0  0  0  0  0
    4.5353    0.1616    1.4491 C   0  0  0  0  0  0  0  0  0  0  0  0
    5.2939   -0.2846    0.3651 C   0  0  0  0  0  0  0  0  0  0  0  0
    7.1597   -0.5148    0.6327 Br  0  0  0  0  0  0  0  0  0  0  0  0
    4.6813   -0.5478   -0.8676 C   0  0  0  0  0  0  0  0  0  0  0  0
    5.4539   -1.0292   -2.0635 C   0  0  0  0  0  0  0  0  0  0  0  0
    3.2923   -0.3508   -0.9806 C   0  0  0  0  0  0  0  0  0  0  0  0
   -1.9189   -0.8790    2.0571 C   0  0  0  0  0  0  0  0  0  0  0  0
   -2.5771   -2.2524    1.9068 C   0  0  0  0  0  0  0  0  0  0  0  0
   -3.9939   -2.1938    1.3322 C   0  0  0  0  0  0  0  0  0  0  0  0
   -4.4694   -0.7690    1.0725 C   0  0  0  0  0  0  0  0  0  0  0  0
   -1.3943    3.8517   -2.3158 H   0  0  0  0  0  0  0  0  0  0  0  0
    0.2423    3.5151   -2.9026 H   0  0  0  0  0  0  0  0  0  0  0  0
   -1.0936    2.5113   -3.4863 H   0  0  0  0  0  0  0  0  0  0  0  0
   -3.1183    2.0992   -2.2849 H   0  0  0  0  0  0  0  0  0  0  0  0
    0.8059    0.0592   -1.0465 H   0  0  0  0  0  0  0  0  0  0  0  0
    2.6079    0.6987    2.1884 H   0  0  0  0  0  0  0  0  0  0  0  0
    5.0053    0.3677    2.4078 H   0  0  0  0  0  0  0  0  0  0  0  0
    4.8006   -1.1778   -2.9302 H   0  0  0  0  0  0  0  0  0  0  0  0
    6.2124   -0.2942   -2.3509 H   0  0  0  0  0  0  0  0  0  0  0  0
    5.9323   -1.9902   -1.8491 H   0  0  0  0  0  0  0  0  0  0  0  0
    2.8091   -0.5521   -1.9345 H   0  0  0  0  0  0  0  0  0  0  0  0
   -2.3395   -0.3656    2.9313 H   0  0  0  0  0  0  0  0  0  0  0  0
   -0.8589   -1.0436    2.2726 H   0  0  0  0  0  0  0  0  0  0  0  0
   -2.5936   -2.7540    2.8819 H   0  0  0  0  0  0  0  0  0  0  0  0
   -1.9577   -2.8814    1.2543 H   0  0  0  0  0  0  0  0  0  0  0  0
   -4.6950   -2.7031    2.0032 H   0  0  0  0  0  0  0  0  0  0  0  0
   -4.0094   -2.7537    0.3882 H   0  0  0  0  0  0  0  0  0  0  0  0
   -5.4128   -0.7972    0.5169 H   0  0  0  0  0  0  0  0  0  0  0  0
   -4.6716   -0.2472    2.0163 H   0  0  0  0  0  0  0  0  0  0  0  0
  1  2  1  0
  2  3  1  0
  3  4  2  0
  4  5  1  0
  5  6  2  0
  5  7  1  0
  7  8  1  0
  8  9  2  0
  9 10  1  0
 10 11  2  0
 10 12  1  0
 12 13  1  0
 13 14  2  0
 14 15  1  0
 15 16  2  0
 16 17  1  0
 16 18  1  0
 18 19  1  0
 18 20  2  0
  8 21  1  0
 21 22  1  0
 22 23  1  0
 23 24  1  0
  9  3  1  0
 20 13  1  0
 24  7  1  0
  1 25  1  0
  1 26  1  0
  1 27  1  0
  4 28  1  0
 12 29  1  0
 14 30  1  0
 15 31  1  0
 19 32  1  0
 19 33  1  0
 19 34  1  0
 20 35  1  0
 21 36  1  0
 21 37  1  0
 22 38  1  0
 22 39  1  0
 23 40  1  0
 23 41  1  0
 24 42  1  0
 24 43  1  0
M  END
$$$$
