
     RDKit          3D

 54 57  0  0  0  0  0  0  0  0999 V2000
   -6.2390    0.8453    1.8281 C   0  0  0  0  0  0  0  0  0  0  0  0
   -5.4343   -0.0750    0.9236 C   0  0  0  0  0  0  0  0  0  0  0  0
   -5.5511    0.2549   -0.5051 N   0  0  0  0  0  0  0  0  0  0  0  0
   -6.8730    0.1137   -1.1229 C   0  0  0  0  0  0  0  0  0  0  0  0
   -7.3424   -1.3286   -1.2573 C   0  0  0  0  0  0  0  0  0  0  0  0
   -4.4556    0.1033   -1.3589 C   0  0  0  0  0  0  0  0  0  0  0  0
   -4.5686   -0.3223   -2.5078 O   0  0  0  0  0  0  0  0  0  0  0  0
   -3.2172    0.4650   -0.8364 N   0  0  0  0  0  0  0  0  0  0  0  0
   -3.0665    1.7829   -0.2193 C   0  0  0  0  0  0  0  0  0  0  0  0
   -1.9015    1.7928    0.7676 C   0  0  0  0  0  0  0  0  0  0  0  0
   -0.6738    1.1107    0.2109 C   0  0  0  0  0  0  0  0  0  0  0  0
    0.4998    1.3729    0.8981 N   0  0  0  0  0  0  0  0  0  0  0  0
    1.5609    0.8386    0.4043 C   0  0  0  0  0  0  0  0  0  0  0  0
    2.9490    0.8937    0.8992 C   0  0  0  0  0  0  0  0  0  0  0  0
    3.6412    0.1147    0.0471 C   0  0  0  0  0  0  0  0  0  0  0  0
    5.0640   -0.2361    0.1501 C   0  0  0  0  0  0  0  0  0  0  0  0
    5.6982   -0.3648    1.3941 C   0  0  0  0  0  0  0  0  0  0  0  0
    7.0526   -0.7162    1.4829 C   0  0  0  0  0  0  0  0  0  0  0  0
    7.7950   -0.9475    0.3266 C   0  0  0  0  0  0  0  0  0  0  0  0
    9.1156   -1.2955    0.2721 O   0  0  0  0  0  0  0  0  0  0  0  0
    9.8009   -1.4191    1.5118 C   0  0  0  0  0  0  0  0  0  0  0  0
    7.1709   -0.8257   -0.9152 C   0  0  0  0  0  0  0  0  0  0  0  0
    5.8198   -0.4758   -1.0050 C   0  0  0  0  0  0  0  0  0  0  0  0
    2.8635   -0.3641   -1.0031 N   0  0  0  0  0  0  0  0  0  0  0  0
    1.5676    0.0512   -0.7238 N   0  0  0  0  0  0  0  0  0  0  0  0
    0.4504   -0.3192   -1.4245 C   0  0  0  0  0  0  0  0  0  0  0  0
    0.4261   -1.0956   -2.3728 O   0  0  0  0  0  0  0  0  0  0  0  0
   -0.7801    0.3204   -0.8811 C   0  0  0  0  0  0  0  0  0  0  0  0
   -2.0554    0.0216   -1.6075 C   0  0  0  0  0  0  0  0  0  0  0  0
   -6.0336    0.6140    2.8782 H   0  0  0  0  0  0  0  0  0  0  0  0
   -5.9847    1.8950    1.6519 H   0  0  0  0  0  0  0  0  0  0  0  0
   -7.3149    0.7266    1.6702 H   0  0  0  0  0  0  0  0  0  0  0  0
   -4.3886   -0.0594    1.2422 H   0  0  0  0  0  0  0  0  0  0  0  0
   -5.7601   -1.1123    1.0584 H   0  0  0  0  0  0  0  0  0  0  0  0
   -7.5967    0.6949   -0.5437 H   0  0  0  0  0  0  0  0  0  0  0  0
   -6.8409    0.5700   -2.1199 H   0  0  0  0  0  0  0  0  0  0  0  0
   -8.2990   -1.3640   -1.7882 H   0  0  0  0  0  0  0  0  0  0  0  0
   -6.6216   -1.9365   -1.8124 H   0  0  0  0  0  0  0  0  0  0  0  0
   -7.4885   -1.7933   -0.2775 H   0  0  0  0  0  0  0  0  0  0  0  0
   -3.9843    2.1082    0.2765 H   0  0  0  0  0  0  0  0  0  0  0  0
   -2.8916    2.5033   -1.0300 H   0  0  0  0  0  0  0  0  0  0  0  0
   -2.1944    1.2741    1.6889 H   0  0  0  0  0  0  0  0  0  0  0  0
   -1.6722    2.8309    1.0354 H   0  0  0  0  0  0  0  0  0  0  0  0
    3.2613    1.4120    1.7855 H   0  0  0  0  0  0  0  0  0  0  0  0
    5.1463   -0.2052    2.3178 H   0  0  0  0  0  0  0  0  0  0  0  0
    7.4921   -0.8033    2.4710 H   0  0  0  0  0  0  0  0  0  0  0  0
    9.3671   -2.2159    2.1248 H   0  0  0  0  0  0  0  0  0  0  0  0
   10.8378   -1.6933    1.2948 H   0  0  0  0  0  0  0  0  0  0  0  0
    9.8144   -0.4668    2.0523 H   0  0  0  0  0  0  0  0  0  0  0  0
    7.7414   -1.0019   -1.8243 H   0  0  0  0  0  0  0  0  0  0  0  0
    5.3708   -0.3790   -1.9917 H   0  0  0  0  0  0  0  0  0  0  0  0
    2.9501   -1.3701   -1.1548 H   0  0  0  0  0  0  0  0  0  0  0  0
   -2.0643    0.5315   -2.5788 H   0  0  0  0  0  0  0  0  0  0  0  0
   -2.1629   -1.0554   -1.7836 H   0  0  0  0  0  0  0  0  0  0  0  0
  1  2  1  0
  2  3  1  0
  3  4  1  0
  4  5  1  0
  3  6  1  0
  6  7  2  0
  6  8  1  0
  8  9  1  0
  9 10  1  0
 10 11  1  0
 11 12  1  0
 12 13  2  0
 13 14  1  0
 14 15  2  0
 15 16  1  0
 16 17  2  0
 17 18  1  0
 18 19  2  0
 19 20  1  0
 20 21  1  0
 19 22  1  0
 22 23  2  0
 15 24  1  0
 24 25  1  0
 25 26  1  0
 26 27  2  0
 26 28  1  0
 28 29  1  0
 29  8  1  0
 28 11  2  0
 25 13  1  0
 23 16  1  0
  1 30  1  0
  1 31  1  0
  1 32  1  0
  2 33  1  0
  2 34  1  0
  4 35  1  0
  4 36  1  0
  5 37  1  0
  5 38  1  0
  5 39  1  0
  9 40  1  0
  9 41  1  0
 10 42  1  0
 10 43  1  0
 14 44  1  0
 17 45  1  0
 18 46  1  0
 21 47  1  0
 21 48  1  0
 21 49  1  0
 22 50  1  0
 23 51  1  0
 24 52  1  0
 29 53  1  0
 29 54  1  0
M  END
$$$$
