
     RDKit          3D

 48 48  0  0  0  0  0  0  0  0999 V2000
    7.4008    0.2780    1.3495 C   0  0  0  0  0  0  0  0  0  0  0  0
    6.0579   -0.2075    0.8514 C   0  0  0  0  0  0  0  0  0  0  0  0
    5.2868    0.9647    0.3817 C   0  0  0  0  0  0  0  0  0  0  0  0
    5.7672    2.1280    0.4346 O   0  0  0  0  0  0  0  0  0  0  0  0
    3.9598    0.7791   -0.1475 C   0  0  0  0  0  0  0  0  0  0  0  0
    3.4269   -0.4838   -0.2095 C   0  0  0  0  0  0  0  0  0  0  0  0
    2.1356   -0.6211   -0.7301 C   0  0  0  0  0  0  0  0  0  0  0  0
    1.3855    0.4406   -1.1761 C   0  0  0  0  0  0  0  0  0  0  0  0
    0.1315    0.3666   -1.6849 O   0  0  0  0  0  0  0  0  0  0  0  0
   -0.7586   -0.6444   -1.8984 C   0  0  0  0  0  0  0  0  0  0  0  0
   -1.2732   -1.3749   -0.6791 C   0  0  0  0  0  0  0  0  0  0  0  0
   -2.1776   -2.3723   -1.0439 O   0  0  0  0  0  0  0  0  0  0  0  0
   -1.8593   -0.3799    0.2559 C   0  0  0  0  0  0  0  0  0  0  0  0
   -2.9578    0.3534   -0.2314 N   0  0  0  0  0  0  0  0  0  0  0  0
   -3.4392    1.3072    0.7662 C   0  0  0  0  0  0  0  0  0  0  0  0
   -4.9196    1.2374    0.9447 C   0  0  0  0  0  0  0  0  0  0  0  0
   -5.4975   -0.1306    1.0611 C   0  0  0  0  0  0  0  0  0  0  0  0
   -4.7968   -1.1220    0.1607 C   0  0  0  0  0  0  0  0  0  0  0  0
   -4.0222   -0.3220   -0.8761 C   0  0  0  0  0  0  0  0  0  0  0  0
    1.9691    1.7265   -1.0964 C   0  0  0  0  0  0  0  0  0  0  0  0
    3.2290    1.8694   -0.5901 C   0  0  0  0  0  0  0  0  0  0  0  0
    0.6913    0.0000    0.0000 Cl  0  0  0  0  0  0  0  0  0  0  0  0
    8.1448   -0.5255    1.1751 H   0  0  0  0  0  0  0  0  0  0  0  0
    7.6438    1.2066    0.8015 H   0  0  0  0  0  0  0  0  0  0  0  0
    7.2765    0.4795    2.4481 H   0  0  0  0  0  0  0  0  0  0  0  0
    5.4774   -0.7033    1.6781 H   0  0  0  0  0  0  0  0  0  0  0  0
    6.2478   -0.9357    0.0274 H   0  0  0  0  0  0  0  0  0  0  0  0
    3.9665   -1.3639    0.1267 H   0  0  0  0  0  0  0  0  0  0  0  0
    1.7297   -1.6141   -0.7941 H   0  0  0  0  0  0  0  0  0  0  0  0
   -1.5967   -0.2932   -2.5476 H   0  0  0  0  0  0  0  0  0  0  0  0
   -0.2646   -1.4578   -2.5220 H   0  0  0  0  0  0  0  0  0  0  0  0
   -0.4241   -1.8894   -0.1992 H   0  0  0  0  0  0  0  0  0  0  0  0
   -2.1984   -3.0589   -0.3413 H   0  0  0  0  0  0  0  0  0  0  0  0
   -1.0496    0.2676    0.6787 H   0  0  0  0  0  0  0  0  0  0  0  0
   -2.2295   -0.9718    1.1507 H   0  0  0  0  0  0  0  0  0  0  0  0
   -2.8746    1.2310    1.7182 H   0  0  0  0  0  0  0  0  0  0  0  0
   -3.2012    2.3195    0.3464 H   0  0  0  0  0  0  0  0  0  0  0  0
   -5.3994    1.8590    0.1352 H   0  0  0  0  0  0  0  0  0  0  0  0
   -5.1297    1.7606    1.9287 H   0  0  0  0  0  0  0  0  0  0  0  0
   -6.5569   -0.0594    0.6709 H   0  0  0  0  0  0  0  0  0  0  0  0
   -5.5555   -0.4973    2.1095 H   0  0  0  0  0  0  0  0  0  0  0  0
   -4.0809   -1.6848    0.7884 H   0  0  0  0  0  0  0  0  0  0  0  0
   -5.5355   -1.7960   -0.3290 H   0  0  0  0  0  0  0  0  0  0  0  0
   -4.7907    0.4659   -1.2045 H   0  0  0  0  0  0  0  0  0  0  0  0
   -3.7490   -0.9452   -1.7236 H   0  0  0  0  0  0  0  0  0  0  0  0
    1.4260    2.5936   -1.4325 H   0  0  0  0  0  0  0  0  0  0  0  0
    3.6753    2.8780   -0.5323 H   0  0  0  0  0  0  0  0  0  0  0  0
   -0.6913    0.0000    0.0000 H   0  0  0  0  0  0  0  0  0  0  0  0
  1  2  1  0
  2  3  1  0
  3  4  2  0
  3  5  1  0
  5  6  2  0
  6  7  1  0
  7  8  2  0
  8  9  1  0
  9 10  1  0
 10 11  1  0
 11 12  1  0
 11 13  1  0
 13 14  1  0
 14 15  1  0
 15 16  1  0
 16 17  1  0
 17 18  1  0
 18 19  1  0
  8 20  1  0
 20 21  2  0
 21  5  1  0
 19 14  1  0
  1 23  1  0
  1 24  1  0
  1 25  1  0
  2 26  1  0
  2 27  1  0
  6 28  1  0
  7 29  1  0
 10 30  1  0
 10 31  1  0
 11 32  1  0
 12 33  1  0
 13 34  1  0
 13 35  1  0
 15 36  1  0
 15 37  1  0
 16 38  1  0
 16 39  1  0
 17 40  1  0
 17 41  1  0
 18 42  1  0
 18 43  1  0
 19 44  1  0
 19 45  1  0
 20 46  1  0
 21 47  1  0
 22 48  1  0
M  END
$$$$
