
     RDKit          3D

 45 47  0  0  0  0  0  0  0  0999 V2000
   -2.3478    1.2050   -1.6837 O   0  0  0  0  0  0  0  0  0  0  0  0
   -1.5735    0.3749   -1.2087 C   0  0  0  0  0  0  0  0  0  0  0  0
   -2.2041   -0.8546   -0.7071 C   0  0  0  0  0  0  0  0  0  0  0  0
   -2.4885   -1.8854   -1.6107 C   0  0  0  0  0  0  0  0  0  0  0  0
   -3.1427   -3.0347   -1.1627 C   0  0  0  0  0  0  0  0  0  0  0  0
   -3.5317   -3.1322    0.1743 C   0  0  0  0  0  0  0  0  0  0  0  0
   -4.3335   -4.5504    0.7271 Cl  0  0  0  0  0  0  0  0  0  0  0  0
   -3.2882   -2.0848    1.0647 C   0  0  0  0  0  0  0  0  0  0  0  0
   -2.6358   -0.9331    0.6196 C   0  0  0  0  0  0  0  0  0  0  0  0
   -0.1862    0.5402   -1.1631 N   0  0  0  0  0  0  0  0  0  0  0  0
    0.3249    1.8084   -1.6996 C   0  0  0  0  0  0  0  0  0  0  0  0
    0.6732    2.8067   -0.6189 C   0  0  0  0  0  0  0  0  0  0  0  0
    2.0102    3.1307   -0.3455 C   0  0  0  0  0  0  0  0  0  0  0  0
    2.3257    4.0457    0.6607 C   0  0  0  0  0  0  0  0  0  0  0  0
    1.3099    4.6472    1.4014 C   0  0  0  0  0  0  0  0  0  0  0  0
   -0.0224    4.3363    1.1366 C   0  0  0  0  0  0  0  0  0  0  0  0
   -0.3396    3.4218    0.1315 C   0  0  0  0  0  0  0  0  0  0  0  0
    0.8124   -0.3350   -0.5013 C   0  0  0  0  0  0  0  0  0  0  0  0
    0.7843   -0.2468    1.0362 C   0  0  0  0  0  0  0  0  0  0  0  0
    1.2408   -1.5364    1.7209 C   0  0  0  0  0  0  0  0  0  0  0  0
    2.4105   -2.1764    0.9818 C   0  0  0  0  0  0  0  0  0  0  0  0
    2.0689   -2.5294   -0.4686 C   0  0  0  0  0  0  0  0  0  0  0  0
    0.8439   -1.7830   -1.0052 C   0  0  0  0  0  0  0  0  0  0  0  0
   -2.2021   -1.7912   -2.6554 H   0  0  0  0  0  0  0  0  0  0  0  0
   -3.3540   -3.8422   -1.8587 H   0  0  0  0  0  0  0  0  0  0  0  0
   -3.6157   -2.1539    2.0989 H   0  0  0  0  0  0  0  0  0  0  0  0
   -2.4815   -0.0988    1.2986 H   0  0  0  0  0  0  0  0  0  0  0  0
    1.2015    1.5819   -2.3194 H   0  0  0  0  0  0  0  0  0  0  0  0
   -0.3992    2.2714   -2.3806 H   0  0  0  0  0  0  0  0  0  0  0  0
    2.8156    2.6709   -0.9132 H   0  0  0  0  0  0  0  0  0  0  0  0
    3.3644    4.2911    0.8658 H   0  0  0  0  0  0  0  0  0  0  0  0
    1.5556    5.3613    2.1830 H   0  0  0  0  0  0  0  0  0  0  0  0
   -0.8165    4.8076    1.7098 H   0  0  0  0  0  0  0  0  0  0  0  0
   -1.3844    3.1905   -0.0700 H   0  0  0  0  0  0  0  0  0  0  0  0
    1.7903    0.0691   -0.8024 H   0  0  0  0  0  0  0  0  0  0  0  0
   -0.2003    0.0325    1.4174 H   0  0  0  0  0  0  0  0  0  0  0  0
    1.4495    0.5690    1.3477 H   0  0  0  0  0  0  0  0  0  0  0  0
    1.5247   -1.3197    2.7570 H   0  0  0  0  0  0  0  0  0  0  0  0
    0.4048   -2.2453    1.7673 H   0  0  0  0  0  0  0  0  0  0  0  0
    2.7435   -3.0769    1.5103 H   0  0  0  0  0  0  0  0  0  0  0  0
    3.2600   -1.4817    0.9908 H   0  0  0  0  0  0  0  0  0  0  0  0
    2.9399   -2.3156   -1.0999 H   0  0  0  0  0  0  0  0  0  0  0  0
    1.8885   -3.6080   -0.5538 H   0  0  0  0  0  0  0  0  0  0  0  0
    0.8436   -1.8144   -2.1012 H   0  0  0  0  0  0  0  0  0  0  0  0
   -0.0388   -2.3324   -0.6717 H   0  0  0  0  0  0  0  0  0  0  0  0
  1  2  2  0
  2  3  1  0
  3  4  2  0
  4  5  1  0
  5  6  2  0
  6  7  1  0
  6  8  1  0
  8  9  2  0
  2 10  1  0
 10 11  1  0
 11 12  1  0
 12 13  2  0
 13 14  1  0
 14 15  2  0
 15 16  1  0
 16 17  2  0
 10 18  1  0
 18 19  1  0
 19 20  1  0
 20 21  1  0
 21 22  1  0
 22 23  1  0
  9  3  1  0
 17 12  1  0
 23 18  1  0
  4 24  1  0
  5 25  1  0
  8 26  1  0
  9 27  1  0
 11 28  1  0
 11 29  1  0
 13 30  1  0
 14 31  1  0
 15 32  1  0
 16 33  1  0
 17 34  1  0
 18 35  1  0
 19 36  1  0
 19 37  1  0
 20 38  1  0
 20 39  1  0
 21 40  1  0
 21 41  1  0
 22 42  1  0
 22 43  1  0
 23 44  1  0
 23 45  1  0
M  END
$$$$
