
     RDKit          3D

 39 41  0  0  0  0  0  0  0  0999 V2000
   -4.7948    1.1610    1.8750 C   0  0  0  0  0  0  0  0  0  0  0  0
   -5.1560    0.1238    0.9076 N   0  0  0  0  0  0  0  0  0  0  0  0
   -6.5642    0.0967    0.5140 C   0  0  0  0  0  0  0  0  0  0  0  0
   -4.1874   -0.3220   -0.0005 C   0  0  0  0  0  0  0  0  0  0  0  0
   -4.5201   -1.0982   -1.1265 C   0  0  0  0  0  0  0  0  0  0  0  0
   -3.5576   -1.5571   -2.0361 C   0  0  0  0  0  0  0  0  0  0  0  0
   -2.2136   -1.2684   -1.8361 C   0  0  0  0  0  0  0  0  0  0  0  0
   -1.8381   -0.5306   -0.7135 C   0  0  0  0  0  0  0  0  0  0  0  0
   -0.4126   -0.1978   -0.4369 C   0  0  0  0  0  0  0  0  0  0  0  0
   -0.1437    0.8713    0.1012 O   0  0  0  0  0  0  0  0  0  0  0  0
    0.4947   -1.1704   -0.7979 N   0  0  0  0  0  0  0  0  0  0  0  0
    1.8451   -1.0143   -0.6289 C   0  0  0  0  0  0  0  0  0  0  0  0
    2.6561   -0.0071   -0.1763 C   0  0  0  0  0  0  0  0  0  0  0  0
    3.9806   -0.5216   -0.2725 C   0  0  0  0  0  0  0  0  0  0  0  0
    5.2416    0.1440    0.0854 C   0  0  0  0  0  0  0  0  0  0  0  0
    5.2527    1.3527    0.7808 C   0  0  0  0  0  0  0  0  0  0  0  0
    6.4770    1.9430    1.0928 C   0  0  0  0  0  0  0  0  0  0  0  0
    7.6544    1.3168    0.7060 C   0  0  0  0  0  0  0  0  0  0  0  0
    7.5599    0.1194    0.0200 C   0  0  0  0  0  0  0  0  0  0  0  0
    6.3893   -0.4740   -0.2959 N   0  0  0  0  0  0  0  0  0  0  0  0
    3.9443   -1.7746   -0.7639 N   0  0  0  0  0  0  0  0  0  0  0  0
    2.6161   -2.0734   -0.9815 O   0  0  0  0  0  0  0  0  0  0  0  0
   -2.8171   -0.0611    0.1804 C   0  0  0  0  0  0  0  0  0  0  0  0
   -5.6461    1.4222    2.5137 H   0  0  0  0  0  0  0  0  0  0  0  0
   -4.4690    2.0762    1.3682 H   0  0  0  0  0  0  0  0  0  0  0  0
   -4.0081    0.8137    2.5533 H   0  0  0  0  0  0  0  0  0  0  0  0
   -6.9037   -0.9274    0.3259 H   0  0  0  0  0  0  0  0  0  0  0  0
   -7.2079    0.4829    1.3124 H   0  0  0  0  0  0  0  0  0  0  0  0
   -6.7364    0.7122   -0.3759 H   0  0  0  0  0  0  0  0  0  0  0  0
   -5.5521   -1.3671   -1.3328 H   0  0  0  0  0  0  0  0  0  0  0  0
   -3.8697   -2.1359   -2.9022 H   0  0  0  0  0  0  0  0  0  0  0  0
   -1.4863   -1.6033   -2.5693 H   0  0  0  0  0  0  0  0  0  0  0  0
    0.1907   -2.0713   -1.1408 H   0  0  0  0  0  0  0  0  0  0  0  0
    2.3384    0.9642    0.1697 H   0  0  0  0  0  0  0  0  0  0  0  0
    4.3356    1.8413    1.0904 H   0  0  0  0  0  0  0  0  0  0  0  0
    6.5087    2.8837    1.6354 H   0  0  0  0  0  0  0  0  0  0  0  0
    8.6221    1.7492    0.9341 H   0  0  0  0  0  0  0  0  0  0  0  0
    8.4490   -0.4134   -0.3051 H   0  0  0  0  0  0  0  0  0  0  0  0
   -2.4718    0.5149    1.0347 H   0  0  0  0  0  0  0  0  0  0  0  0
  1  2  1  0
  2  3  1  0
  2  4  1  0
  4  5  2  0
  5  6  1  0
  6  7  2  0
  7  8  1  0
  8  9  1  0
  9 10  2  0
  9 11  1  0
 11 12  1  0
 12 13  2  0
 13 14  1  0
 14 15  1  0
 15 16  2  0
 16 17  1  0
 17 18  2  0
 18 19  1  0
 19 20  2  0
 14 21  2  0
 21 22  1  0
  8 23  2  0
 23  4  1  0
 22 12  1  0
 20 15  1  0
  1 24  1  0
  1 25  1  0
  1 26  1  0
  3 27  1  0
  3 28  1  0
  3 29  1  0
  5 30  1  0
  6 31  1  0
  7 32  1  0
 11 33  1  0
 13 34  1  0
 16 35  1  0
 17 36  1  0
 18 37  1  0
 19 38  1  0
 23 39  1  0
M  END
$$$$
