
     RDKit          3D

 36 38  0  0  0  0  0  0  0  0999 V2000
   -6.1453    1.7970   -0.4714 C   0  0  0  0  0  0  0  0  0  0  0  0
   -4.9677    0.9205   -0.1609 C   0  0  0  0  0  0  0  0  0  0  0  0
   -3.7861    1.4757    0.3477 C   0  0  0  0  0  0  0  0  0  0  0  0
   -2.6788    0.6661    0.6098 C   0  0  0  0  0  0  0  0  0  0  0  0
   -2.7406   -0.7018    0.3380 C   0  0  0  0  0  0  0  0  0  0  0  0
   -1.6958   -1.5572    0.6028 O   0  0  0  0  0  0  0  0  0  0  0  0
   -0.4517   -1.1950    0.1336 C   0  0  0  0  0  0  0  0  0  0  0  0
   -0.2460   -0.7574   -1.1956 C   0  0  0  0  0  0  0  0  0  0  0  0
    1.0371   -0.4333   -1.6500 C   0  0  0  0  0  0  0  0  0  0  0  0
    2.0769   -0.5768   -0.7527 C   0  0  0  0  0  0  0  0  0  0  0  0
    1.8736   -1.0250    0.5420 C   0  0  0  0  0  0  0  0  0  0  0  0
    0.6197   -1.3512    1.0174 C   0  0  0  0  0  0  0  0  0  0  0  0
    3.1757   -1.0612    1.2052 C   0  0  0  0  0  0  0  0  0  0  0  0
    3.3552   -1.3985    2.3591 O   0  0  0  0  0  0  0  0  0  0  0  0
    4.0917   -0.6499    0.2789 N   0  0  0  0  0  0  0  0  0  0  0  0
    5.4983   -0.4646    0.5645 C   0  0  0  0  0  0  0  0  0  0  0  0
    5.7194    0.9417    1.0878 C   0  0  0  0  0  0  0  0  0  0  0  0
    4.8834    1.8159    1.2543 O   0  0  0  0  0  0  0  0  0  0  0  0
    7.0163    1.1790    1.3803 O   0  0  0  0  0  0  0  0  0  0  0  0
    3.5089   -0.3275   -0.9136 C   0  0  0  0  0  0  0  0  0  0  0  0
    4.0289    0.0856   -1.9317 O   0  0  0  0  0  0  0  0  0  0  0  0
   -3.9144   -1.2662   -0.1584 C   0  0  0  0  0  0  0  0  0  0  0  0
   -5.0203   -0.4552   -0.4199 C   0  0  0  0  0  0  0  0  0  0  0  0
   -7.0841    1.2445   -0.3593 H   0  0  0  0  0  0  0  0  0  0  0  0
   -6.1878    2.6509    0.2131 H   0  0  0  0  0  0  0  0  0  0  0  0
   -6.0739    2.1690   -1.4981 H   0  0  0  0  0  0  0  0  0  0  0  0
   -3.7240    2.5426    0.5513 H   0  0  0  0  0  0  0  0  0  0  0  0
   -1.7801    1.1091    1.0292 H   0  0  0  0  0  0  0  0  0  0  0  0
   -1.0888   -0.6737   -1.8791 H   0  0  0  0  0  0  0  0  0  0  0  0
    1.2114   -0.0884   -2.6640 H   0  0  0  0  0  0  0  0  0  0  0  0
    0.4744   -1.7057    2.0321 H   0  0  0  0  0  0  0  0  0  0  0  0
    5.8108   -1.1805    1.3305 H   0  0  0  0  0  0  0  0  0  0  0  0
    6.0762   -0.5951   -0.3551 H   0  0  0  0  0  0  0  0  0  0  0  0
    7.0208    2.1056    1.7027 H   0  0  0  0  0  0  0  0  0  0  0  0
   -3.9672   -2.3346   -0.3481 H   0  0  0  0  0  0  0  0  0  0  0  0
   -5.9259   -0.9046   -0.8214 H   0  0  0  0  0  0  0  0  0  0  0  0
  1  2  1  0
  2  3  2  0
  3  4  1  0
  4  5  2  0
  5  6  1  0
  6  7  1  0
  7  8  2  0
  8  9  1  0
  9 10  2  0
 10 11  1  0
 11 12  2  0
 11 13  1  0
 13 14  2  0
 13 15  1  0
 15 16  1  0
 16 17  1  0
 17 18  2  0
 17 19  1  0
 15 20  1  0
 20 21  2  0
  5 22  1  0
 22 23  2  0
 23  2  1  0
 12  7  1  0
 20 10  1  0
  1 24  1  0
  1 25  1  0
  1 26  1  0
  3 27  1  0
  4 28  1  0
  8 29  1  0
  9 30  1  0
 12 31  1  0
 16 32  1  0
 16 33  1  0
 19 34  1  0
 22 35  1  0
 23 36  1  0
M  END
$$$$
