
     RDKit          3D

 49 52  0  0  0  0  0  0  0  0999 V2000
   -6.4588   -1.0987   -0.5563 C   0  0  0  0  0  0  0  0  0  0  0  0
   -5.3603   -0.2527   -1.0139 N   0  0  0  0  0  0  0  0  0  0  0  0
   -4.9962    0.7343    0.0260 C   0  0  0  0  0  0  0  0  0  0  0  0
   -3.5334    1.2288   -0.0544 C   0  0  0  0  0  0  0  0  0  0  0  0
   -2.6022    0.1016    0.1186 N   0  0  0  0  0  0  0  0  0  0  0  0
   -1.2864    0.2905    0.5067 C   0  0  0  0  0  0  0  0  0  0  0  0
   -0.4986   -0.7722    0.9750 C   0  0  0  0  0  0  0  0  0  0  0  0
    0.8341   -0.5947    1.3735 C   0  0  0  0  0  0  0  0  0  0  0  0
    1.4378    0.6645    1.3159 C   0  0  0  0  0  0  0  0  0  0  0  0
    2.8392    0.8594    1.7218 C   0  0  0  0  0  0  0  0  0  0  0  0
    3.1072    1.5764    2.8995 C   0  0  0  0  0  0  0  0  0  0  0  0
    4.4190    1.7512    3.3050 C   0  0  0  0  0  0  0  0  0  0  0  0
    5.4778    1.2705    2.6279 N   0  0  0  0  0  0  0  0  0  0  0  0
    5.2075    0.5865    1.4920 C   0  0  0  0  0  0  0  0  0  0  0  0
    3.9276    0.3435    0.9831 C   0  0  0  0  0  0  0  0  0  0  0  0
    3.7732   -0.4097   -0.2714 C   0  0  0  0  0  0  0  0  0  0  0  0
    3.2907    0.2131   -1.4360 C   0  0  0  0  0  0  0  0  0  0  0  0
    3.1422   -0.5093   -2.6198 C   0  0  0  0  0  0  0  0  0  0  0  0
    2.6807    0.1195   -3.7101 F   0  0  0  0  0  0  0  0  0  0  0  0
    3.4715   -1.8564   -2.6706 C   0  0  0  0  0  0  0  0  0  0  0  0
    3.3257   -2.5583   -3.8344 O   0  0  0  0  0  0  0  0  0  0  0  0
    3.9523   -2.4786   -1.5255 C   0  0  0  0  0  0  0  0  0  0  0  0
    4.2713   -3.7805   -1.5694 F   0  0  0  0  0  0  0  0  0  0  0  0
    4.1080   -1.7728   -0.3349 C   0  0  0  0  0  0  0  0  0  0  0  0
    0.6632    1.7379    0.8659 C   0  0  0  0  0  0  0  0  0  0  0  0
   -0.6699    1.5497    0.4722 C   0  0  0  0  0  0  0  0  0  0  0  0
   -3.0667   -1.2074   -0.3760 C   0  0  0  0  0  0  0  0  0  0  0  0
   -4.1881   -1.0501   -1.4312 C   0  0  0  0  0  0  0  0  0  0  0  0
   -6.1745   -1.7203    0.3003 H   0  0  0  0  0  0  0  0  0  0  0  0
   -6.7965   -1.7584   -1.3632 H   0  0  0  0  0  0  0  0  0  0  0  0
   -7.3218   -0.4874   -0.2698 H   0  0  0  0  0  0  0  0  0  0  0  0
   -5.6711    1.5939   -0.0579 H   0  0  0  0  0  0  0  0  0  0  0  0
   -5.1432    0.3052    1.0272 H   0  0  0  0  0  0  0  0  0  0  0  0
   -3.3933    1.9694    0.7422 H   0  0  0  0  0  0  0  0  0  0  0  0
   -3.3523    1.7217   -1.0174 H   0  0  0  0  0  0  0  0  0  0  0  0
   -0.9196   -1.7700    1.0635 H   0  0  0  0  0  0  0  0  0  0  0  0
    1.3922   -1.4550    1.7358 H   0  0  0  0  0  0  0  0  0  0  0  0
    2.2998    1.9844    3.5006 H   0  0  0  0  0  0  0  0  0  0  0  0
    4.6560    2.2972    4.2137 H   0  0  0  0  0  0  0  0  0  0  0  0
    6.0925    0.2269    0.9708 H   0  0  0  0  0  0  0  0  0  0  0  0
    3.0208    1.2663   -1.4345 H   0  0  0  0  0  0  0  0  0  0  0  0
    3.6074   -3.4751   -3.6593 H   0  0  0  0  0  0  0  0  0  0  0  0
    4.4806   -2.2983    0.5409 H   0  0  0  0  0  0  0  0  0  0  0  0
    1.0926    2.7356    0.8020 H   0  0  0  0  0  0  0  0  0  0  0  0
   -1.2097    2.4196    0.1089 H   0  0  0  0  0  0  0  0  0  0  0  0
   -2.2487   -1.7600   -0.8541 H   0  0  0  0  0  0  0  0  0  0  0  0
   -3.4315   -1.8032    0.4692 H   0  0  0  0  0  0  0  0  0  0  0  0
   -3.7563   -0.5410   -2.3034 H   0  0  0  0  0  0  0  0  0  0  0  0
   -4.4915   -2.0400   -1.7946 H   0  0  0  0  0  0  0  0  0  0  0  0
  1  2  1  0
  2  3  1  0
  3  4  1  0
  4  5  1  0
  5  6  1  0
  6  7  2  0
  7  8  1  0
  8  9  2  0
  9 10  1  0
 10 11  2  0
 11 12  1  0
 12 13  2  0
 13 14  1  0
 14 15  2  0
 15 16  1  0
 16 17  2  0
 17 18  1  0
 18 19  1  0
 18 20  2  0
 20 21  1  0
 20 22  1  0
 22 23  1  0
 22 24  2  0
  9 25  1  0
 25 26  2  0
  5 27  1  0
 27 28  1  0
 28  2  1  0
 26  6  1  0
 15 10  1  0
 24 16  1  0
  1 29  1  0
  1 30  1  0
  1 31  1  0
  3 32  1  0
  3 33  1  0
  4 34  1  0
  4 35  1  0
  7 36  1  0
  8 37  1  0
 11 38  1  0
 12 39  1  0
 14 40  1  0
 17 41  1  0
 21 42  1  0
 24 43  1  0
 25 44  1  0
 26 45  1  0
 27 46  1  0
 27 47  1  0
 28 48  1  0
 28 49  1  0
M  END
$$$$
