
     RDKit          3D

 54 57  0  0  0  0  0  0  0  0999 V2000
    9.6666    1.0428   -1.3692 C   0  0  0  0  0  0  0  0  0  0  0  0
    8.8636   -0.1259   -1.2511 O   0  0  0  0  0  0  0  0  0  0  0  0
    7.5515    0.0644   -0.9026 C   0  0  0  0  0  0  0  0  0  0  0  0
    6.9436    1.2843   -0.6148 C   0  0  0  0  0  0  0  0  0  0  0  0
    5.5859    1.3257   -0.2673 C   0  0  0  0  0  0  0  0  0  0  0  0
    4.8182    0.1507   -0.2051 C   0  0  0  0  0  0  0  0  0  0  0  0
    3.3965    0.1986    0.1727 C   0  0  0  0  0  0  0  0  0  0  0  0
    3.0233    0.7189    1.3523 C   0  0  0  0  0  0  0  0  0  0  0  0
    1.7424    0.8150    1.8406 O   0  0  0  0  0  0  0  0  0  0  0  0
    0.7263    0.3258    1.0604 C   0  0  0  0  0  0  0  0  0  0  0  0
   -0.5706    0.4256    1.5655 C   0  0  0  0  0  0  0  0  0  0  0  0
   -1.6579   -0.0555    0.8283 C   0  0  0  0  0  0  0  0  0  0  0  0
   -2.8713    0.1030    1.4382 O   0  0  0  0  0  0  0  0  0  0  0  0
   -4.0057   -0.5626    0.8631 C   0  0  2  0  0  0  0  0  0  0  0  0
   -4.4092    0.0737   -0.3520 O   0  0  0  0  0  0  0  0  0  0  0  0
   -5.7493   -0.2636   -0.7242 C   0  0  2  0  0  0  0  0  0  0  0  0
   -5.9995    0.2210   -2.1570 C   0  0  0  0  0  0  0  0  0  0  0  0
   -5.2387   -0.5719   -3.0731 O   0  0  0  0  0  0  0  0  0  0  0  0
   -6.7539    0.3801    0.2542 C   0  0  1  0  0  0  0  0  0  0  0  0
   -7.9231   -0.4526    0.3196 O   0  0  0  0  0  0  0  0  0  0  0  0
   -6.1512    0.5554    1.6647 C   0  0  2  0  0  0  0  0  0  0  0  0
   -5.5677    1.8530    1.7953 O   0  0  0  0  0  0  0  0  0  0  0  0
   -5.1294   -0.5574    1.9414 C   0  0  1  0  0  0  0  0  0  0  0  0
   -5.8451   -1.8113    1.9504 O   0  0  0  0  0  0  0  0  0  0  0  0
   -1.4356   -0.6234   -0.4284 C   0  0  0  0  0  0  0  0  0  0  0  0
   -0.1354   -0.7248   -0.9357 C   0  0  0  0  0  0  0  0  0  0  0  0
    0.9443   -0.2512   -0.1859 C   0  0  0  0  0  0  0  0  0  0  0  0
    2.3219   -0.3472   -0.7020 C   0  0  0  0  0  0  0  0  0  0  0  0
    2.5480   -0.8487   -1.7966 O   0  0  0  0  0  0  0  0  0  0  0  0
    5.4309   -1.0709   -0.5018 C   0  0  0  0  0  0  0  0  0  0  0  0
    6.7803   -1.1015   -0.8393 C   0  0  0  0  0  0  0  0  0  0  0  0
    7.3502   -2.3166   -1.1116 O   0  0  0  0  0  0  0  0  0  0  0  0
    9.7515    1.5612   -0.4085 H   0  0  0  0  0  0  0  0  0  0  0  0
   10.6713    0.7285   -1.6678 H   0  0  0  0  0  0  0  0  0  0  0  0
    9.2811    1.7101   -2.1472 H   0  0  0  0  0  0  0  0  0  0  0  0
    7.4890    2.2211   -0.6519 H   0  0  0  0  0  0  0  0  0  0  0  0
    5.1294    2.2912   -0.0570 H   0  0  0  0  0  0  0  0  0  0  0  0
    3.7166    1.1264    2.0787 H   0  0  0  0  0  0  0  0  0  0  0  0
   -0.7367    0.8816    2.5380 H   0  0  0  0  0  0  0  0  0  0  0  0
   -3.7433   -1.6068    0.6450 H   0  0  0  0  0  0  0  0  0  0  0  0
   -5.8418   -1.3585   -0.7271 H   0  0  0  0  0  0  0  0  0  0  0  0
   -5.6837    1.2629   -2.2754 H   0  0  0  0  0  0  0  0  0  0  0  0
   -7.0548    0.1235   -2.4297 H   0  0  0  0  0  0  0  0  0  0  0  0
   -5.3188   -0.1460   -3.9437 H   0  0  0  0  0  0  0  0  0  0  0  0
   -7.0785    1.3580   -0.1199 H   0  0  0  0  0  0  0  0  0  0  0  0
   -7.6664   -1.2558    0.8174 H   0  0  0  0  0  0  0  0  0  0  0  0
   -6.9614    0.4928    2.4018 H   0  0  0  0  0  0  0  0  0  0  0  0
   -5.2067    1.9357    2.6946 H   0  0  0  0  0  0  0  0  0  0  0  0
   -4.6959   -0.4281    2.9401 H   0  0  0  0  0  0  0  0  0  0  0  0
   -5.2215   -2.4951    2.2601 H   0  0  0  0  0  0  0  0  0  0  0  0
   -2.2521   -0.9775   -1.0523 H   0  0  0  0  0  0  0  0  0  0  0  0
    0.0284   -1.1642   -1.9179 H   0  0  0  0  0  0  0  0  0  0  0  0
    4.8683   -2.0007   -0.4781 H   0  0  0  0  0  0  0  0  0  0  0  0
    8.2759   -2.1134   -1.3476 H   0  0  0  0  0  0  0  0  0  0  0  0
  1  2  1  0
  2  3  1  0
  3  4  2  0
  4  5  1  0
  5  6  2  0
  6  7  1  0
  7  8  2  0
  8  9  1  0
  9 10  1  0
 10 11  2  0
 11 12  1  0
 12 13  1  0
 13 14  1  0
 14 15  1  0
 15 16  1  0
 16 17  1  0
 17 18  1  0
 16 19  1  0
 19 20  1  0
 19 21  1  0
 21 22  1  0
 21 23  1  0
 23 24  1  0
 12 25  2  0
 25 26  1  0
 26 27  2  0
 27 28  1  0
 28 29  2  0
  6 30  1  0
 30 31  2  0
 31 32  1  0
 31  3  1  0
 28  7  1  0
 27 10  1  0
 23 14  1  0
  1 33  1  0
  1 34  1  0
  1 35  1  0
  4 36  1  0
  5 37  1  0
  8 38  1  0
 11 39  1  0
 14 40  1  6
 16 41  1  6
 17 42  1  0
 17 43  1  0
 18 44  1  0
 19 45  1  6
 20 46  1  0
 21 47  1  1
 22 48  1  0
 23 49  1  1
 24 50  1  0
 25 51  1  0
 26 52  1  0
 30 53  1  0
 32 54  1  0
M  END
$$$$
