
     RDKit          3D

 61 64  0  0  0  0  0  0  0  0999 V2000
    5.6574   -2.5630    1.2991 C   0  0  0  0  0  0  0  0  0  0  0  0
    6.7661   -1.6916    0.7787 C   0  0  0  0  0  0  0  0  0  0  0  0
    8.0363   -2.2533    0.5773 C   0  0  0  0  0  0  0  0  0  0  0  0
    9.1034   -1.4701    0.1295 C   0  0  0  0  0  0  0  0  0  0  0  0
    8.9199   -0.1124   -0.1235 C   0  0  0  0  0  0  0  0  0  0  0  0
    7.6629    0.4604    0.0515 C   0  0  0  0  0  0  0  0  0  0  0  0
    6.5849   -0.3278    0.4793 C   0  0  0  0  0  0  0  0  0  0  0  0
    5.2681    0.3496    0.5885 C   0  0  0  0  0  0  0  0  0  0  0  0
    5.1762    1.3280    1.3160 O   0  0  0  0  0  0  0  0  0  0  0  0
    4.2895   -0.2052   -0.2133 N   0  0  0  0  0  0  0  0  0  0  0  0
    2.9582    0.2310   -0.3680 C   0  0  0  0  0  0  0  0  0  0  0  0
    2.4212    1.3414    0.2895 C   0  0  0  0  0  0  0  0  0  0  0  0
    1.0939    1.7255    0.0674 C   0  0  0  0  0  0  0  0  0  0  0  0
    0.2920    0.9777   -0.7968 C   0  0  0  0  0  0  0  0  0  0  0  0
   -1.0956    1.3951   -1.0807 C   0  0  0  0  0  0  0  0  0  0  0  0
   -1.3083    1.7800   -2.2293 O   0  0  0  0  0  0  0  0  0  0  0  0
   -2.0549    1.2879   -0.0609 N   0  0  0  0  0  0  0  0  0  0  0  0
   -1.8278    0.5477    1.1803 C   0  0  0  0  0  0  0  0  0  0  0  0
   -2.1690   -0.9216    1.0280 C   0  0  0  0  0  0  0  0  0  0  0  0
   -3.5072   -1.1551    0.3340 C   0  0  0  0  0  0  0  0  0  0  0  0
   -4.6320   -0.2090    0.8204 C   0  0  0  0  0  0  0  0  0  0  0  0
   -5.9781   -0.8027    0.5724 N   0  0  0  0  0  0  0  0  0  0  0  0
   -6.3229   -1.8562    1.5215 C   0  0  0  0  0  0  0  0  0  0  0  0
   -6.1953   -1.2421   -0.8053 C   0  0  0  0  0  0  0  0  0  0  0  0
   -4.5452    1.2345    0.2657 C   0  0  0  0  0  0  0  0  0  0  0  0
   -5.7401    1.9978    0.2409 C   0  0  0  0  0  0  0  0  0  0  0  0
   -5.8040    3.2632   -0.3409 C   0  0  0  0  0  0  0  0  0  0  0  0
   -4.6662    3.8133   -0.9048 C   0  0  0  0  0  0  0  0  0  0  0  0
   -3.4626    3.1136   -0.8455 C   0  0  0  0  0  0  0  0  0  0  0  0
   -3.3687    1.8442   -0.2369 C   0  0  0  0  0  0  0  0  0  0  0  0
    0.8190   -0.1224   -1.4724 C   0  0  0  0  0  0  0  0  0  0  0  0
    2.1473   -0.4964   -1.2514 C   0  0  0  0  0  0  0  0  0  0  0  0
    5.0278   -2.0194    2.0111 H   0  0  0  0  0  0  0  0  0  0  0  0
    6.0597   -3.4287    1.8343 H   0  0  0  0  0  0  0  0  0  0  0  0
    5.0421   -2.9301    0.4714 H   0  0  0  0  0  0  0  0  0  0  0  0
    8.2109   -3.3078    0.7833 H   0  0  0  0  0  0  0  0  0  0  0  0
   10.0837   -1.9191   -0.0095 H   0  0  0  0  0  0  0  0  0  0  0  0
    9.7544    0.4990   -0.4571 H   0  0  0  0  0  0  0  0  0  0  0  0
    7.5178    1.5207   -0.1476 H   0  0  0  0  0  0  0  0  0  0  0  0
    4.5733   -0.9853   -0.7933 H   0  0  0  0  0  0  0  0  0  0  0  0
    3.0171    1.9440    0.9688 H   0  0  0  0  0  0  0  0  0  0  0  0
    0.6994    2.6098    0.5614 H   0  0  0  0  0  0  0  0  0  0  0  0
   -2.4118    1.0088    1.9863 H   0  0  0  0  0  0  0  0  0  0  0  0
   -0.7898    0.6365    1.5046 H   0  0  0  0  0  0  0  0  0  0  0  0
   -2.1832   -1.3848    2.0216 H   0  0  0  0  0  0  0  0  0  0  0  0
   -1.3872   -1.4355    0.4577 H   0  0  0  0  0  0  0  0  0  0  0  0
   -3.7631   -2.2049    0.5155 H   0  0  0  0  0  0  0  0  0  0  0  0
   -3.3770   -1.0608   -0.7519 H   0  0  0  0  0  0  0  0  0  0  0  0
   -4.5339   -0.0847    1.9081 H   0  0  0  0  0  0  0  0  0  0  0  0
   -7.3677   -2.1576    1.3904 H   0  0  0  0  0  0  0  0  0  0  0  0
   -6.2329   -1.4966    2.5515 H   0  0  0  0  0  0  0  0  0  0  0  0
   -5.7000   -2.7497    1.4138 H   0  0  0  0  0  0  0  0  0  0  0  0
   -5.6187   -2.1393   -1.0571 H   0  0  0  0  0  0  0  0  0  0  0  0
   -5.9442   -0.4580   -1.5279 H   0  0  0  0  0  0  0  0  0  0  0  0
   -7.2548   -1.4737   -0.9603 H   0  0  0  0  0  0  0  0  0  0  0  0
   -6.6577    1.5848    0.6575 H   0  0  0  0  0  0  0  0  0  0  0  0
   -6.7446    3.8059   -0.3627 H   0  0  0  0  0  0  0  0  0  0  0  0
   -4.7017    4.7944   -1.3699 H   0  0  0  0  0  0  0  0  0  0  0  0
   -2.5777    3.6033   -1.2454 H   0  0  0  0  0  0  0  0  0  0  0  0
    0.2025   -0.6768   -2.1765 H   0  0  0  0  0  0  0  0  0  0  0  0
    2.5390   -1.3561   -1.7890 H   0  0  0  0  0  0  0  0  0  0  0  0
  1  2  1  0
  2  3  2  0
  3  4  1  0
  4  5  2  0
  5  6  1  0
  6  7  2  0
  7  8  1  0
  8  9  2  0
  8 10  1  0
 10 11  1  0
 11 12  2  0
 12 13  1  0
 13 14  2  0
 14 15  1  0
 15 16  2  0
 15 17  1  0
 17 18  1  0
 18 19  1  0
 19 20  1  0
 20 21  1  0
 21 22  1  0
 22 23  1  0
 22 24  1  0
 21 25  1  0
 25 26  2  0
 26 27  1  0
 27 28  2  0
 28 29  1  0
 29 30  2  0
 14 31  1  0
 31 32  2  0
  7  2  1  0
 32 11  1  0
 30 17  1  0
 30 25  1  0
  1 33  1  0
  1 34  1  0
  1 35  1  0
  3 36  1  0
  4 37  1  0
  5 38  1  0
  6 39  1  0
 10 40  1  0
 12 41  1  0
 13 42  1  0
 18 43  1  0
 18 44  1  0
 19 45  1  0
 19 46  1  0
 20 47  1  0
 20 48  1  0
 21 49  1  0
 23 50  1  0
 23 51  1  0
 23 52  1  0
 24 53  1  0
 24 54  1  0
 24 55  1  0
 26 56  1  0
 27 57  1  0
 28 58  1  0
 29 59  1  0
 31 60  1  0
 32 61  1  0
M  END
$$$$
