
     RDKit          3D

 41 42  0  0  0  0  0  0  0  0999 V2000
   -0.4648    1.9690    0.5787 C   0  0  0  0  0  0  0  0  0  0  0  0
   -1.4435    1.2792   -0.2930 N   0  0  0  0  0  0  0  0  0  0  0  0
   -2.8086    1.8524   -0.1598 C   0  0  0  0  0  0  0  0  0  0  0  0
   -3.6049    1.1381    0.9077 C   0  0  0  0  0  0  0  0  0  0  0  0
   -4.0994   -0.1524    0.6624 C   0  0  0  0  0  0  0  0  0  0  0  0
   -4.8352   -0.8265    1.6373 C   0  0  0  0  0  0  0  0  0  0  0  0
   -5.0801   -0.2195    2.8681 C   0  0  0  0  0  0  0  0  0  0  0  0
   -4.5801    1.0563    3.1294 C   0  0  0  0  0  0  0  0  0  0  0  0
   -3.8457    1.7336    2.1542 C   0  0  0  0  0  0  0  0  0  0  0  0
   -0.9613    1.0596   -1.9099 S   0  0  0  0  0  6  0  0  0  0  0  0
   -0.5622    2.3555   -2.4206 O   0  0  0  0  0  0  0  0  0  0  0  0
   -1.9638    0.2647   -2.5864 O   0  0  0  0  0  0  0  0  0  0  0  0
    0.4862    0.0408   -1.7631 C   0  0  0  0  0  0  0  0  0  0  0  0
    1.7134    0.4897   -2.2583 C   0  0  0  0  0  0  0  0  0  0  0  0
    2.8456   -0.3134   -2.1108 C   0  0  0  0  0  0  0  0  0  0  0  0
    2.7416   -1.5564   -1.4829 C   0  0  0  0  0  0  0  0  0  0  0  0
    3.9122   -2.3431   -1.2736 N   0  0  0  0  0  0  0  0  0  0  0  0
    4.8595   -1.9575    0.0797 S   0  0  0  0  0  6  0  0  0  0  0  0
    6.2625   -1.1897   -0.6980 C   0  0  0  0  0  0  0  0  0  0  0  0
    5.2964   -3.2295    0.6139 O   0  0  0  0  0  0  0  0  0  0  0  0
    4.1887   -0.9795    0.9066 O   0  0  0  0  0  0  0  0  0  0  0  0
    1.5142   -1.9980   -0.9827 C   0  0  0  0  0  0  0  0  0  0  0  0
    0.3776   -1.2013   -1.1306 C   0  0  0  0  0  0  0  0  0  0  0  0
    0.4931    1.4427    0.5873 H   0  0  0  0  0  0  0  0  0  0  0  0
   -0.8243    1.9815    1.6119 H   0  0  0  0  0  0  0  0  0  0  0  0
   -0.3092    3.0029    0.2541 H   0  0  0  0  0  0  0  0  0  0  0  0
   -3.3743    1.7794   -1.0965 H   0  0  0  0  0  0  0  0  0  0  0  0
   -2.7512    2.9266    0.0596 H   0  0  0  0  0  0  0  0  0  0  0  0
   -3.9128   -0.6337   -0.2969 H   0  0  0  0  0  0  0  0  0  0  0  0
   -5.2213   -1.8224    1.4334 H   0  0  0  0  0  0  0  0  0  0  0  0
   -5.6555   -0.7440    3.6264 H   0  0  0  0  0  0  0  0  0  0  0  0
   -4.7688    1.5267    4.0909 H   0  0  0  0  0  0  0  0  0  0  0  0
   -3.4681    2.7294    2.3735 H   0  0  0  0  0  0  0  0  0  0  0  0
    1.7971    1.4580   -2.7501 H   0  0  0  0  0  0  0  0  0  0  0  0
    3.8009    0.0353   -2.4918 H   0  0  0  0  0  0  0  0  0  0  0  0
    3.7571   -3.3542   -1.2793 H   0  0  0  0  0  0  0  0  0  0  0  0
    7.0021   -0.9790    0.0790 H   0  0  0  0  0  0  0  0  0  0  0  0
    5.9476   -0.2564   -1.1676 H   0  0  0  0  0  0  0  0  0  0  0  0
    6.6850   -1.8790   -1.4328 H   0  0  0  0  0  0  0  0  0  0  0  0
    1.4347   -2.9477   -0.4628 H   0  0  0  0  0  0  0  0  0  0  0  0
   -0.5805   -1.5381   -0.7395 H   0  0  0  0  0  0  0  0  0  0  0  0
  1  2  1  0
  2  3  1  0
  3  4  1  0
  4  5  2  0
  5  6  1  0
  6  7  2  0
  7  8  1  0
  8  9  2  0
  2 10  1  0
 10 11  2  0
 10 12  2  0
 10 13  1  0
 13 14  2  0
 14 15  1  0
 15 16  2  0
 16 17  1  0
 17 18  1  0
 18 19  1  0
 18 20  2  0
 18 21  2  0
 16 22  1  0
 22 23  2  0
  9  4  1  0
 23 13  1  0
  1 24  1  0
  1 25  1  0
  1 26  1  0
  3 27  1  0
  3 28  1  0
  5 29  1  0
  6 30  1  0
  7 31  1  0
  8 32  1  0
  9 33  1  0
 14 34  1  0
 15 35  1  0
 17 36  1  0
 19 37  1  0
 19 38  1  0
 19 39  1  0
 22 40  1  0
 23 41  1  0
M  END
$$$$
