
     RDKit          3D

 70 75  0  0  0  0  0  0  0  0999 V2000
    9.1678    1.2489    3.6684 C   0  0  0  0  0  0  0  0  0  0  0  0
    9.5647    0.8942    2.3432 O   0  0  0  0  0  0  0  0  0  0  0  0
    8.6544    0.0558    1.7242 C   0  0  0  0  0  0  0  0  0  0  0  0
    8.9623   -0.3414    0.4332 C   0  0  0  0  0  0  0  0  0  0  0  0
    8.0673   -1.1740   -0.2359 C   0  0  0  0  0  0  0  0  0  0  0  0
    6.8908   -1.5790    0.4016 C   0  0  0  0  0  0  0  0  0  0  0  0
    5.8901   -2.4815   -0.2729 C   0  0  0  0  0  0  0  0  0  0  0  0
    4.5540   -1.8832   -0.3007 N   0  0  0  0  0  0  0  0  0  0  0  0
    3.5583   -2.7177   -1.0653 C   0  0  0  0  0  0  0  0  0  0  0  0
    4.0463   -2.0321   -2.3680 C   0  0  0  0  0  0  0  0  0  0  0  0
    4.3693   -0.8637   -1.3969 C   0  0  0  0  0  0  0  0  0  0  0  0
    3.1096   -0.0033   -1.0923 C   0  0  0  0  0  0  0  0  0  0  0  0
    1.9003   -0.8434   -1.0081 N   0  0  0  0  0  0  0  0  0  0  0  0
    0.6774   -0.3232   -0.6129 C   0  0  0  0  0  0  0  0  0  0  0  0
    0.4180    1.0489   -0.5879 C   0  0  0  0  0  0  0  0  0  0  0  0
   -0.8350    1.5310   -0.1941 C   0  0  0  0  0  0  0  0  0  0  0  0
   -1.8280    0.6311    0.1690 C   0  0  0  0  0  0  0  0  0  0  0  0
   -3.1636    1.0655    0.6084 C   0  0  0  0  0  0  0  0  0  0  0  0
   -4.1484    1.0381   -0.3187 C   0  0  0  0  0  0  0  0  0  0  0  0
   -5.5319    1.3367    0.0043 C   0  0  0  0  0  0  0  0  0  0  0  0
   -6.3861    1.2422   -1.0609 O   0  0  0  0  0  0  0  0  0  0  0  0
   -7.6678    0.6641   -0.7840 C   0  0  0  0  0  0  0  0  0  0  0  0
   -8.5782    0.7620   -2.0247 C   0  0  0  0  0  0  0  0  0  0  0  0
   -7.9363    0.1104   -3.2556 C   0  0  0  0  0  0  0  0  0  0  0  0
   -8.9129    2.2269   -2.3291 C   0  0  0  0  0  0  0  0  0  0  0  0
   -9.8166    0.0968   -1.7371 O   0  0  0  0  0  0  0  0  0  0  0  0
   -5.8397    1.6798    1.2669 C   0  0  0  0  0  0  0  0  0  0  0  0
   -4.8369    1.7541    2.2314 N   0  0  0  0  0  0  0  0  0  0  0  0
   -4.9973    2.1063    3.5350 N   0  0  0  0  0  0  0  0  0  0  0  0
   -3.7717    2.0558    4.0573 C   0  0  0  0  0  0  0  0  0  0  0  0
   -2.8022    1.6584    3.1248 C   0  0  0  0  0  0  0  0  0  0  0  0
   -1.4054    1.5132    3.3650 C   0  0  0  0  0  0  0  0  0  0  0  0
   -0.2692    1.4162    3.5821 N   0  0  0  0  0  0  0  0  0  0  0  0
   -3.4964    1.4640    1.9481 C   0  0  0  0  0  0  0  0  0  0  0  0
   -1.5049   -0.7164    0.1071 C   0  0  0  0  0  0  0  0  0  0  0  0
   -0.3003   -1.1953   -0.2783 N   0  0  0  0  0  0  0  0  0  0  0  0
    2.1149   -2.2779   -0.7060 C   0  0  0  0  0  0  0  0  0  0  0  0
    6.6820   -1.1267    1.7018 C   0  0  0  0  0  0  0  0  0  0  0  0
    7.5363   -0.3243    2.3763 N   0  0  0  0  0  0  0  0  0  0  0  0
    9.1220    0.3655    4.3157 H   0  0  0  0  0  0  0  0  0  0  0  0
    9.9317    1.9187    4.0754 H   0  0  0  0  0  0  0  0  0  0  0  0
    8.2118    1.7855    3.6714 H   0  0  0  0  0  0  0  0  0  0  0  0
    9.8779   -0.0050   -0.0402 H   0  0  0  0  0  0  0  0  0  0  0  0
    8.2929   -1.4958   -1.2487 H   0  0  0  0  0  0  0  0  0  0  0  0
    6.2662   -2.7747   -1.2580 H   0  0  0  0  0  0  0  0  0  0  0  0
    5.8462   -3.4071    0.3158 H   0  0  0  0  0  0  0  0  0  0  0  0
    3.6990   -3.8017   -0.9994 H   0  0  0  0  0  0  0  0  0  0  0  0
    3.2998   -1.8429   -3.1455 H   0  0  0  0  0  0  0  0  0  0  0  0
    4.9104   -2.4992   -2.8525 H   0  0  0  0  0  0  0  0  0  0  0  0
    5.2447   -0.2549   -1.6436 H   0  0  0  0  0  0  0  0  0  0  0  0
    3.2677    0.5454   -0.1560 H   0  0  0  0  0  0  0  0  0  0  0  0
    2.9908    0.7247   -1.9027 H   0  0  0  0  0  0  0  0  0  0  0  0
    1.1801    1.7673   -0.8640 H   0  0  0  0  0  0  0  0  0  0  0  0
   -1.0147    2.6023   -0.1703 H   0  0  0  0  0  0  0  0  0  0  0  0
   -3.9438    0.7475   -1.3465 H   0  0  0  0  0  0  0  0  0  0  0  0
   -7.5316   -0.3924   -0.5103 H   0  0  0  0  0  0  0  0  0  0  0  0
   -8.1706    1.1579    0.0599 H   0  0  0  0  0  0  0  0  0  0  0  0
   -7.6633   -0.9328   -3.0470 H   0  0  0  0  0  0  0  0  0  0  0  0
   -7.0346    0.6465   -3.5751 H   0  0  0  0  0  0  0  0  0  0  0  0
   -8.6401    0.0853   -4.0961 H   0  0  0  0  0  0  0  0  0  0  0  0
   -8.0265    2.7993   -2.6282 H   0  0  0  0  0  0  0  0  0  0  0  0
   -9.3559    2.7103   -1.4488 H   0  0  0  0  0  0  0  0  0  0  0  0
   -9.6611    2.3043   -3.1230 H   0  0  0  0  0  0  0  0  0  0  0  0
   -9.6780   -0.8615   -1.8109 H   0  0  0  0  0  0  0  0  0  0  0  0
   -6.8291    1.9453    1.6115 H   0  0  0  0  0  0  0  0  0  0  0  0
   -3.6389    2.3168    5.1019 H   0  0  0  0  0  0  0  0  0  0  0  0
   -2.2225   -1.4848    0.3800 H   0  0  0  0  0  0  0  0  0  0  0  0
    1.4146   -2.8836   -1.2935 H   0  0  0  0  0  0  0  0  0  0  0  0
    1.9358   -2.4801    0.3581 H   0  0  0  0  0  0  0  0  0  0  0  0
    5.7841   -1.3976    2.2515 H   0  0  0  0  0  0  0  0  0  0  0  0
  1  2  1  0
  2  3  1  0
  3  4  2  0
  4  5  1  0
  5  6  2  0
  6  7  1  0
  7  8  1  0
  8  9  1  0
  9 10  1  0
 10 11  1  0
 11 12  1  0
 12 13  1  0
 13 14  1  0
 14 15  2  0
 15 16  1  0
 16 17  2  0
 17 18  1  0
 18 19  2  0
 19 20  1  0
 20 21  1  0
 21 22  1  0
 22 23  1  0
 23 24  1  0
 23 25  1  0
 23 26  1  0
 20 27  2  0
 27 28  1  0
 28 29  1  0
 29 30  2  0
 30 31  1  0
 31 32  1  0
 32 33  3  0
 31 34  2  0
 17 35  1  0
 35 36  2  0
 13 37  1  0
  6 38  1  0
 38 39  2  0
 39  3  1  0
 11  8  1  0
 36 14  1  0
 37  9  1  0
 34 18  1  0
 34 28  1  0
  1 40  1  0
  1 41  1  0
  1 42  1  0
  4 43  1  0
  5 44  1  0
  7 45  1  0
  7 46  1  0
  9 47  1  0
 10 48  1  0
 10 49  1  0
 11 50  1  0
 12 51  1  0
 12 52  1  0
 15 53  1  0
 16 54  1  0
 19 55  1  0
 22 56  1  0
 22 57  1  0
 24 58  1  0
 24 59  1  0
 24 60  1  0
 25 61  1  0
 25 62  1  0
 25 63  1  0
 26 64  1  0
 27 65  1  0
 30 66  1  0
 35 67  1  0
 37 68  1  0
 37 69  1  0
 38 70  1  0
M  END
$$$$
