
     RDKit          3D

 60 63  0  0  0  0  0  0  0  0999 V2000
   -2.2763   -4.8767   -0.6306 C   0  0  0  0  0  0  0  0  0  0  0  0
   -2.8850   -3.4842   -0.5717 C   0  0  0  0  0  0  0  0  0  0  0  0
   -2.8096   -2.7821   -1.9281 C   0  0  0  0  0  0  0  0  0  0  0  0
   -3.3879   -1.4103   -1.8842 C   0  0  0  0  0  0  0  0  0  0  0  0
   -4.6685   -1.1847   -2.2354 N   0  0  0  0  0  0  0  0  0  0  0  0
   -4.8231    0.1538   -2.0746 N   0  0  0  0  0  0  0  0  0  0  0  0
   -6.0943    0.7722   -2.3649 C   0  0  0  0  0  0  0  0  0  0  0  0
   -3.6945    0.7716   -1.6361 C   0  0  0  0  0  0  0  0  0  0  0  0
   -3.4199    2.1293   -1.3427 C   0  0  0  0  0  0  0  0  0  0  0  0
   -4.2143    3.0585   -1.4281 O   0  0  0  0  0  0  0  0  0  0  0  0
   -2.1176    2.2959   -0.9300 N   0  0  0  0  0  0  0  0  0  0  0  0
   -1.1942    1.2642   -0.7926 C   0  0  0  0  0  0  0  0  0  0  0  0
    0.1821    1.6412   -0.3080 C   0  0  0  0  0  0  0  0  0  0  0  0
    1.1694    0.6427   -0.3890 C   0  0  0  0  0  0  0  0  0  0  0  0
    2.4681    0.8964    0.0544 C   0  0  0  0  0  0  0  0  0  0  0  0
    3.6810   -0.3941   -0.0544 S   0  0  0  0  0  6  0  0  0  0  0  0
    4.8636    0.0305    0.6653 O   0  0  0  0  0  0  0  0  0  0  0  0
    3.7529   -0.7798   -1.4468 O   0  0  0  0  0  0  0  0  0  0  0  0
    2.9697   -1.6699    0.8234 N   0  0  0  0  0  0  0  0  0  0  0  0
    2.6922   -1.4220    2.2709 C   0  0  0  0  0  0  0  0  0  0  0  0
    3.9641   -1.5101    3.1408 C   0  0  0  0  0  0  0  0  0  0  0  0
    5.0200   -2.4013    2.6245 N   0  0  0  0  0  0  0  0  0  0  0  0
    4.4083   -3.4923    1.8500 C   0  0  0  0  0  0  0  0  0  0  0  0
    3.6326   -3.0024    0.6087 C   0  0  0  0  0  0  0  0  0  0  0  0
    2.8102    2.1425    0.5702 C   0  0  0  0  0  0  0  0  0  0  0  0
    1.8386    3.1439    0.6491 C   0  0  0  0  0  0  0  0  0  0  0  0
    0.5209    2.9079    0.2254 C   0  0  0  0  0  0  0  0  0  0  0  0
   -0.4694    3.8549    0.2807 O   0  0  0  0  0  0  0  0  0  0  0  0
   -0.2654    5.0614    1.0200 C   0  0  0  0  0  0  0  0  0  0  0  0
    0.2615    6.1585    0.1121 C   0  0  0  0  0  0  0  0  0  0  0  0
   -1.4586    0.0137   -1.0625 N   0  0  0  0  0  0  0  0  0  0  0  0
   -2.7624   -0.2125   -1.5034 C   0  0  0  0  0  0  0  0  0  0  0  0
   -2.8070   -5.5065   -1.3520 H   0  0  0  0  0  0  0  0  0  0  0  0
   -2.3360   -5.3588    0.3507 H   0  0  0  0  0  0  0  0  0  0  0  0
   -1.2220   -4.8319   -0.9232 H   0  0  0  0  0  0  0  0  0  0  0  0
   -3.9294   -3.5599   -0.2458 H   0  0  0  0  0  0  0  0  0  0  0  0
   -2.3585   -2.8943    0.1884 H   0  0  0  0  0  0  0  0  0  0  0  0
   -1.7640   -2.7219   -2.2552 H   0  0  0  0  0  0  0  0  0  0  0  0
   -3.3354   -3.3797   -2.6834 H   0  0  0  0  0  0  0  0  0  0  0  0
   -6.4527    1.2694   -1.4597 H   0  0  0  0  0  0  0  0  0  0  0  0
   -5.9510    1.4932   -3.1739 H   0  0  0  0  0  0  0  0  0  0  0  0
   -6.8105    0.0059   -2.6733 H   0  0  0  0  0  0  0  0  0  0  0  0
   -1.8509    3.2407   -0.6858 H   0  0  0  0  0  0  0  0  0  0  0  0
    0.9338   -0.3384   -0.8010 H   0  0  0  0  0  0  0  0  0  0  0  0
    1.9733   -2.1857    2.5966 H   0  0  0  0  0  0  0  0  0  0  0  0
    2.1922   -0.4603    2.4197 H   0  0  0  0  0  0  0  0  0  0  0  0
    3.6795   -1.8404    4.1467 H   0  0  0  0  0  0  0  0  0  0  0  0
    4.3932   -0.5094    3.2673 H   0  0  0  0  0  0  0  0  0  0  0  0
    5.5822   -1.8389    1.9742 H   0  0  0  0  0  0  0  0  0  0  0  0
    5.1892   -4.1923    1.5320 H   0  0  0  0  0  0  0  0  0  0  0  0
    3.7389   -4.0657    2.5045 H   0  0  0  0  0  0  0  0  0  0  0  0
    2.8560   -3.7291    0.3442 H   0  0  0  0  0  0  0  0  0  0  0  0
    4.3209   -2.9561   -0.2424 H   0  0  0  0  0  0  0  0  0  0  0  0
    3.8261    2.3489    0.9022 H   0  0  0  0  0  0  0  0  0  0  0  0
    2.1538    4.1071    1.0386 H   0  0  0  0  0  0  0  0  0  0  0  0
   -1.2520    5.3642    1.3892 H   0  0  0  0  0  0  0  0  0  0  0  0
    0.3548    4.9144    1.9107 H   0  0  0  0  0  0  0  0  0  0  0  0
    0.3295    7.1069    0.6515 H   0  0  0  0  0  0  0  0  0  0  0  0
    1.2505    5.9107   -0.2826 H   0  0  0  0  0  0  0  0  0  0  0  0
   -0.3989    6.2911   -0.7508 H   0  0  0  0  0  0  0  0  0  0  0  0
  1  2  1  0
  2  3  1  0
  3  4  1  0
  4  5  2  0
  5  6  1  0
  6  7  1  0
  6  8  1  0
  8  9  1  0
  9 10  2  0
  9 11  1  0
 11 12  1  0
 12 13  1  0
 13 14  2  0
 14 15  1  0
 15 16  1  0
 16 17  2  0
 16 18  2  0
 16 19  1  0
 19 20  1  0
 20 21  1  0
 21 22  1  0
 22 23  1  0
 23 24  1  0
 15 25  2  0
 25 26  1  0
 26 27  2  0
 27 28  1  0
 28 29  1  0
 29 30  1  0
 12 31  2  0
 31 32  1  0
 32  4  1  0
 32  8  2  0
 27 13  1  0
 24 19  1  0
  1 33  1  0
  1 34  1  0
  1 35  1  0
  2 36  1  0
  2 37  1  0
  3 38  1  0
  3 39  1  0
  7 40  1  0
  7 41  1  0
  7 42  1  0
 11 43  1  0
 14 44  1  0
 20 45  1  0
 20 46  1  0
 21 47  1  0
 21 48  1  0
 22 49  1  0
 23 50  1  0
 23 51  1  0
 24 52  1  0
 24 53  1  0
 25 54  1  0
 26 55  1  0
 29 56  1  0
 29 57  1  0
 30 58  1  0
 30 59  1  0
 30 60  1  0
M  END
$$$$
