
     RDKit          3D

 44 45  0  0  0  0  0  0  0  0999 V2000
   -2.7689   -3.4132    0.0174 C   0  0  0  0  0  0  0  0  0  0  0  0
   -2.2943   -2.1465    0.4753 O   0  0  0  0  0  0  0  0  0  0  0  0
   -1.0924   -1.7697   -0.0662 C   0  0  0  0  0  0  0  0  0  0  0  0
   -0.4405   -2.4731   -0.8290 O   0  0  0  0  0  0  0  0  0  0  0  0
   -0.6773   -0.3915    0.4908 C   0  0  2  0  0  0  0  0  0  0  0  0
   -1.6948    0.7421    0.3227 C   0  0  0  0  0  0  0  0  0  0  0  0
   -1.7407    1.7091    1.3542 C   0  0  0  0  0  0  0  0  0  0  0  0
   -2.6262    2.7873    1.3108 C   0  0  0  0  0  0  0  0  0  0  0  0
   -3.4837    2.9340    0.2287 C   0  0  0  0  0  0  0  0  0  0  0  0
   -3.4442    2.0082   -0.8117 C   0  0  0  0  0  0  0  0  0  0  0  0
   -2.5550    0.9238   -0.7749 C   0  0  0  0  0  0  0  0  0  0  0  0
   -2.5771   -0.1148   -2.1561 Cl  0  0  0  0  0  0  0  0  0  0  0  0
    0.7082    0.0529    0.1553 N   0  0  0  0  0  0  0  0  0  0  0  0
    0.9562    0.2653   -1.2866 C   0  0  0  0  0  0  0  0  0  0  0  0
    2.2757    1.0355   -1.5335 C   0  0  0  0  0  0  0  0  0  0  0  0
    3.3493    0.5005   -0.6441 C   0  0  0  0  0  0  0  0  0  0  0  0
    4.9881    0.9021   -0.8235 S   0  0  0  0  0  0  0  0  0  0  0  0
    5.4158   -0.0504    0.5342 C   0  0  0  0  0  0  0  0  0  0  0  0
    4.3190   -0.6587    1.1082 C   0  0  0  0  0  0  0  0  0  0  0  0
    3.1053   -0.3375    0.4253 C   0  0  0  0  0  0  0  0  0  0  0  0
    1.7265   -0.8395    0.7530 C   0  0  0  0  0  0  0  0  0  0  0  0
    0.6771    0.6224    1.4333 O   0  0  0  0  0  0  0  0  0  0  0  0
    0.0011    0.4194    0.1774 S   0  0  0  0  0  6  0  0  0  0  0  0
   -0.6718    1.4649   -0.5504 O   0  0  0  0  0  0  0  0  0  0  0  0
   -1.0667   -0.7633    0.3633 O   0  0  0  0  0  0  0  0  0  0  0  0
    1.0641   -0.2754   -0.8027 O   0  0  0  0  0  0  0  0  0  0  0  0
   -3.7451   -3.5944    0.4754 H   0  0  0  0  0  0  0  0  0  0  0  0
   -2.8929   -3.4089   -1.0700 H   0  0  0  0  0  0  0  0  0  0  0  0
   -2.0868   -4.2106    0.3279 H   0  0  0  0  0  0  0  0  0  0  0  0
   -0.6598   -0.5833    1.5764 H   0  0  0  0  0  0  0  0  0  0  0  0
   -1.0657    1.6267    2.2059 H   0  0  0  0  0  0  0  0  0  0  0  0
   -2.6385    3.5135    2.1200 H   0  0  0  0  0  0  0  0  0  0  0  0
   -4.1737    3.7728    0.1871 H   0  0  0  0  0  0  0  0  0  0  0  0
   -4.1089    2.1423   -1.6625 H   0  0  0  0  0  0  0  0  0  0  0  0
    0.9927   -0.6904   -1.8230 H   0  0  0  0  0  0  0  0  0  0  0  0
    0.1614    0.8622   -1.7422 H   0  0  0  0  0  0  0  0  0  0  0  0
    2.1235    2.0985   -1.3082 H   0  0  0  0  0  0  0  0  0  0  0  0
    2.5570    0.9504   -2.5891 H   0  0  0  0  0  0  0  0  0  0  0  0
    6.4494   -0.1184    0.8437 H   0  0  0  0  0  0  0  0  0  0  0  0
    4.3873   -1.3052    1.9744 H   0  0  0  0  0  0  0  0  0  0  0  0
    1.6101   -0.8516    1.8434 H   0  0  0  0  0  0  0  0  0  0  0  0
    1.6411   -1.8695    0.3904 H   0  0  0  0  0  0  0  0  0  0  0  0
   -1.7006   -0.6999   -0.3810 H   0  0  0  0  0  0  0  0  0  0  0  0
    1.6969   -0.7681   -0.2400 H   0  0  0  0  0  0  0  0  0  0  0  0
  1  2  1  0
  2  3  1  0
  3  4  2  0
  3  5  1  0
  5  6  1  0
  6  7  2  0
  7  8  1  0
  8  9  2  0
  9 10  1  0
 10 11  2  0
 11 12  1  0
  5 13  1  0
 13 14  1  0
 14 15  1  0
 15 16  1  0
 16 17  1  0
 17 18  1  0
 18 19  2  0
 19 20  1  0
 20 21  1  0
 22 23  2  0
 23 24  2  0
 23 25  1  0
 23 26  1  0
 11  6  1  0
 21 13  1  0
 20 16  2  0
  1 27  1  0
  1 28  1  0
  1 29  1  0
  5 30  1  1
  7 31  1  0
  8 32  1  0
  9 33  1  0
 10 34  1  0
 14 35  1  0
 14 36  1  0
 15 37  1  0
 15 38  1  0
 18 39  1  0
 19 40  1  0
 21 41  1  0
 21 42  1  0
 25 43  1  0
 26 44  1  0
M  END
$$$$
