
     RDKit          3D

 51 53  0  0  0  0  0  0  0  0999 V2000
   -4.4187    2.3871    0.7916 C   0  0  0  0  0  0  0  0  0  0  0  0
   -4.0486    0.8874    0.7006 C   0  0  0  0  0  0  0  0  0  0  0  0
   -4.7986    0.1333    1.8211 C   0  0  0  0  0  0  0  0  0  0  0  0
   -4.5386    0.4003   -0.6807 C   0  0  0  0  0  0  0  0  0  0  0  0
   -3.9846   -0.9707   -1.0287 C   0  0  0  0  0  0  0  0  0  0  0  0
   -2.4435   -0.9624   -1.1353 C   0  0  0  0  0  0  0  0  0  0  0  0
   -2.0007   -2.4449   -1.1663 C   0  0  0  0  0  0  0  0  0  0  0  0
   -2.0128   -0.2995   -2.4626 C   0  0  0  0  0  0  0  0  0  0  0  0
   -1.7965   -0.1958    0.0280 C   0  0  0  0  0  0  0  0  0  0  0  0
   -0.4046   -0.3232    0.2467 C   0  0  0  0  0  0  0  0  0  0  0  0
    0.2391    0.3468    1.2943 C   0  0  0  0  0  0  0  0  0  0  0  0
    1.7045    0.2142    1.5264 C   0  0  0  0  0  0  0  0  0  0  0  0
    2.1104    0.1834    2.6814 O   0  0  0  0  0  0  0  0  0  0  0  0
    2.4700    0.1806    0.3742 N   0  0  0  0  0  0  0  0  0  0  0  0
    3.8678    0.0218    0.2804 C   0  0  0  0  0  0  0  0  0  0  0  0
    4.4367    0.1084   -0.9974 C   0  0  0  0  0  0  0  0  0  0  0  0
    5.8161   -0.0431   -1.1795 C   0  0  0  0  0  0  0  0  0  0  0  0
    6.6449   -0.2868   -0.0803 C   0  0  0  0  0  0  0  0  0  0  0  0
    8.1115   -0.4552   -0.2191 C   0  0  0  0  0  0  0  0  0  0  0  0
    8.8959   -0.6721    0.6854 O   0  0  0  0  0  0  0  0  0  0  0  0
    8.5305   -0.3442   -1.4926 O   0  0  0  0  0  0  0  0  0  0  0  0
    6.0813   -0.3780    1.1959 C   0  0  0  0  0  0  0  0  0  0  0  0
    4.7004   -0.2255    1.3735 C   0  0  0  0  0  0  0  0  0  0  0  0
   -0.5054    1.1357    2.1630 C   0  0  0  0  0  0  0  0  0  0  0  0
   -1.8745    1.2926    1.9520 C   0  0  0  0  0  0  0  0  0  0  0  0
   -2.5398    0.6610    0.8772 C   0  0  0  0  0  0  0  0  0  0  0  0
   -5.4794    2.5433    0.5613 H   0  0  0  0  0  0  0  0  0  0  0  0
   -3.8315    2.9836    0.0834 H   0  0  0  0  0  0  0  0  0  0  0  0
   -4.2500    2.8013    1.7911 H   0  0  0  0  0  0  0  0  0  0  0  0
   -4.5384   -0.9305    1.8451 H   0  0  0  0  0  0  0  0  0  0  0  0
   -5.8841    0.2109    1.6916 H   0  0  0  0  0  0  0  0  0  0  0  0
   -4.5601    0.5411    2.8105 H   0  0  0  0  0  0  0  0  0  0  0  0
   -5.6356    0.3619   -0.7009 H   0  0  0  0  0  0  0  0  0  0  0  0
   -4.2512    1.1157   -1.4615 H   0  0  0  0  0  0  0  0  0  0  0  0
   -4.4272   -1.3094   -1.9745 H   0  0  0  0  0  0  0  0  0  0  0  0
   -4.3105   -1.6954   -0.2719 H   0  0  0  0  0  0  0  0  0  0  0  0
   -0.9370   -2.5611   -1.3991 H   0  0  0  0  0  0  0  0  0  0  0  0
   -2.5522   -3.0022   -1.9330 H   0  0  0  0  0  0  0  0  0  0  0  0
   -2.1835   -2.9329   -0.2017 H   0  0  0  0  0  0  0  0  0  0  0  0
   -0.9311   -0.3818   -2.6216 H   0  0  0  0  0  0  0  0  0  0  0  0
   -2.2570    0.7682   -2.4859 H   0  0  0  0  0  0  0  0  0  0  0  0
   -2.5035   -0.7750   -3.3195 H   0  0  0  0  0  0  0  0  0  0  0  0
    0.1822   -0.9748   -0.3952 H   0  0  0  0  0  0  0  0  0  0  0  0
    1.9879    0.3583   -0.4972 H   0  0  0  0  0  0  0  0  0  0  0  0
    3.8178    0.2978   -1.8708 H   0  0  0  0  0  0  0  0  0  0  0  0
    6.2312    0.0313   -2.1817 H   0  0  0  0  0  0  0  0  0  0  0  0
    9.5001   -0.4744   -1.4282 H   0  0  0  0  0  0  0  0  0  0  0  0
    6.7107   -0.5691    2.0633 H   0  0  0  0  0  0  0  0  0  0  0  0
    4.3078   -0.3103    2.3825 H   0  0  0  0  0  0  0  0  0  0  0  0
   -0.0248    1.6355    3.0014 H   0  0  0  0  0  0  0  0  0  0  0  0
   -2.4229    1.9165    2.6549 H   0  0  0  0  0  0  0  0  0  0  0  0
  1  2  1  0
  2  3  1  0
  2  4  1  0
  4  5  1  0
  5  6  1  0
  6  7  1  0
  6  8  1  0
  6  9  1  0
  9 10  2  0
 10 11  1  0
 11 12  1  0
 12 13  2  0
 12 14  1  0
 14 15  1  0
 15 16  2  0
 16 17  1  0
 17 18  2  0
 18 19  1  0
 19 20  2  0
 19 21  1  0
 18 22  1  0
 22 23  2  0
 11 24  2  0
 24 25  1  0
 25 26  2  0
 26  2  1  0
 26  9  1  0
 23 15  1  0
  1 27  1  0
  1 28  1  0
  1 29  1  0
  3 30  1  0
  3 31  1  0
  3 32  1  0
  4 33  1  0
  4 34  1  0
  5 35  1  0
  5 36  1  0
  7 37  1  0
  7 38  1  0
  7 39  1  0
  8 40  1  0
  8 41  1  0
  8 42  1  0
 10 43  1  0
 14 44  1  0
 16 45  1  0
 17 46  1  0
 21 47  1  0
 22 48  1  0
 23 49  1  0
 24 50  1  0
 25 51  1  0
M  END
$$$$
