
     RDKit          3D

 86 87  0  0  0  0  0  0  0  0999 V2000
   -3.8443   -2.0348    1.0477 C   0  0  0  0  0  0  0  0  0  0  0  0
   -3.0027   -1.0639    0.2661 C   0  0  0  0  0  0  0  0  0  0  0  0
   -1.5981   -1.1311    0.3537 C   0  0  0  0  0  0  0  0  0  0  0  0
   -0.7665   -0.2381   -0.3464 C   0  0  0  0  0  0  0  0  0  0  0  0
    0.7025   -0.3240   -0.2374 C   0  0  0  0  0  0  0  0  0  0  0  0
    1.4737    0.7996    0.0965 C   0  0  0  0  0  0  0  0  0  0  0  0
    2.8659    0.7087    0.2229 C   0  0  0  0  0  0  0  0  0  0  0  0
    3.5295   -0.5056    0.0135 C   0  0  0  0  0  0  0  0  0  0  0  0
    4.9254   -0.5676    0.2001 N   0  0  0  0  0  0  0  0  0  0  0  0
    5.5172   -0.5377   -0.9018 N   0  0  0  0  0  0  0  0  0  0  0  0
    6.9060   -0.7175   -0.7130 C   0  0  0  0  0  0  0  0  0  0  0  0
    7.4709   -1.9649   -0.9054 C   0  0  0  0  0  0  0  0  0  0  0  0
    8.8497   -2.1277   -0.7790 C   0  0  0  0  0  0  0  0  0  0  0  0
    9.7316   -1.0613   -0.4548 C   0  0  0  0  0  0  0  0  0  0  0  0
   11.1441   -1.2245   -0.3409 C   0  0  0  0  0  0  0  0  0  0  0  0
   11.9260   -2.8566   -0.6414 S   0  0  0  0  0  6  0  0  0  0  0  0
   11.3054   -3.7077    0.3735 O   0  0  0  0  0  0  0  0  0  0  0  0
   13.3563   -2.6343   -0.4492 O   0  0  0  0  0  0  0  0  0  0  0  0
   11.5385   -3.1537   -2.0205 O   0  0  0  0  0  1  0  0  0  0  0  0
   11.9840   -0.1542   -0.0100 C   0  0  0  0  0  0  0  0  0  0  0  0
   11.4352    1.1067    0.2343 C   0  0  0  0  0  0  0  0  0  0  0  0
   12.6012    2.4688    0.5877 S   0  0  0  0  0  6  0  0  0  0  0  0
   13.7176    2.2156   -0.3207 O   0  0  0  0  0  0  0  0  0  0  0  0
   11.8447    3.6832    0.2620 O   0  0  0  0  0  0  0  0  0  0  0  0
   12.8965    2.2923    2.0070 O   0  0  0  0  0  1  0  0  0  0  0  0
   10.0463    1.3276    0.1085 C   0  0  0  0  0  0  0  0  0  0  0  0
    9.4703    2.5562    0.5414 N   0  0  0  0  0  0  0  0  0  0  0  0
    9.1696    0.2338   -0.2358 C   0  0  0  0  0  0  0  0  0  0  0  0
    7.7515    0.3622   -0.3972 C   0  0  0  0  0  0  0  0  0  0  0  0
    7.1457    1.6055   -0.2834 O   0  0  0  0  0  0  0  0  0  0  0  0
    2.7729   -1.6480   -0.3091 C   0  0  0  0  0  0  0  0  0  0  0  0
    3.4424   -2.9750   -0.5363 C   0  0  0  0  0  0  0  0  0  0  0  0
    1.3752   -1.5408   -0.4462 C   0  0  0  0  0  0  0  0  0  0  0  0
   -1.3825    0.7354   -1.1453 C   0  0  0  0  0  0  0  0  0  0  0  0
   -2.7773    0.8184   -1.2320 C   0  0  0  0  0  0  0  0  0  0  0  0
   -3.6020   -0.0632   -0.5182 C   0  0  0  0  0  0  0  0  0  0  0  0
   -5.0073    0.0150   -0.6188 N   0  0  0  0  0  0  0  0  0  0  0  0
   -5.4241    1.1230   -0.2145 N   0  0  0  0  0  0  0  0  0  0  0  0
   -6.8317    1.1823   -0.3107 C   0  0  0  0  0  0  0  0  0  0  0  0
   -7.4315    1.7596   -1.4143 C   0  0  0  0  0  0  0  0  0  0  0  0
   -8.8224    1.8415   -1.4819 C   0  0  0  0  0  0  0  0  0  0  0  0
   -9.6804    1.3768   -0.4476 C   0  0  0  0  0  0  0  0  0  0  0  0
  -11.1035    1.4628   -0.5139 C   0  0  0  0  0  0  0  0  0  0  0  0
  -11.9314    2.1835   -1.9835 S   0  0  0  0  0  6  0  0  0  0  0  0
  -11.3897    3.5413   -2.0315 O   0  0  0  0  0  0  0  0  0  0  0  0
  -11.4926    1.3035   -3.0662 O   0  0  0  0  0  0  0  0  0  0  0  0
  -13.3594    2.1140   -1.6879 O   0  0  0  0  0  1  0  0  0  0  0  0
  -11.9182    1.0031    0.5288 C   0  0  0  0  0  0  0  0  0  0  0  0
  -11.3341    0.4674    1.6784 C   0  0  0  0  0  0  0  0  0  0  0  0
  -12.4623   -0.1719    2.9650 S   0  0  0  0  0  6  0  0  0  0  0  0
  -12.8451    1.0313    3.7006 O   0  0  0  0  0  0  0  0  0  0  0  0
  -13.5353   -0.8071    2.2012 O   0  0  0  0  0  0  0  0  0  0  0  0
  -11.6394   -1.1217    3.7240 O   0  0  0  0  0  1  0  0  0  0  0  0
   -9.9321    0.3400    1.7860 C   0  0  0  0  0  0  0  0  0  0  0  0
   -9.3366   -0.0237    3.0277 N   0  0  0  0  0  0  0  0  0  0  0  0
   -9.0816    0.8015    0.7151 C   0  0  0  0  0  0  0  0  0  0  0  0
   -7.6521    0.7085    0.7305 C   0  0  0  0  0  0  0  0  0  0  0  0
   -7.0041    0.0967    1.7949 O   0  0  0  0  0  0  0  0  0  0  0  0
    0.0000    0.0000    0.0000 Na  0  0  0  0  0 15  0  0  0  0  0  0
    0.0000    0.0000    0.0000 Na  0  0  0  0  0 15  0  0  0  0  0  0
    0.0000    0.0000    0.0000 Na  0  0  0  0  0 15  0  0  0  0  0  0
    0.0000    0.0000    0.0000 Na  0  0  0  0  0 15  0  0  0  0  0  0
   -4.3037   -1.5304    1.9040 H   0  0  0  0  0  0  0  0  0  0  0  0
   -3.2421   -2.8673    1.4264 H   0  0  0  0  0  0  0  0  0  0  0  0
   -4.6277   -2.4658    0.4156 H   0  0  0  0  0  0  0  0  0  0  0  0
   -1.1445   -1.8879    0.9929 H   0  0  0  0  0  0  0  0  0  0  0  0
    0.9925    1.7576    0.2835 H   0  0  0  0  0  0  0  0  0  0  0  0
    3.4370    1.5919    0.4985 H   0  0  0  0  0  0  0  0  0  0  0  0
    6.8533   -2.8191   -1.1620 H   0  0  0  0  0  0  0  0  0  0  0  0
    9.2386   -3.1317   -0.9477 H   0  0  0  0  0  0  0  0  0  0  0  0
   13.0609   -0.2935    0.0617 H   0  0  0  0  0  0  0  0  0  0  0  0
   10.1517    3.3249    0.4250 H   0  0  0  0  0  0  0  0  0  0  0  0
    8.5826    2.7274    0.0763 H   0  0  0  0  0  0  0  0  0  0  0  0
    6.1881    1.4238   -0.2882 H   0  0  0  0  0  0  0  0  0  0  0  0
    4.1503   -3.1956    0.2691 H   0  0  0  0  0  0  0  0  0  0  0  0
    3.9715   -2.9701   -1.4942 H   0  0  0  0  0  0  0  0  0  0  0  0
    2.7124   -3.7913   -0.5563 H   0  0  0  0  0  0  0  0  0  0  0  0
    0.8009   -2.4252   -0.7190 H   0  0  0  0  0  0  0  0  0  0  0  0
   -0.7793    1.4370   -1.7178 H   0  0  0  0  0  0  0  0  0  0  0  0
   -3.2304    1.5816   -1.8607 H   0  0  0  0  0  0  0  0  0  0  0  0
   -6.8315    2.1417   -2.2329 H   0  0  0  0  0  0  0  0  0  0  0  0
   -9.2415    2.2931   -2.3811 H   0  0  0  0  0  0  0  0  0  0  0  0
  -13.0016    1.0686    0.4587 H   0  0  0  0  0  0  0  0  0  0  0  0
   -9.9779   -0.6318    3.5634 H   0  0  0  0  0  0  0  0  0  0  0  0
   -8.4146   -0.4279    2.8869 H   0  0  0  0  0  0  0  0  0  0  0  0
   -6.0526    0.1804    1.5995 H   0  0  0  0  0  0  0  0  0  0  0  0
  1  2  1  0
  2  3  2  0
  3  4  1  0
  4  5  1  0
  5  6  2  0
  6  7  1  0
  7  8  2  0
  8  9  1  0
  9 10  2  0
 10 11  1  0
 11 12  2  0
 12 13  1  0
 13 14  2  0
 14 15  1  0
 15 16  1  0
 16 17  2  0
 16 18  2  0
 16 19  1  0
 15 20  2  0
 20 21  1  0
 21 22  1  0
 22 23  2  0
 22 24  2  0
 22 25  1  0
 21 26  2  0
 26 27  1  0
 26 28  1  0
 28 29  2  0
 29 30  1  0
  8 31  1  0
 31 32  1  0
 31 33  2  0
  4 34  2  0
 34 35  1  0
 35 36  2  0
 36 37  1  0
 37 38  2  0
 38 39  1  0
 39 40  2  0
 40 41  1  0
 41 42  2  0
 42 43  1  0
 43 44  1  0
 44 45  2  0
 44 46  2  0
 44 47  1  0
 43 48  2  0
 48 49  1  0
 49 50  1  0
 50 51  2  0
 50 52  2  0
 50 53  1  0
 49 54  2  0
 54 55  1  0
 54 56  1  0
 56 57  2  0
 57 58  1  0
 36  2  1  0
 57 39  1  0
 33  5  1  0
 56 42  1  0
 29 11  1  0
 28 14  1  0
  1 63  1  0
  1 64  1  0
  1 65  1  0
  3 66  1  0
  6 67  1  0
  7 68  1  0
 12 69  1  0
 13 70  1  0
 20 71  1  0
 27 72  1  0
 27 73  1  0
 30 74  1  0
 32 75  1  0
 32 76  1  0
 32 77  1  0
 33 78  1  0
 34 79  1  0
 35 80  1  0
 40 81  1  0
 41 82  1  0
 48 83  1  0
 55 84  1  0
 55 85  1  0
 58 86  1  0
M  CHG  8  19  -1  25  -1  47  -1  53  -1  59   1  60   1  61   1  62   1
M  END
$$$$
