
     RDKit          3D

 35 37  0  0  0  0  0  0  0  0999 V2000
    4.0372   -1.8311    0.6048 C   0  0  0  0  0  0  0  0  0  0  0  0
    3.1177   -0.7397    0.3406 N   0  0  0  0  0  0  0  0  0  0  0  0
    3.7148    0.5659    0.1110 C   0  0  0  0  0  0  0  0  0  0  0  0
    1.7392   -0.9777    0.4292 C   0  0  0  0  0  0  0  0  0  0  0  0
    1.3004   -2.1256    0.5193 O   0  0  0  0  0  0  0  0  0  0  0  0
    0.8175    0.1773    0.4241 C   0  0  0  0  0  0  0  0  0  0  0  0
    1.1696    1.4548    0.8430 N   0  0  0  0  0  0  0  0  0  0  0  0
    0.0827    2.1832    0.7374 C   0  0  0  0  0  0  0  0  0  0  0  0
   -0.1480    3.5596    1.0207 C   0  0  0  0  0  0  0  0  0  0  0  0
   -1.3689    4.0907    0.8170 C   0  0  0  0  0  0  0  0  0  0  0  0
   -2.4691    3.2879    0.3093 C   0  0  0  0  0  0  0  0  0  0  0  0
   -2.2582    1.9874    0.0454 C   0  0  0  0  0  0  0  0  0  0  0  0
   -0.9905    1.4372    0.2627 N   0  0  0  0  0  0  0  0  0  0  0  0
   -0.5317    0.1453    0.0701 C   0  0  0  0  0  0  0  0  0  0  0  0
   -1.3620   -0.9455   -0.4280 C   0  0  0  0  0  0  0  0  0  0  0  0
   -1.2378   -1.3736   -1.7567 C   0  0  0  0  0  0  0  0  0  0  0  0
   -2.0389   -2.4113   -2.2366 C   0  0  0  0  0  0  0  0  0  0  0  0
   -2.9567   -3.0180   -1.3869 C   0  0  0  0  0  0  0  0  0  0  0  0
   -3.7267   -4.0117   -1.8495 F   0  0  0  0  0  0  0  0  0  0  0  0
   -3.0885   -2.6091   -0.0649 C   0  0  0  0  0  0  0  0  0  0  0  0
   -2.2888   -1.5715    0.4173 C   0  0  0  0  0  0  0  0  0  0  0  0
    4.6819   -1.9675   -0.2686 H   0  0  0  0  0  0  0  0  0  0  0  0
    4.6505   -1.5693    1.4725 H   0  0  0  0  0  0  0  0  0  0  0  0
    3.5233   -2.7727    0.8127 H   0  0  0  0  0  0  0  0  0  0  0  0
    3.1147    1.1528   -0.5885 H   0  0  0  0  0  0  0  0  0  0  0  0
    4.7093    0.4424   -0.3291 H   0  0  0  0  0  0  0  0  0  0  0  0
    3.8084    1.0865    1.0680 H   0  0  0  0  0  0  0  0  0  0  0  0
    0.6746    4.1551    1.3994 H   0  0  0  0  0  0  0  0  0  0  0  0
   -1.5599    5.1385    1.0291 H   0  0  0  0  0  0  0  0  0  0  0  0
   -3.4357    3.7556    0.1546 H   0  0  0  0  0  0  0  0  0  0  0  0
   -3.0333    1.3346   -0.3358 H   0  0  0  0  0  0  0  0  0  0  0  0
   -0.5143   -0.9072   -2.4213 H   0  0  0  0  0  0  0  0  0  0  0  0
   -1.9477   -2.7536   -3.2622 H   0  0  0  0  0  0  0  0  0  0  0  0
   -3.8038   -3.1052    0.5829 H   0  0  0  0  0  0  0  0  0  0  0  0
   -2.3814   -1.2648    1.4567 H   0  0  0  0  0  0  0  0  0  0  0  0
  1  2  1  0
  2  3  1  0
  2  4  1  0
  4  5  2  0
  4  6  1  0
  6  7  1  0
  7  8  2  0
  8  9  1  0
  9 10  2  0
 10 11  1  0
 11 12  2  0
 12 13  1  0
 13 14  1  0
 14 15  1  0
 15 16  2  0
 16 17  1  0
 17 18  2  0
 18 19  1  0
 18 20  1  0
 20 21  2  0
 14  6  2  0
 21 15  1  0
 13  8  1  0
  1 22  1  0
  1 23  1  0
  1 24  1  0
  3 25  1  0
  3 26  1  0
  3 27  1  0
  9 28  1  0
 10 29  1  0
 11 30  1  0
 12 31  1  0
 16 32  1  0
 17 33  1  0
 20 34  1  0
 21 35  1  0
M  END
$$$$
