
     RDKit          3D

 53 57  0  0  0  0  0  0  0  0999 V2000
   -5.1491    2.3158   -0.2258 C   0  0  0  0  0  0  0  0  0  0  0  0
   -3.7497    1.7882   -0.5035 C   0  0  0  0  0  0  0  0  0  0  0  0
   -3.7192    0.6524   -1.5334 C   0  0  0  0  0  0  0  0  0  0  0  0
   -4.3662   -0.5762   -1.0734 N   0  0  0  0  0  0  0  0  0  0  0  0
   -5.6850   -0.8118   -1.4516 C   0  0  0  0  0  0  0  0  0  0  0  0
   -6.3322   -0.0670   -2.1898 O   0  0  0  0  0  0  0  0  0  0  0  0
   -6.3329   -2.0289   -0.8041 C   0  0  0  0  0  0  0  0  0  0  0  0
   -5.5205   -3.1289   -0.4519 O   0  0  0  0  0  0  0  0  0  0  0  0
   -4.2861   -2.7648    0.0086 C   0  0  0  0  0  0  0  0  0  0  0  0
   -3.6193   -3.7441    0.7482 C   0  0  0  0  0  0  0  0  0  0  0  0
   -2.3379   -3.5023    1.2406 C   0  0  0  0  0  0  0  0  0  0  0  0
   -1.7050   -2.2810    0.9840 C   0  0  0  0  0  0  0  0  0  0  0  0
   -0.3618   -2.0103    1.4872 C   0  0  0  0  0  0  0  0  0  0  0  0
    0.3456   -2.8643    2.2468 N   0  0  0  0  0  0  0  0  0  0  0  0
    1.5390   -2.1910    2.4862 O   0  0  0  0  0  0  0  0  0  0  0  0
    1.4416   -0.9909    1.8468 C   0  0  0  0  0  0  0  0  0  0  0  0
    2.6111   -0.0962    1.9378 C   0  0  0  0  0  0  0  0  0  0  0  0
    2.2482    1.3780    1.9989 C   0  0  0  0  0  0  0  0  0  0  0  0
    3.4750    2.0476    1.4275 C   0  0  0  0  0  0  0  0  0  0  0  0
    3.7140    3.2330    1.5971 O   0  0  0  0  0  0  0  0  0  0  0  0
    4.1789    1.0927    0.6764 N   0  0  0  0  0  0  0  0  0  0  0  0
    5.3404    1.3219   -0.1119 C   0  0  0  0  0  0  0  0  0  0  0  0
    5.8267    0.3280   -0.9771 C   0  0  0  0  0  0  0  0  0  0  0  0
    6.9733    0.5360   -1.7531 C   0  0  0  0  0  0  0  0  0  0  0  0
    7.6579    1.7431   -1.6786 C   0  0  0  0  0  0  0  0  0  0  0  0
    7.1933    2.7404   -0.8299 C   0  0  0  0  0  0  0  0  0  0  0  0
    6.0449    2.5310   -0.0556 C   0  0  0  0  0  0  0  0  0  0  0  0
    3.4943   -0.1800    0.7061 C   0  0  0  0  0  0  0  0  0  0  0  0
    0.3035   -0.8315    1.2129 N   0  0  0  0  0  0  0  0  0  0  0  0
   -2.3828   -1.3094    0.2240 C   0  0  0  0  0  0  0  0  0  0  0  0
   -3.6775   -1.5339   -0.2718 C   0  0  0  0  0  0  0  0  0  0  0  0
   -5.0986    3.1773    0.4481 H   0  0  0  0  0  0  0  0  0  0  0  0
   -5.7743    1.5559    0.2525 H   0  0  0  0  0  0  0  0  0  0  0  0
   -5.6383    2.6389   -1.1497 H   0  0  0  0  0  0  0  0  0  0  0  0
   -3.1378    2.6149   -0.8836 H   0  0  0  0  0  0  0  0  0  0  0  0
   -3.2995    1.4691    0.4419 H   0  0  0  0  0  0  0  0  0  0  0  0
   -4.2077    0.9973   -2.4530 H   0  0  0  0  0  0  0  0  0  0  0  0
   -2.6872    0.4281   -1.8270 H   0  0  0  0  0  0  0  0  0  0  0  0
   -6.8663   -1.6862    0.0909 H   0  0  0  0  0  0  0  0  0  0  0  0
   -7.0847   -2.4060   -1.5067 H   0  0  0  0  0  0  0  0  0  0  0  0
   -4.1021   -4.6990    0.9412 H   0  0  0  0  0  0  0  0  0  0  0  0
   -1.8402   -4.2790    1.8194 H   0  0  0  0  0  0  0  0  0  0  0  0
    3.2068   -0.3464    2.8263 H   0  0  0  0  0  0  0  0  0  0  0  0
    2.0724    1.7065    3.0282 H   0  0  0  0  0  0  0  0  0  0  0  0
    1.3863    1.6431    1.3756 H   0  0  0  0  0  0  0  0  0  0  0  0
    5.3240   -0.6277   -1.0858 H   0  0  0  0  0  0  0  0  0  0  0  0
    7.3274   -0.2468   -2.4179 H   0  0  0  0  0  0  0  0  0  0  0  0
    8.5489    1.9075   -2.2795 H   0  0  0  0  0  0  0  0  0  0  0  0
    7.7214    3.6883   -0.7623 H   0  0  0  0  0  0  0  0  0  0  0  0
    5.7361    3.3413    0.5981 H   0  0  0  0  0  0  0  0  0  0  0  0
    4.2005   -1.0119    0.8045 H   0  0  0  0  0  0  0  0  0  0  0  0
    2.9211   -0.2901   -0.2231 H   0  0  0  0  0  0  0  0  0  0  0  0
   -1.8706   -0.3708    0.0329 H   0  0  0  0  0  0  0  0  0  0  0  0
  1  2  1  0
  2  3  1  0
  3  4  1  0
  4  5  1  0
  5  6  2  0
  5  7  1  0
  7  8  1  0
  8  9  1  0
  9 10  2  0
 10 11  1  0
 11 12  2  0
 12 13  1  0
 13 14  2  0
 14 15  1  0
 15 16  1  0
 16 17  1  0
 17 18  1  0
 18 19  1  0
 19 20  2  0
 19 21  1  0
 21 22  1  0
 22 23  2  0
 23 24  1  0
 24 25  2  0
 25 26  1  0
 26 27  2  0
 21 28  1  0
 16 29  2  0
 12 30  1  0
 30 31  2  0
 31  4  1  0
 31  9  1  0
 29 13  1  0
 28 17  1  0
 27 22  1  0
  1 32  1  0
  1 33  1  0
  1 34  1  0
  2 35  1  0
  2 36  1  0
  3 37  1  0
  3 38  1  0
  7 39  1  0
  7 40  1  0
 10 41  1  0
 11 42  1  0
 17 43  1  0
 18 44  1  0
 18 45  1  0
 23 46  1  0
 24 47  1  0
 25 48  1  0
 26 49  1  0
 27 50  1  0
 28 51  1  0
 28 52  1  0
 30 53  1  0
M  END
$$$$
