
     RDKit          3D

 33 34  0  0  0  0  0  0  0  0999 V2000
   -0.3587    4.5966    1.1456 C   0  0  0  0  0  0  0  0  0  0  0  0
   -0.9342    3.3122    0.9063 O   0  0  0  0  0  0  0  0  0  0  0  0
   -0.0282    2.3336    0.6210 C   0  0  0  0  0  0  0  0  0  0  0  0
    1.1862    2.5147    0.5685 O   0  0  0  0  0  0  0  0  0  0  0  0
   -0.6624    1.0466    0.3844 C   0  0  0  0  0  0  0  0  0  0  0  0
   -2.3583    0.8458    0.4527 S   0  0  0  0  0  0  0  0  0  0  0  0
   -2.2775   -0.8246    0.0750 C   0  0  0  0  0  0  0  0  0  0  0  0
   -3.4724   -1.6416   -0.0311 C   0  0  0  0  0  0  0  0  0  0  0  0
   -4.7874   -1.2709    0.2051 C   0  0  0  0  0  0  0  0  0  0  0  0
   -5.7163   -2.3345    0.0021 C   0  0  0  0  0  0  0  0  0  0  0  0
   -5.0893   -3.4945   -0.3851 C   0  0  0  0  0  0  0  0  0  0  0  0
   -3.3984   -3.2975   -0.5010 S   0  0  0  0  0  0  0  0  0  0  0  0
   -0.9585   -1.2092   -0.0965 C   0  0  0  0  0  0  0  0  0  0  0  0
   -0.0200   -0.1454    0.0817 C   0  0  0  0  0  0  0  0  0  0  0  0
    1.3712   -0.2165   -0.0247 N   0  0  0  0  0  0  0  0  0  0  0  0
    2.1006   -1.3504   -0.2928 C   0  0  0  0  0  0  0  0  0  0  0  0
    1.6734   -2.4905   -0.4263 O   0  0  0  0  0  0  0  0  0  0  0  0
    3.5679   -1.1342   -0.3610 C   0  0  0  0  0  0  0  0  0  0  0  0
    4.1327   -0.0419   -0.8947 C   0  0  0  0  0  0  0  0  0  0  0  0
    5.5857    0.1320   -1.0012 C   0  0  0  0  0  0  0  0  0  0  0  0
    6.1227    1.0938   -1.5193 O   0  0  0  0  0  0  0  0  0  0  0  0
    6.2948   -0.8694   -0.4623 O   0  0  0  0  0  0  0  0  0  0  0  0
    0.3088    4.5621    2.0122 H   0  0  0  0  0  0  0  0  0  0  0  0
   -1.1705    5.2966    1.3618 H   0  0  0  0  0  0  0  0  0  0  0  0
    0.1751    4.9490    0.2575 H   0  0  0  0  0  0  0  0  0  0  0  0
   -5.0872   -0.2769    0.5140 H   0  0  0  0  0  0  0  0  0  0  0  0
   -6.7878   -2.2493    0.1346 H   0  0  0  0  0  0  0  0  0  0  0  0
   -5.5418   -4.4514   -0.6062 H   0  0  0  0  0  0  0  0  0  0  0  0
   -0.6764   -2.2264   -0.3410 H   0  0  0  0  0  0  0  0  0  0  0  0
    1.8663    0.6540    0.1590 H   0  0  0  0  0  0  0  0  0  0  0  0
    4.1557   -1.9789   -0.0146 H   0  0  0  0  0  0  0  0  0  0  0  0
    3.5563    0.7770   -1.3096 H   0  0  0  0  0  0  0  0  0  0  0  0
    7.2278   -0.6101   -0.6140 H   0  0  0  0  0  0  0  0  0  0  0  0
  1  2  1  0
  2  3  1  0
  3  4  2  0
  3  5  1  0
  5  6  1  0
  6  7  1  0
  7  8  1  0
  8  9  2  0
  9 10  1  0
 10 11  2  0
 11 12  1  0
  7 13  2  0
 13 14  1  0
 14 15  1  0
 15 16  1  0
 16 17  2  0
 16 18  1  0
 18 19  2  0
 19 20  1  0
 20 21  2  0
 20 22  1  0
 14  5  2  0
 12  8  1  0
  1 23  1  0
  1 24  1  0
  1 25  1  0
  9 26  1  0
 10 27  1  0
 11 28  1  0
 13 29  1  0
 15 30  1  0
 18 31  1  0
 19 32  1  0
 22 33  1  0
M  END
$$$$
