
     RDKit          3D

 67 69  0  0  0  0  0  0  0  0999 V2000
    4.5284    4.1510   -0.7740 C   0  0  0  0  0  0  0  0  0  0  0  0
    5.1482    2.9215   -1.4214 C   0  0  0  0  0  0  0  0  0  0  0  0
    4.5114    1.6485   -0.9261 C   0  0  0  0  0  0  0  0  0  0  0  0
    3.3628    1.1415   -1.5461 C   0  0  0  0  0  0  0  0  0  0  0  0
    2.7495   -0.0188   -1.0657 C   0  0  0  0  0  0  0  0  0  0  0  0
    3.2813   -0.6900    0.0378 C   0  0  0  0  0  0  0  0  0  0  0  0
    2.6441   -1.8479    0.6126 N   0  0  0  0  0  0  0  0  0  0  0  0
    2.2513   -2.9580   -0.2960 C   0  0  0  0  0  0  0  0  0  0  0  0
    3.3355   -4.0498   -0.3758 C   0  0  0  0  0  0  0  0  0  0  0  0
    4.6092   -3.5750   -1.0750 C   0  0  0  0  0  0  0  0  0  0  0  0
    3.6646   -4.6479    0.9920 C   0  0  0  0  0  0  0  0  0  0  0  0
    1.6108   -1.5375    1.9491 S   0  0  0  0  0  6  0  0  0  0  0  0
    2.2304   -0.5771    2.8395 O   0  0  0  0  0  0  0  0  0  0  0  0
    1.1524   -2.8130    2.4679 O   0  0  0  0  0  0  0  0  0  0  0  0
    0.1964   -0.7432    1.2057 C   0  0  0  0  0  0  0  0  0  0  0  0
   -0.9234   -1.5001    0.8625 C   0  0  0  0  0  0  0  0  0  0  0  0
   -2.0459   -0.8698    0.3187 C   0  0  0  0  0  0  0  0  0  0  0  0
   -2.0571    0.5151    0.1153 C   0  0  0  0  0  0  0  0  0  0  0  0
   -3.1153    1.2251   -0.3869 O   0  0  0  0  0  0  0  0  0  0  0  0
   -4.2827    0.5361   -0.8431 C   0  0  0  0  0  0  0  0  0  0  0  0
   -5.2790    0.3042    0.3101 C   0  0  0  0  0  0  0  0  0  0  0  0
   -5.8265    1.6337    0.8654 C   0  0  0  0  0  0  0  0  0  0  0  0
   -7.1907    1.9980    0.2818 C   0  0  0  0  0  0  0  0  0  0  0  0
   -7.2943    1.5371   -1.0607 O   0  0  0  0  0  0  0  0  0  0  0  0
   -7.3496    0.1129   -1.1489 C   0  0  0  0  0  0  0  0  0  0  0  0
   -6.4416   -0.5856   -0.1364 C   0  0  0  0  0  0  0  0  0  0  0  0
   -0.9250    1.2824    0.4620 C   0  0  0  0  0  0  0  0  0  0  0  0
   -0.9374    2.7820    0.2793 C   0  0  0  0  0  0  0  0  0  0  0  0
    0.3845    3.3043    0.1885 O   0  0  0  0  0  0  0  0  0  0  0  0
    0.1874    0.6430    1.0377 C   0  0  0  0  0  0  0  0  0  0  0  0
    4.4129   -0.1740    0.6723 C   0  0  0  0  0  0  0  0  0  0  0  0
    5.0288    0.9834    0.1915 C   0  0  0  0  0  0  0  0  0  0  0  0
    5.0104    5.0592   -1.1491 H   0  0  0  0  0  0  0  0  0  0  0  0
    3.4577    4.2193   -0.9943 H   0  0  0  0  0  0  0  0  0  0  0  0
    4.6459    4.1286    0.3149 H   0  0  0  0  0  0  0  0  0  0  0  0
    6.2259    2.8992   -1.2186 H   0  0  0  0  0  0  0  0  0  0  0  0
    5.0458    2.9843   -2.5118 H   0  0  0  0  0  0  0  0  0  0  0  0
    2.9239    1.6610   -2.3954 H   0  0  0  0  0  0  0  0  0  0  0  0
    1.8410   -0.3631   -1.5498 H   0  0  0  0  0  0  0  0  0  0  0  0
    1.3243   -3.4289    0.0496 H   0  0  0  0  0  0  0  0  0  0  0  0
    2.0255   -2.5923   -1.3032 H   0  0  0  0  0  0  0  0  0  0  0  0
    2.9185   -4.8580   -0.9919 H   0  0  0  0  0  0  0  0  0  0  0  0
    5.1667   -2.8572   -0.4670 H   0  0  0  0  0  0  0  0  0  0  0  0
    5.2756   -4.4225   -1.2701 H   0  0  0  0  0  0  0  0  0  0  0  0
    4.3767   -3.1078   -2.0372 H   0  0  0  0  0  0  0  0  0  0  0  0
    4.3618   -5.4863    0.8877 H   0  0  0  0  0  0  0  0  0  0  0  0
    4.1273   -3.9111    1.6567 H   0  0  0  0  0  0  0  0  0  0  0  0
    2.7604   -5.0278    1.4782 H   0  0  0  0  0  0  0  0  0  0  0  0
   -0.9411   -2.5747    1.0299 H   0  0  0  0  0  0  0  0  0  0  0  0
   -2.9028   -1.4920    0.0836 H   0  0  0  0  0  0  0  0  0  0  0  0
   -4.0247   -0.3909   -1.3678 H   0  0  0  0  0  0  0  0  0  0  0  0
   -4.7335    1.1831   -1.6044 H   0  0  0  0  0  0  0  0  0  0  0  0
   -4.7470   -0.1955    1.1286 H   0  0  0  0  0  0  0  0  0  0  0  0
   -5.1187    2.4481    0.6702 H   0  0  0  0  0  0  0  0  0  0  0  0
   -5.9206    1.5763    1.9568 H   0  0  0  0  0  0  0  0  0  0  0  0
   -7.3212    3.0850    0.2860 H   0  0  0  0  0  0  0  0  0  0  0  0
   -8.0062    1.5718    0.8786 H   0  0  0  0  0  0  0  0  0  0  0  0
   -8.3880   -0.2129   -1.0227 H   0  0  0  0  0  0  0  0  0  0  0  0
   -7.0500   -0.1542   -2.1677 H   0  0  0  0  0  0  0  0  0  0  0  0
   -7.0398   -0.8387    0.7491 H   0  0  0  0  0  0  0  0  0  0  0  0
   -6.0886   -1.5412   -0.5408 H   0  0  0  0  0  0  0  0  0  0  0  0
   -1.4531    3.0578   -0.6461 H   0  0  0  0  0  0  0  0  0  0  0  0
   -1.4402    3.2491    1.1323 H   0  0  0  0  0  0  0  0  0  0  0  0
    0.2931    4.2665    0.0892 H   0  0  0  0  0  0  0  0  0  0  0  0
    1.0531    1.2316    1.3417 H   0  0  0  0  0  0  0  0  0  0  0  0
    4.8153   -0.6678    1.5537 H   0  0  0  0  0  0  0  0  0  0  0  0
    5.9049    1.3697    0.7076 H   0  0  0  0  0  0  0  0  0  0  0  0
  1  2  1  0
  2  3  1  0
  3  4  2  0
  4  5  1  0
  5  6  2  0
  6  7  1  0
  7  8  1  0
  8  9  1  0
  9 10  1  0
  9 11  1  0
  7 12  1  0
 12 13  2  0
 12 14  2  0
 12 15  1  0
 15 16  2  0
 16 17  1  0
 17 18  2  0
 18 19  1  0
 19 20  1  0
 20 21  1  0
 21 22  1  0
 22 23  1  0
 23 24  1  0
 24 25  1  0
 25 26  1  0
 18 27  1  0
 27 28  1  0
 28 29  1  0
 27 30  2  0
  6 31  1  0
 31 32  2  0
 32  3  1  0
 30 15  1  0
 26 21  1  0
  1 33  1  0
  1 34  1  0
  1 35  1  0
  2 36  1  0
  2 37  1  0
  4 38  1  0
  5 39  1  0
  8 40  1  0
  8 41  1  0
  9 42  1  0
 10 43  1  0
 10 44  1  0
 10 45  1  0
 11 46  1  0
 11 47  1  0
 11 48  1  0
 16 49  1  0
 17 50  1  0
 20 51  1  0
 20 52  1  0
 21 53  1  0
 22 54  1  0
 22 55  1  0
 23 56  1  0
 23 57  1  0
 25 58  1  0
 25 59  1  0
 26 60  1  0
 26 61  1  0
 28 62  1  0
 28 63  1  0
 29 64  1  0
 30 65  1  0
 31 66  1  0
 32 67  1  0
M  END
$$$$
