
     RDKit          3D

 53 56  0  0  0  0  0  0  0  0999 V2000
   -6.2320    2.0804   -0.1862 C   0  0  0  0  0  0  0  0  0  0  0  0
   -5.6584    1.1476    0.8714 C   0  0  0  0  0  0  0  0  0  0  0  0
   -4.9977   -0.0618    0.2495 C   0  0  0  0  0  0  0  0  0  0  0  0
   -5.7808   -1.2028    0.0002 C   0  0  0  0  0  0  0  0  0  0  0  0
   -5.2326   -2.3295   -0.6137 C   0  0  0  0  0  0  0  0  0  0  0  0
   -3.8956   -2.3302   -0.9972 C   0  0  0  0  0  0  0  0  0  0  0  0
   -3.1057   -1.2053   -0.7618 C   0  0  0  0  0  0  0  0  0  0  0  0
   -3.6465   -0.0719   -0.1380 C   0  0  0  0  0  0  0  0  0  0  0  0
   -2.8105    1.0660    0.1315 N   0  0  0  0  0  0  0  0  0  0  0  0
   -2.2201    1.7632   -1.0249 C   0  0  0  0  0  0  0  0  0  0  0  0
   -1.9500    1.0719    1.6026 S   0  0  0  0  0  6  0  0  0  0  0  0
   -2.8026    0.5869    2.6694 O   0  0  0  0  0  0  0  0  0  0  0  0
   -1.2727    2.3469    1.7322 O   0  0  0  0  0  0  0  0  0  0  0  0
   -0.6788   -0.1622    1.3573 C   0  0  0  0  0  0  0  0  0  0  0  0
   -0.8704   -1.4559    1.8656 C   0  0  0  0  0  0  0  0  0  0  0  0
    0.1169   -2.4365    1.7179 C   0  0  0  0  0  0  0  0  0  0  0  0
    1.2803   -2.0455    1.0592 C   0  0  0  0  0  0  0  0  0  0  0  0
    2.3562   -2.8311    0.8021 O   0  0  0  0  0  0  0  0  0  0  0  0
    3.3121   -2.1020    0.1200 N   0  0  0  0  0  0  0  0  0  0  0  0
    2.8184   -0.8562   -0.0075 C   0  0  0  0  0  0  0  0  0  0  0  0
    3.5119    0.2183   -0.7320 C   0  0  0  0  0  0  0  0  0  0  0  0
    2.8476    1.0511   -1.3537 O   0  0  0  0  0  0  0  0  0  0  0  0
    4.9109    0.3019   -0.6996 N   0  0  0  0  0  0  0  0  0  0  0  0
    5.5676    1.0988   -1.7394 C   0  0  0  0  0  0  0  0  0  0  0  0
    6.8979    1.6841   -1.2647 C   0  0  0  0  0  0  0  0  0  0  0  0
    7.7512    0.6568   -0.7436 O   0  0  0  0  0  0  0  0  0  0  0  0
    7.1347    0.0300    0.3875 C   0  0  0  0  0  0  0  0  0  0  0  0
    5.7989   -0.6248    0.0142 C   0  0  0  0  0  0  0  0  0  0  0  0
    1.5126   -0.7759    0.5621 C   0  0  0  0  0  0  0  0  0  0  0  0
    0.5180    0.2070    0.7198 C   0  0  0  0  0  0  0  0  0  0  0  0
   -5.4484    2.4595   -0.8508 H   0  0  0  0  0  0  0  0  0  0  0  0
   -6.7176    2.9382    0.2890 H   0  0  0  0  0  0  0  0  0  0  0  0
   -6.9772    1.5695   -0.8050 H   0  0  0  0  0  0  0  0  0  0  0  0
   -6.4615    0.8195    1.5438 H   0  0  0  0  0  0  0  0  0  0  0  0
   -4.9561    1.6985    1.5044 H   0  0  0  0  0  0  0  0  0  0  0  0
   -6.8318   -1.2147    0.2832 H   0  0  0  0  0  0  0  0  0  0  0  0
   -5.8533   -3.2032   -0.7970 H   0  0  0  0  0  0  0  0  0  0  0  0
   -3.4675   -3.2047   -1.4804 H   0  0  0  0  0  0  0  0  0  0  0  0
   -2.0652   -1.2246   -1.0732 H   0  0  0  0  0  0  0  0  0  0  0  0
   -1.2090    2.1261   -0.8239 H   0  0  0  0  0  0  0  0  0  0  0  0
   -2.1626    1.1253   -1.9125 H   0  0  0  0  0  0  0  0  0  0  0  0
   -2.8407    2.6321   -1.2663 H   0  0  0  0  0  0  0  0  0  0  0  0
   -1.7975   -1.7125    2.3789 H   0  0  0  0  0  0  0  0  0  0  0  0
   -0.0118   -3.4441    2.0962 H   0  0  0  0  0  0  0  0  0  0  0  0
    4.9150    1.9014   -2.0954 H   0  0  0  0  0  0  0  0  0  0  0  0
    5.7445    0.4150   -2.5783 H   0  0  0  0  0  0  0  0  0  0  0  0
    7.4184    2.1586   -2.1028 H   0  0  0  0  0  0  0  0  0  0  0  0
    6.7407    2.4473   -0.4933 H   0  0  0  0  0  0  0  0  0  0  0  0
    7.8259   -0.7272    0.7711 H   0  0  0  0  0  0  0  0  0  0  0  0
    6.9936    0.7797    1.1758 H   0  0  0  0  0  0  0  0  0  0  0  0
    5.3263   -0.9814    0.9321 H   0  0  0  0  0  0  0  0  0  0  0  0
    5.9748   -1.4728   -0.6568 H   0  0  0  0  0  0  0  0  0  0  0  0
    0.6803    1.2203    0.3609 H   0  0  0  0  0  0  0  0  0  0  0  0
  1  2  1  0
  2  3  1  0
  3  4  2  0
  4  5  1  0
  5  6  2  0
  6  7  1  0
  7  8  2  0
  8  9  1  0
  9 10  1  0
  9 11  1  0
 11 12  2  0
 11 13  2  0
 11 14  1  0
 14 15  2  0
 15 16  1  0
 16 17  2  0
 17 18  1  0
 18 19  1  0
 19 20  2  0
 20 21  1  0
 21 22  2  0
 21 23  1  0
 23 24  1  0
 24 25  1  0
 25 26  1  0
 26 27  1  0
 27 28  1  0
 20 29  1  0
 29 30  2  0
  8  3  1  0
 30 14  1  0
 29 17  1  0
 28 23  1  0
  1 31  1  0
  1 32  1  0
  1 33  1  0
  2 34  1  0
  2 35  1  0
  4 36  1  0
  5 37  1  0
  6 38  1  0
  7 39  1  0
 10 40  1  0
 10 41  1  0
 10 42  1  0
 15 43  1  0
 16 44  1  0
 24 45  1  0
 24 46  1  0
 25 47  1  0
 25 48  1  0
 27 49  1  0
 27 50  1  0
 28 51  1  0
 28 52  1  0
 30 53  1  0
M  END
$$$$
