
     RDKit          3D

 29 29  0  0  0  0  0  0  0  0999 V2000
   -4.4930    1.9613    1.0803 N   0  0  0  0  0  0  0  0  0  0  0  0
   -4.5704    0.3737    0.5130 S   0  0  0  0  0  6  0  0  0  0  0  0
   -5.0544   -0.4590    1.5884 O   0  0  0  0  0  0  0  0  0  0  0  0
   -5.2445    0.4586   -0.7632 O   0  0  0  0  0  0  0  0  0  0  0  0
   -2.8584    0.0203    0.2405 C   0  0  0  0  0  0  0  0  0  0  0  0
   -2.3254    0.0988   -1.0473 C   0  0  0  0  0  0  0  0  0  0  0  0
   -0.9610   -0.1366   -1.2449 C   0  0  0  0  0  0  0  0  0  0  0  0
   -0.1336   -0.4516   -0.1645 C   0  0  0  0  0  0  0  0  0  0  0  0
    1.2474   -0.6749   -0.2719 N   0  0  0  0  0  0  0  0  0  0  0  0
    2.0607   -0.5534   -1.3755 C   0  0  0  0  0  0  0  0  0  0  0  0
    1.6996   -0.2534   -2.5131 O   0  0  0  0  0  0  0  0  0  0  0  0
    3.5245   -0.8672   -1.0873 C   0  0  0  0  0  0  0  0  0  0  0  0
    4.1982    0.1378   -0.1601 C   0  0  0  0  0  0  0  0  0  0  0  0
    3.9219   -0.0547    1.3307 C   0  0  0  0  0  0  0  0  0  0  0  0
    2.9609   -0.8280    1.6158 O   0  0  0  0  0  0  0  0  0  0  0  0
    4.6747    0.6001    2.1001 O   0  0  0  0  0  1  0  0  0  0  0  0
   -0.6900   -0.5511    1.1185 C   0  0  0  0  0  0  0  0  0  0  0  0
   -2.0510   -0.3204    1.3267 C   0  0  0  0  0  0  0  0  0  0  0  0
   -3.5387    2.2491    1.3022 H   0  0  0  0  0  0  0  0  0  0  0  0
   -4.9170    2.5747    0.3831 H   0  0  0  0  0  0  0  0  0  0  0  0
   -2.9505    0.3477   -1.9014 H   0  0  0  0  0  0  0  0  0  0  0  0
   -0.5650   -0.0649   -2.2533 H   0  0  0  0  0  0  0  0  0  0  0  0
    1.7519   -0.8749    0.6111 H   0  0  0  0  0  0  0  0  0  0  0  0
    3.5941   -1.8896   -0.6974 H   0  0  0  0  0  0  0  0  0  0  0  0
    4.0481   -0.8634   -2.0515 H   0  0  0  0  0  0  0  0  0  0  0  0
    5.2840    0.0623   -0.2992 H   0  0  0  0  0  0  0  0  0  0  0  0
    3.9024    1.1591   -0.4285 H   0  0  0  0  0  0  0  0  0  0  0  0
   -0.0530   -0.8003    1.9676 H   0  0  0  0  0  0  0  0  0  0  0  0
   -2.4623   -0.4005    2.3303 H   0  0  0  0  0  0  0  0  0  0  0  0
  1  2  1  0
  2  3  2  0
  2  4  2  0
  2  5  1  0
  5  6  2  0
  6  7  1  0
  7  8  2  0
  8  9  1  0
  9 10  1  0
 10 11  2  0
 10 12  1  0
 12 13  1  0
 13 14  1  0
 14 15  2  0
 14 16  1  0
  8 17  1  0
 17 18  2  0
 18  5  1  0
  1 19  1  0
  1 20  1  0
  6 21  1  0
  7 22  1  0
  9 23  1  0
 12 24  1  0
 12 25  1  0
 13 26  1  0
 13 27  1  0
 17 28  1  0
 18 29  1  0
M  CHG  1  16  -1
M  END
$$$$
