
     RDKit          3D

 47 50  0  0  0  0  0  0  0  0999 V2000
    6.4377    0.5041    0.0004 C   0  0  0  0  0  0  0  0  0  0  0  0
    5.0195    0.1526   -0.0733 N   0  0  0  0  0  0  0  0  0  0  0  0
    4.2882    1.1283   -0.8917 C   0  0  0  0  0  0  0  0  0  0  0  0
    2.8143    0.7435   -1.0247 C   0  0  0  0  0  0  0  0  0  0  0  0
    2.1615    0.5924    0.3538 C   0  0  0  0  0  0  0  0  0  0  0  0
    0.7278    0.1572    0.2375 C   0  0  0  0  0  0  0  0  0  0  0  0
    0.1633   -0.9927   -0.2753 C   0  0  0  0  0  0  0  0  0  0  0  0
   -1.2501   -0.8933   -0.1398 C   0  0  0  0  0  0  0  0  0  0  0  0
   -2.2487   -1.8722   -0.5423 C   0  0  0  0  0  0  0  0  0  0  0  0
   -3.2442   -2.2931    0.3397 C   0  0  0  0  0  0  0  0  0  0  0  0
   -4.1625   -3.2297   -0.1037 C   0  0  0  0  0  0  0  0  0  0  0  0
   -4.1498   -3.7687   -1.3417 N   0  0  0  0  0  0  0  0  0  0  0  0
   -3.1697   -3.3538   -2.1722 C   0  0  0  0  0  0  0  0  0  0  0  0
   -2.2064   -2.4219   -1.8240 C   0  0  0  0  0  0  0  0  0  0  0  0
   -1.5232    0.3358    0.4512 C   0  0  0  0  0  0  0  0  0  0  0  0
   -2.7771    1.0116    0.7873 C   0  0  0  0  0  0  0  0  0  0  0  0
   -3.7781    1.1757   -0.1809 C   0  0  0  0  0  0  0  0  0  0  0  0
   -4.9735    1.8221    0.1399 C   0  0  0  0  0  0  0  0  0  0  0  0
   -5.1658    2.3053    1.4281 C   0  0  0  0  0  0  0  0  0  0  0  0
   -6.3121    2.9253    1.7368 F   0  0  0  0  0  0  0  0  0  0  0  0
   -4.1865    2.1538    2.4024 C   0  0  0  0  0  0  0  0  0  0  0  0
   -2.9907    1.5071    2.0825 C   0  0  0  0  0  0  0  0  0  0  0  0
   -0.3063    0.9476    0.6742 N   0  0  0  0  0  0  0  0  0  0  0  0
    2.9762   -0.3791    1.2151 C   0  0  0  0  0  0  0  0  0  0  0  0
    4.4447    0.0430    1.2736 C   0  0  0  0  0  0  0  0  0  0  0  0
    6.9930   -0.2527    0.5656 H   0  0  0  0  0  0  0  0  0  0  0  0
    6.5984    1.4779    0.4769 H   0  0  0  0  0  0  0  0  0  0  0  0
    6.8797    0.5331   -1.0018 H   0  0  0  0  0  0  0  0  0  0  0  0
    4.3687    2.1362   -0.4635 H   0  0  0  0  0  0  0  0  0  0  0  0
    4.7221    1.1676   -1.8983 H   0  0  0  0  0  0  0  0  0  0  0  0
    2.7347   -0.1931   -1.5931 H   0  0  0  0  0  0  0  0  0  0  0  0
    2.2887    1.5084   -1.6098 H   0  0  0  0  0  0  0  0  0  0  0  0
    2.1853    1.5758    0.8454 H   0  0  0  0  0  0  0  0  0  0  0  0
    0.7127   -1.8255   -0.6973 H   0  0  0  0  0  0  0  0  0  0  0  0
   -3.3067   -1.9081    1.3513 H   0  0  0  0  0  0  0  0  0  0  0  0
   -4.9565   -3.5838    0.5474 H   0  0  0  0  0  0  0  0  0  0  0  0
   -3.1790   -3.8048   -3.1602 H   0  0  0  0  0  0  0  0  0  0  0  0
   -1.4491   -2.1279   -2.5423 H   0  0  0  0  0  0  0  0  0  0  0  0
   -3.6312    0.8014   -1.1919 H   0  0  0  0  0  0  0  0  0  0  0  0
   -5.7516    1.9486   -0.6059 H   0  0  0  0  0  0  0  0  0  0  0  0
   -4.3618    2.5341    3.4035 H   0  0  0  0  0  0  0  0  0  0  0  0
   -2.2365    1.3763    2.8549 H   0  0  0  0  0  0  0  0  0  0  0  0
   -0.2017    1.8693    1.0763 H   0  0  0  0  0  0  0  0  0  0  0  0
    2.5662   -0.4170    2.2321 H   0  0  0  0  0  0  0  0  0  0  0  0
    2.9092   -1.3992    0.8137 H   0  0  0  0  0  0  0  0  0  0  0  0
    4.5336    0.9941    1.8151 H   0  0  0  0  0  0  0  0  0  0  0  0
    4.9932   -0.7115    1.8507 H   0  0  0  0  0  0  0  0  0  0  0  0
  1  2  1  0
  2  3  1  0
  3  4  1  0
  4  5  1  0
  5  6  1  0
  6  7  2  0
  7  8  1  0
  8  9  1  0
  9 10  2  0
 10 11  1  0
 11 12  2  0
 12 13  1  0
 13 14  2  0
  8 15  2  0
 15 16  1  0
 16 17  2  0
 17 18  1  0
 18 19  2  0
 19 20  1  0
 19 21  1  0
 21 22  2  0
 15 23  1  0
  5 24  1  0
 24 25  1  0
 25  2  1  0
 23  6  1  0
 14  9  1  0
 22 16  1  0
  1 26  1  0
  1 27  1  0
  1 28  1  0
  3 29  1  0
  3 30  1  0
  4 31  1  0
  4 32  1  0
  5 33  1  0
  7 34  1  0
 10 35  1  0
 11 36  1  0
 13 37  1  0
 14 38  1  0
 17 39  1  0
 18 40  1  0
 21 41  1  0
 22 42  1  0
 23 43  1  0
 24 44  1  0
 24 45  1  0
 25 46  1  0
 25 47  1  0
M  END
$$$$
