
     RDKit          3D

 54 56  0  0  0  0  0  0  0  0999 V2000
    0.6903    0.0000    0.0000 Cl  0  0  0  0  0  0  0  0  0  0  0  0
    0.2029   -6.2248    1.4609 N   0  0  0  0  0  0  0  0  0  0  0  0
    0.8502   -5.0553    0.9707 C   0  0  0  0  0  0  0  0  0  0  0  0
    2.0160   -5.1986    0.5838 O   0  0  0  0  0  0  0  0  0  0  0  0
    0.1478   -3.8100    0.9480 C   0  0  0  0  0  0  0  0  0  0  0  0
   -1.1636   -3.8077    1.4367 C   0  0  0  0  0  0  0  0  0  0  0  0
   -1.9311   -2.7126    1.4819 N   0  0  0  0  0  0  0  0  0  0  0  0
   -1.3945   -1.5617    1.0280 C   0  0  0  0  0  0  0  0  0  0  0  0
   -2.1734   -0.3904    1.0736 N   0  0  0  0  0  0  0  0  0  0  0  0
   -1.6902    0.8892    0.5931 C   0  0  2  0  0  0  0  0  0  0  0  0
   -2.6778    1.9820    0.8710 C   0  0  0  0  0  0  0  0  0  0  0  0
   -3.4732    2.4462   -0.2807 C   0  0  0  0  0  0  0  0  0  0  0  0
   -2.7518    2.6058   -1.5710 C   0  0  0  0  0  0  0  0  0  0  0  0
   -1.2937    2.1490   -1.4487 C   0  0  0  0  0  0  0  0  0  0  0  0
   -1.3753    0.7478   -0.8749 C   0  0  2  0  0  0  0  0  0  0  0  0
   -2.5389    0.1165   -1.5127 N   0  0  0  0  0  0  0  0  0  0  0  0
   -0.1426   -1.5521    0.5587 N   0  0  0  0  0  0  0  0  0  0  0  0
    0.6541   -2.6230    0.4974 C   0  0  0  0  0  0  0  0  0  0  0  0
    1.9502   -2.4963   -0.0483 N   0  0  0  0  0  0  0  0  0  0  0  0
    2.5411   -1.2862   -0.4834 C   0  0  0  0  0  0  0  0  0  0  0  0
    3.5696   -1.3707   -1.4188 C   0  0  0  0  0  0  0  0  0  0  0  0
    4.1909   -0.2247   -1.8489 C   0  0  0  0  0  0  0  0  0  0  0  0
    3.8108    0.9990   -1.3687 C   0  0  0  0  0  0  0  0  0  0  0  0
    2.7993    1.1089   -0.4453 C   0  0  0  0  0  0  0  0  0  0  0  0
    2.3952    2.3972    0.0637 N   0  0  0  0  0  0  0  0  0  0  0  0
    2.2994    2.7533    1.3336 N   0  0  0  0  0  0  0  0  0  0  0  0
    1.8966    4.0217    1.4494 C   0  0  0  0  0  0  0  0  0  0  0  0
    1.7318    4.4814    0.1620 C   0  0  0  0  0  0  0  0  0  0  0  0
    2.0524    3.4401   -0.6556 N   0  0  0  0  0  0  0  0  0  0  0  0
    2.1813   -0.0446   -0.0186 C   0  0  0  0  0  0  0  0  0  0  0  0
   -0.6903    0.0000    0.0000 H   0  0  0  0  0  0  0  0  0  0  0  0
   -0.4846   -6.7492    0.8601 H   0  0  0  0  0  0  0  0  0  0  0  0
    0.3829   -6.5981    2.4158 H   0  0  0  0  0  0  0  0  0  0  0  0
   -1.6031   -4.7357    1.8054 H   0  0  0  0  0  0  0  0  0  0  0  0
   -3.1461   -0.4520    1.4747 H   0  0  0  0  0  0  0  0  0  0  0  0
   -0.7468    1.1080    1.1176 H   0  0  0  0  0  0  0  0  0  0  0  0
   -2.1667    2.8441    1.3822 H   0  0  0  0  0  0  0  0  0  0  0  0
   -3.3904    1.5809    1.6458 H   0  0  0  0  0  0  0  0  0  0  0  0
   -3.8883    3.4650   -0.0160 H   0  0  0  0  0  0  0  0  0  0  0  0
   -4.3982    1.8197   -0.4560 H   0  0  0  0  0  0  0  0  0  0  0  0
   -2.8107    3.6375   -2.0017 H   0  0  0  0  0  0  0  0  0  0  0  0
   -3.2001    1.9284   -2.3509 H   0  0  0  0  0  0  0  0  0  0  0  0
   -0.8175    2.8647   -0.7303 H   0  0  0  0  0  0  0  0  0  0  0  0
   -0.8014    2.1844   -2.4356 H   0  0  0  0  0  0  0  0  0  0  0  0
   -0.4670    0.1877   -1.0859 H   0  0  0  0  0  0  0  0  0  0  0  0
   -3.2120   -0.2414   -0.7964 H   0  0  0  0  0  0  0  0  0  0  0  0
   -2.2207   -0.7221   -2.0808 H   0  0  0  0  0  0  0  0  0  0  0  0
    2.5810   -3.3493   -0.1648 H   0  0  0  0  0  0  0  0  0  0  0  0
    3.8841   -2.3299   -1.8105 H   0  0  0  0  0  0  0  0  0  0  0  0
    4.9930   -0.2620   -2.5752 H   0  0  0  0  0  0  0  0  0  0  0  0
    4.2988    1.8974   -1.7070 H   0  0  0  0  0  0  0  0  0  0  0  0
    1.7317    4.5783    2.3785 H   0  0  0  0  0  0  0  0  0  0  0  0
    1.4111    5.4760   -0.1105 H   0  0  0  0  0  0  0  0  0  0  0  0
    1.3878    0.0883    0.7284 H   0  0  0  0  0  0  0  0  0  0  0  0
  2  3  1  0
  3  4  2  0
  3  5  1  0
  5  6  2  0
  6  7  1  0
  7  8  2  0
  8  9  1  0
  9 10  1  0
 10 11  1  0
 11 12  1  0
 12 13  1  0
 13 14  1  0
 14 15  1  0
 15 16  1  0
  8 17  1  0
 17 18  2  0
 18 19  1  0
 19 20  1  0
 20 21  2  0
 21 22  1  0
 22 23  2  0
 23 24  1  0
 24 25  1  0
 25 26  1  0
 26 27  2  0
 27 28  1  0
 28 29  2  0
 24 30  2  0
 18  5  1  0
 30 20  1  0
 15 10  1  0
 29 25  1  0
  1 31  1  0
  2 32  1  0
  2 33  1  0
  6 34  1  0
  9 35  1  0
 10 36  1  1
 11 37  1  0
 11 38  1  0
 12 39  1  0
 12 40  1  0
 13 41  1  0
 13 42  1  0
 14 43  1  0
 14 44  1  0
 15 45  1  1
 16 46  1  0
 16 47  1  0
 19 48  1  0
 21 49  1  0
 22 50  1  0
 23 51  1  0
 27 52  1  0
 28 53  1  0
 30 54  1  0
M  END
$$$$
