
     RDKit          3D

 56 59  0  0  0  0  0  0  0  0999 V2000
   -5.1891    4.5414   -3.0746 C   0  0  0  0  0  0  0  0  0  0  0  0
   -4.3394    3.7113   -2.2049 C   0  0  0  0  0  0  0  0  0  0  0  0
   -4.4307    2.4365   -1.9084 N   0  0  0  0  0  0  0  0  0  0  0  0
   -3.3559    2.2481   -1.0636 C   0  0  0  0  0  0  0  0  0  0  0  0
   -3.0505    0.9498   -0.4689 C   0  0  0  0  0  0  0  0  0  0  0  0
   -3.9004   -0.1565   -0.7171 C   0  0  0  0  0  0  0  0  0  0  0  0
   -3.6438   -1.4210   -0.1678 C   0  0  0  0  0  0  0  0  0  0  0  0
   -2.5303   -1.5567    0.6330 C   0  0  0  0  0  0  0  0  0  0  0  0
   -1.6894   -0.4681    0.8843 C   0  0  0  0  0  0  0  0  0  0  0  0
   -1.9204    0.7842    0.3480 C   0  0  0  0  0  0  0  0  0  0  0  0
   -0.6544   -0.9070    1.7175 N   0  0  0  0  0  0  0  0  0  0  0  0
    0.4885   -0.1427    2.1370 C   0  0  0  0  0  0  0  0  0  0  0  0
    1.5852   -0.1024    1.0674 C   0  0  0  0  0  0  0  0  0  0  0  0
    1.3723   -0.2074   -0.1377 O   0  0  0  0  0  0  0  0  0  0  0  0
    2.8491    0.1375    1.5776 N   0  0  0  0  0  0  0  0  0  0  0  0
    4.0158    0.2819    0.7049 C   0  0  0  0  0  0  0  0  0  0  0  0
    5.2816   -0.0310    1.5047 C   0  0  0  0  0  0  0  0  0  0  0  0
    4.0563    1.6884    0.0766 C   0  0  0  0  0  0  0  0  0  0  0  0
    5.0808    1.8065   -0.9929 C   0  0  0  0  0  0  0  0  0  0  0  0
    5.0970    1.4637   -2.3284 C   0  0  0  0  0  0  0  0  0  0  0  0
    6.3734    1.8313   -2.8170 C   0  0  0  0  0  0  0  0  0  0  0  0
    7.0500    2.3758   -1.7509 C   0  0  0  0  0  0  0  0  0  0  0  0
    6.2721    2.3656   -0.6380 O   0  0  0  0  0  0  0  0  0  0  0  0
   -0.8107   -2.2824    1.9620 C   0  0  0  0  0  0  0  0  0  0  0  0
   -0.0601   -2.9873    2.6192 O   0  0  0  0  0  0  0  0  0  0  0  0
   -2.0027   -2.6750    1.3053 N   0  0  0  0  0  0  0  0  0  0  0  0
   -2.4992   -4.0373    1.2991 C   0  0  0  0  0  0  0  0  0  0  0  0
   -2.4394   -4.6785   -0.0867 C   0  0  0  0  0  0  0  0  0  0  0  0
   -3.8831   -4.1648    1.9343 C   0  0  0  0  0  0  0  0  0  0  0  0
   -2.6400    3.3639   -0.8409 N   0  0  0  0  0  0  0  0  0  0  0  0
   -3.2901    4.3337   -1.6001 O   0  0  0  0  0  0  0  0  0  0  0  0
   -4.6012    4.9654   -3.8940 H   0  0  0  0  0  0  0  0  0  0  0  0
   -5.9985    3.9456   -3.5068 H   0  0  0  0  0  0  0  0  0  0  0  0
   -5.6350    5.3623   -2.5053 H   0  0  0  0  0  0  0  0  0  0  0  0
   -4.7757   -0.0323   -1.3544 H   0  0  0  0  0  0  0  0  0  0  0  0
   -4.3086   -2.2463   -0.3859 H   0  0  0  0  0  0  0  0  0  0  0  0
   -1.2440    1.6091    0.5422 H   0  0  0  0  0  0  0  0  0  0  0  0
    0.1855    0.8819    2.3755 H   0  0  0  0  0  0  0  0  0  0  0  0
    0.8978   -0.6001    3.0449 H   0  0  0  0  0  0  0  0  0  0  0  0
    2.9597    0.3195    2.5674 H   0  0  0  0  0  0  0  0  0  0  0  0
    3.9184   -0.4674   -0.0916 H   0  0  0  0  0  0  0  0  0  0  0  0
    5.4339    0.6994    2.3070 H   0  0  0  0  0  0  0  0  0  0  0  0
    6.1709   -0.0313    0.8672 H   0  0  0  0  0  0  0  0  0  0  0  0
    5.2080   -1.0200    1.9709 H   0  0  0  0  0  0  0  0  0  0  0  0
    4.2347    2.4414    0.8549 H   0  0  0  0  0  0  0  0  0  0  0  0
    3.0789    1.9339   -0.3577 H   0  0  0  0  0  0  0  0  0  0  0  0
    4.2854    1.0045   -2.8767 H   0  0  0  0  0  0  0  0  0  0  0  0
    6.7535    1.7156   -3.8220 H   0  0  0  0  0  0  0  0  0  0  0  0
    8.0385    2.7949   -1.6258 H   0  0  0  0  0  0  0  0  0  0  0  0
   -1.8193   -4.6208    1.9335 H   0  0  0  0  0  0  0  0  0  0  0  0
   -1.4319   -4.5955   -0.5088 H   0  0  0  0  0  0  0  0  0  0  0  0
   -3.1332   -4.2103   -0.7904 H   0  0  0  0  0  0  0  0  0  0  0  0
   -2.6943   -5.7422   -0.0297 H   0  0  0  0  0  0  0  0  0  0  0  0
   -3.8940   -3.7125    2.9320 H   0  0  0  0  0  0  0  0  0  0  0  0
   -4.1614   -5.2190    2.0395 H   0  0  0  0  0  0  0  0  0  0  0  0
   -4.6607   -3.6774    1.3407 H   0  0  0  0  0  0  0  0  0  0  0  0
  1  2  1  0
  2  3  2  0
  3  4  1  0
  4  5  1  0
  5  6  2  0
  6  7  1  0
  7  8  2  0
  8  9  1  0
  9 10  2  0
  9 11  1  0
 11 12  1  0
 12 13  1  0
 13 14  2  0
 13 15  1  0
 15 16  1  0
 16 17  1  0
 16 18  1  0
 18 19  1  0
 19 20  2  0
 20 21  1  0
 21 22  2  0
 22 23  1  0
 11 24  1  0
 24 25  2  0
 24 26  1  0
 26 27  1  0
 27 28  1  0
 27 29  1  0
  4 30  2  0
 30 31  1  0
 31  2  1  0
 10  5  1  0
 23 19  1  0
 26  8  1  0
  1 32  1  0
  1 33  1  0
  1 34  1  0
  6 35  1  0
  7 36  1  0
 10 37  1  0
 12 38  1  0
 12 39  1  0
 15 40  1  0
 16 41  1  0
 17 42  1  0
 17 43  1  0
 17 44  1  0
 18 45  1  0
 18 46  1  0
 20 47  1  0
 21 48  1  0
 22 49  1  0
 27 50  1  0
 28 51  1  0
 28 52  1  0
 28 53  1  0
 29 54  1  0
 29 55  1  0
 29 56  1  0
M  END
$$$$
