
     RDKit          3D

 33 35  0  0  0  0  0  0  0  0999 V2000
    5.8510    0.6411   -1.0258 C   0  0  0  0  0  0  0  0  0  0  0  0
    4.9713    0.7477    0.2045 C   0  0  0  0  0  0  0  0  0  0  0  0
    3.7046    0.0753    0.0090 N   0  0  0  0  0  0  0  0  0  0  0  0
    2.6342    0.2987    0.8695 C   0  0  0  0  0  0  0  0  0  0  0  0
    2.6926    1.1644    1.7415 O   0  0  0  0  0  0  0  0  0  0  0  0
    1.4844   -0.5647    0.6545 C   0  0  0  0  0  0  0  0  0  0  0  0
    0.3542   -0.5840    1.3307 N   0  0  0  0  0  0  0  0  0  0  0  0
   -0.3518   -1.5788    0.6991 C   0  0  0  0  0  0  0  0  0  0  0  0
   -1.7357   -1.9723    1.0921 C   0  0  0  0  0  0  0  0  0  0  0  0
   -2.6125   -0.8291    1.1013 N   0  0  0  0  0  0  0  0  0  0  0  0
   -3.0453   -0.1743    2.2340 C   0  0  0  0  0  0  0  0  0  0  0  0
   -2.8260   -0.5109    3.3892 O   0  0  0  0  0  0  0  0  0  0  0  0
   -3.8184    0.9474    1.8988 O   0  0  0  0  0  0  0  0  0  0  0  0
   -3.7965    0.9259    0.5138 C   0  0  0  0  0  0  0  0  0  0  0  0
   -4.4093    1.8469   -0.3089 C   0  0  0  0  0  0  0  0  0  0  0  0
   -4.2693    1.6671   -1.6890 C   0  0  0  0  0  0  0  0  0  0  0  0
   -3.5273    0.5826   -2.1974 C   0  0  0  0  0  0  0  0  0  0  0  0
   -3.3733    0.3925   -3.9020 Cl  0  0  0  0  0  0  0  0  0  0  0  0
   -2.9140   -0.3410   -1.3472 C   0  0  0  0  0  0  0  0  0  0  0  0
   -3.0727   -0.1356    0.0064 C   0  0  0  0  0  0  0  0  0  0  0  0
    0.2938   -2.1618   -0.3222 N   0  0  0  0  0  0  0  0  0  0  0  0
    1.5171   -1.4903   -0.3532 O   0  0  0  0  0  0  0  0  0  0  0  0
    6.8046    1.1514   -0.8599 H   0  0  0  0  0  0  0  0  0  0  0  0
    5.3637    1.0950   -1.8951 H   0  0  0  0  0  0  0  0  0  0  0  0
    6.0596   -0.4059   -1.2695 H   0  0  0  0  0  0  0  0  0  0  0  0
    4.7865    1.7994    0.4481 H   0  0  0  0  0  0  0  0  0  0  0  0
    5.4626    0.2837    1.0663 H   0  0  0  0  0  0  0  0  0  0  0  0
    3.6790   -0.7545   -0.5718 H   0  0  0  0  0  0  0  0  0  0  0  0
   -1.7070   -2.4190    2.0921 H   0  0  0  0  0  0  0  0  0  0  0  0
   -2.1477   -2.7216    0.4065 H   0  0  0  0  0  0  0  0  0  0  0  0
   -4.9732    2.6788    0.0985 H   0  0  0  0  0  0  0  0  0  0  0  0
   -4.7367    2.3742   -2.3711 H   0  0  0  0  0  0  0  0  0  0  0  0
   -2.3425   -1.1720   -1.7426 H   0  0  0  0  0  0  0  0  0  0  0  0
  1  2  1  0
  2  3  1  0
  3  4  1  0
  4  5  2  0
  4  6  1  0
  6  7  2  0
  7  8  1  0
  8  9  1  0
  9 10  1  0
 10 11  1  0
 11 12  2  0
 11 13  1  0
 13 14  1  0
 14 15  2  0
 15 16  1  0
 16 17  2  0
 17 18  1  0
 17 19  1  0
 19 20  2  0
  8 21  2  0
 21 22  1  0
 22  6  1  0
 20 10  1  0
 20 14  1  0
  1 23  1  0
  1 24  1  0
  1 25  1  0
  2 26  1  0
  2 27  1  0
  3 28  1  0
  9 29  1  0
  9 30  1  0
 15 31  1  0
 16 32  1  0
 19 33  1  0
M  END
$$$$
