
     RDKit          3D

 35 35  0  0  0  0  0  0  0  0999 V2000
    0.6879    0.0000    0.0000 Cl  0  0  0  0  0  0  0  0  0  0  0  0
    0.6864    0.0000    0.0000 Cl  0  0  0  0  0  0  0  0  0  0  0  0
    4.8630    0.7339    0.2881 C   0  0  0  0  0  0  0  0  0  0  0  0
    4.2345    1.8813   -0.1529 C   0  0  0  0  0  0  0  0  0  0  0  0
    2.8634    1.8633   -0.2986 C   0  0  0  0  0  0  0  0  0  0  0  0
    2.0875    0.7647   -0.0287 C   0  0  0  0  0  0  0  0  0  0  0  0
    0.7377    0.7758   -0.1815 N   0  0  0  0  0  0  0  0  0  0  0  0
   -0.0152   -0.3032    0.0847 C   0  0  0  0  0  0  0  0  0  0  0  0
   -1.4282   -0.2613   -0.0852 N   0  0  0  0  0  0  0  0  0  0  0  0
   -2.2697   -1.4087    0.1935 C   0  0  0  0  0  0  0  0  0  0  0  0
   -3.5919   -1.1980   -0.5158 C   0  0  0  0  0  0  0  0  0  0  0  0
   -4.2659   -0.0461    0.0590 N   0  0  0  0  0  0  0  0  0  0  0  0
   -3.3843    1.0644    0.2623 C   0  0  0  0  0  0  0  0  0  0  0  0
   -2.1116    0.9393   -0.5497 C   0  0  0  0  0  0  0  0  0  0  0  0
    0.6152   -1.4300    0.5192 C   0  0  0  0  0  0  0  0  0  0  0  0
    1.9936   -1.5007    0.6944 C   0  0  0  0  0  0  0  0  0  0  0  0
    2.7521   -0.3844    0.4169 C   0  0  0  0  0  0  0  0  0  0  0  0
    4.1200   -0.3898    0.5698 C   0  0  0  0  0  0  0  0  0  0  0  0
   -0.6879    0.0000    0.0000 H   0  0  0  0  0  0  0  0  0  0  0  0
   -0.6864    0.0000    0.0000 H   0  0  0  0  0  0  0  0  0  0  0  0
    5.9569    0.7435    0.4060 H   0  0  0  0  0  0  0  0  0  0  0  0
    4.8482    2.7478   -0.3656 H   0  0  0  0  0  0  0  0  0  0  0  0
    2.3676    2.7815   -0.6507 H   0  0  0  0  0  0  0  0  0  0  0  0
   -1.7851   -2.3309   -0.1533 H   0  0  0  0  0  0  0  0  0  0  0  0
   -2.4791   -1.4151    1.2811 H   0  0  0  0  0  0  0  0  0  0  0  0
   -3.4342   -1.0722   -1.6158 H   0  0  0  0  0  0  0  0  0  0  0  0
   -4.2143   -2.1135   -0.3085 H   0  0  0  0  0  0  0  0  0  0  0  0
   -4.7566   -0.3584    0.9307 H   0  0  0  0  0  0  0  0  0  0  0  0
   -3.8360    2.0438   -0.0156 H   0  0  0  0  0  0  0  0  0  0  0  0
   -3.1664    1.1322    1.3547 H   0  0  0  0  0  0  0  0  0  0  0  0
   -1.5004    1.8462   -0.3675 H   0  0  0  0  0  0  0  0  0  0  0  0
   -2.4064    0.8690   -1.6115 H   0  0  0  0  0  0  0  0  0  0  0  0
    0.0620   -2.3184    0.7457 H   0  0  0  0  0  0  0  0  0  0  0  0
    2.5055   -2.3860    1.0377 H   0  0  0  0  0  0  0  0  0  0  0  0
    4.6379   -1.2701    0.9121 H   0  0  0  0  0  0  0  0  0  0  0  0
  3  4  2  0
  4  5  1  0
  5  6  2  0
  6  7  1  0
  7  8  2  0
  8  9  1  0
  9 10  1  0
 10 11  1  0
 11 12  1  0
 12 13  1  0
 13 14  1  0
  8 15  1  0
 15 16  2  0
 16 17  1  0
 17 18  2  0
 18  3  1  0
 17  6  1  0
 14  9  1  0
  1 19  1  0
  2 20  1  0
  3 21  1  0
  4 22  1  0
  5 23  1  0
 10 24  1  0
 10 25  1  0
 11 26  1  0
 11 27  1  0
 12 28  1  0
 13 29  1  0
 13 30  1  0
 14 31  1  0
 14 32  1  0
 15 33  1  0
 16 34  1  0
 18 35  1  0
M  END
$$$$
