
     RDKit          3D

 49 53  0  0  0  0  0  0  0  0999 V2000
   -0.3295    2.0680   -1.6854 C   0  0  0  0  0  0  0  0  0  0  0  0
   -0.3531    0.5481   -1.8037 C   0  0  0  0  0  0  0  0  0  0  0  0
   -0.4751   -0.2153   -0.4685 C   0  0  2  0  0  0  0  0  0  0  0  0
   -1.6609    0.1745    0.2976 N   0  0  0  0  0  0  0  0  0  0  0  0
   -2.9234   -0.0935   -0.2040 C   0  0  0  0  0  0  0  0  0  0  0  0
   -3.1274   -1.1347   -1.0553 N   0  0  0  0  0  0  0  0  0  0  0  0
   -4.3790   -1.3714   -1.5078 C   0  0  0  0  0  0  0  0  0  0  0  0
   -5.5120   -0.6942   -1.2328 N   0  0  0  0  0  0  0  0  0  0  0  0
   -5.2582    0.3197   -0.3945 C   0  0  0  0  0  0  0  0  0  0  0  0
   -6.1570    1.2181    0.1018 N   0  0  0  0  0  0  0  0  0  0  0  0
   -5.4722    2.0837    0.9110 C   0  0  0  0  0  0  0  0  0  0  0  0
   -4.1887    1.7954    0.9646 N   0  0  0  0  0  0  0  0  0  0  0  0
   -4.0414    0.6849    0.1538 C   0  0  0  0  0  0  0  0  0  0  0  0
    0.7919    0.0480    0.4064 C   0  0  0  0  0  0  0  0  0  0  0  0
    0.7166    1.0373    1.2513 N   0  0  0  0  0  0  0  0  0  0  0  0
    1.8474    1.4104    1.9744 C   0  0  0  0  0  0  0  0  0  0  0  0
    1.7186    2.4344    2.9202 C   0  0  0  0  0  0  0  0  0  0  0  0
    2.8226    2.8744    3.6518 C   0  0  0  0  0  0  0  0  0  0  0  0
    4.0664    2.2892    3.4346 C   0  0  0  0  0  0  0  0  0  0  0  0
    4.1966    1.2697    2.4930 C   0  0  0  0  0  0  0  0  0  0  0  0
    5.4126    0.7330    2.3224 F   0  0  0  0  0  0  0  0  0  0  0  0
    3.0915    0.8290    1.7630 C   0  0  0  0  0  0  0  0  0  0  0  0
    3.1769   -0.2618    0.7782 C   0  0  0  0  0  0  0  0  0  0  0  0
    4.2733   -0.7690    0.5517 O   0  0  0  0  0  0  0  0  0  0  0  0
    1.9671   -0.6630    0.1831 N   0  0  0  0  0  0  0  0  0  0  0  0
    2.0003   -1.8441   -0.6234 C   0  0  0  0  0  0  0  0  0  0  0  0
    2.9077   -1.9604   -1.6850 C   0  0  0  0  0  0  0  0  0  0  0  0
    2.9467   -3.1206   -2.4618 C   0  0  0  0  0  0  0  0  0  0  0  0
    2.0913   -4.1822   -2.1750 C   0  0  0  0  0  0  0  0  0  0  0  0
    1.2049   -4.0906   -1.1043 C   0  0  0  0  0  0  0  0  0  0  0  0
    1.1652   -2.9312   -0.3264 C   0  0  0  0  0  0  0  0  0  0  0  0
   -1.2289    2.4502   -1.1938 H   0  0  0  0  0  0  0  0  0  0  0  0
    0.5464    2.4149   -1.1301 H   0  0  0  0  0  0  0  0  0  0  0  0
   -0.2823    2.5160   -2.6835 H   0  0  0  0  0  0  0  0  0  0  0  0
    0.5610    0.2329   -2.3210 H   0  0  0  0  0  0  0  0  0  0  0  0
   -1.1856    0.2719   -2.4616 H   0  0  0  0  0  0  0  0  0  0  0  0
   -0.5617   -1.2749   -0.6985 H   0  0  0  0  0  0  0  0  0  0  0  0
   -1.5889    1.0730    0.7737 H   0  0  0  0  0  0  0  0  0  0  0  0
   -4.4833   -2.2174   -2.1812 H   0  0  0  0  0  0  0  0  0  0  0  0
   -7.1446    1.2280   -0.1028 H   0  0  0  0  0  0  0  0  0  0  0  0
   -5.9600    2.8985    1.4300 H   0  0  0  0  0  0  0  0  0  0  0  0
    0.7447    2.8922    3.0817 H   0  0  0  0  0  0  0  0  0  0  0  0
    2.7101    3.6700    4.3841 H   0  0  0  0  0  0  0  0  0  0  0  0
    4.9392    2.6160    3.9925 H   0  0  0  0  0  0  0  0  0  0  0  0
    3.5916   -1.1479   -1.9206 H   0  0  0  0  0  0  0  0  0  0  0  0
    3.6533   -3.1972   -3.2845 H   0  0  0  0  0  0  0  0  0  0  0  0
    2.1271   -5.0870   -2.7766 H   0  0  0  0  0  0  0  0  0  0  0  0
    0.5514   -4.9263   -0.8663 H   0  0  0  0  0  0  0  0  0  0  0  0
    0.4909   -2.8989    0.5274 H   0  0  0  0  0  0  0  0  0  0  0  0
  1  2  1  0
  2  3  1  0
  3  4  1  0
  4  5  1  0
  5  6  2  0
  6  7  1  0
  7  8  2  0
  8  9  1  0
  9 10  1  0
 10 11  1  0
 11 12  2  0
 12 13  1  0
  3 14  1  0
 14 15  2  0
 15 16  1  0
 16 17  2  0
 17 18  1  0
 18 19  2  0
 19 20  1  0
 20 21  1  0
 20 22  2  0
 22 23  1  0
 23 24  2  0
 23 25  1  0
 25 26  1  0
 26 27  2  0
 27 28  1  0
 28 29  2  0
 29 30  1  0
 30 31  2  0
 13  5  1  0
 25 14  1  0
 31 26  1  0
 13  9  2  0
 22 16  1  0
  1 32  1  0
  1 33  1  0
  1 34  1  0
  2 35  1  0
  2 36  1  0
  3 37  1  6
  4 38  1  0
  7 39  1  0
 10 40  1  0
 11 41  1  0
 17 42  1  0
 18 43  1  0
 19 44  1  0
 27 45  1  0
 28 46  1  0
 29 47  1  0
 30 48  1  0
 31 49  1  0
M  END
$$$$
