
     RDKit          3D

 57 61  0  0  0  0  0  0  0  0999 V2000
   -1.0489    0.7474    1.7375 N   0  0  0  0  0  0  0  0  0  0  0  0
   -1.7006    0.7148    0.7776 C   0  0  0  0  0  0  0  0  0  0  0  0
   -2.5019    0.6641   -0.4051 C   0  0  0  0  0  0  0  0  0  0  0  0
   -2.0526    1.1159   -1.6567 C   0  0  0  0  0  0  0  0  0  0  0  0
   -0.7978    1.6540   -1.8516 O   0  0  0  0  0  0  0  0  0  0  0  0
    0.2813    0.8156   -1.6594 C   0  0  0  0  0  0  0  0  0  0  0  0
    0.2989   -0.5197   -2.0763 C   0  0  0  0  0  0  0  0  0  0  0  0
    1.4207   -1.3047   -1.8186 C   0  0  0  0  0  0  0  0  0  0  0  0
    2.5125   -0.7430   -1.1632 C   0  0  0  0  0  0  0  0  0  0  0  0
    3.5825   -1.5144   -0.9100 F   0  0  0  0  0  0  0  0  0  0  0  0
    2.5264    0.6039   -0.7765 C   0  0  0  0  0  0  0  0  0  0  0  0
    3.6802    1.0699   -0.1113 N   0  0  0  0  0  0  0  0  0  0  0  0
    4.0063    2.3760    0.1957 C   0  0  0  0  0  0  0  0  0  0  0  0
    3.3687    3.3691   -0.1459 O   0  0  0  0  0  0  0  0  0  0  0  0
    5.2375    2.5220    1.0816 C   0  0  0  0  0  0  0  0  0  0  0  0
    6.4020    1.6303    0.7136 C   0  0  0  0  0  0  0  0  0  0  0  0
    7.1387    1.8766   -0.4515 C   0  0  0  0  0  0  0  0  0  0  0  0
    8.1942    1.0394   -0.8101 C   0  0  0  0  0  0  0  0  0  0  0  0
    8.5249   -0.0524   -0.0070 C   0  0  0  0  0  0  0  0  0  0  0  0
    7.8064   -0.3164    1.1688 C   0  0  0  0  0  0  0  0  0  0  0  0
    8.1685   -1.5082    2.0220 C   0  0  0  0  0  0  0  0  0  0  0  0
    7.4948   -1.5539    3.2062 F   0  0  0  0  0  0  0  0  0  0  0  0
    9.4915   -1.5430    2.3445 F   0  0  0  0  0  0  0  0  0  0  0  0
    7.9032   -2.6891    1.3985 F   0  0  0  0  0  0  0  0  0  0  0  0
    6.7436    0.5322    1.5191 C   0  0  0  0  0  0  0  0  0  0  0  0
    1.4006    1.3847   -1.0377 C   0  0  0  0  0  0  0  0  0  0  0  0
   -2.8965    1.1112   -2.7642 C   0  0  0  0  0  0  0  0  0  0  0  0
   -4.1942    0.6053   -2.6577 C   0  0  0  0  0  0  0  0  0  0  0  0
   -4.6593    0.1104   -1.4224 C   0  0  0  0  0  0  0  0  0  0  0  0
   -5.9169   -0.4216   -1.1962 N   0  0  0  0  0  0  0  0  0  0  0  0
   -6.0302   -0.7801    0.0592 C   0  0  0  0  0  0  0  0  0  0  0  0
   -7.1926   -1.3386    0.5231 N   0  0  0  0  0  0  0  0  0  0  0  0
   -7.4606   -1.7577    1.8022 C   0  0  0  0  0  0  0  0  0  0  0  0
   -6.7132   -1.7120    2.7683 O   0  0  0  0  0  0  0  0  0  0  0  0
   -8.8276   -2.3315    2.0175 C   0  0  0  0  0  0  0  0  0  0  0  0
  -10.0579   -1.7821    1.3344 C   0  0  0  0  0  0  0  0  0  0  0  0
   -9.5491   -3.1483    0.9716 C   0  0  0  0  0  0  0  0  0  0  0  0
   -4.6710   -0.5077    1.0362 S   0  0  0  0  0  0  0  0  0  0  0  0
   -3.8105    0.1493   -0.3103 C   0  0  0  0  0  0  0  0  0  0  0  0
   -0.5464   -0.9583   -2.5982 H   0  0  0  0  0  0  0  0  0  0  0  0
    1.4530   -2.3470   -2.1209 H   0  0  0  0  0  0  0  0  0  0  0  0
    4.3799    0.3558    0.0686 H   0  0  0  0  0  0  0  0  0  0  0  0
    5.5737    3.5653    1.0355 H   0  0  0  0  0  0  0  0  0  0  0  0
    4.9230    2.3409    2.1161 H   0  0  0  0  0  0  0  0  0  0  0  0
    6.8918    2.7239   -1.0913 H   0  0  0  0  0  0  0  0  0  0  0  0
    8.7584    1.2369   -1.7184 H   0  0  0  0  0  0  0  0  0  0  0  0
    9.3495   -0.7006   -0.3007 H   0  0  0  0  0  0  0  0  0  0  0  0
    6.1754    0.3303    2.4285 H   0  0  0  0  0  0  0  0  0  0  0  0
    1.3498    2.4263   -0.7333 H   0  0  0  0  0  0  0  0  0  0  0  0
   -2.5453    1.4967   -3.7183 H   0  0  0  0  0  0  0  0  0  0  0  0
   -4.8537    0.5932   -3.5218 H   0  0  0  0  0  0  0  0  0  0  0  0
   -7.9014   -1.4259   -0.1876 H   0  0  0  0  0  0  0  0  0  0  0  0
   -8.9701   -2.6600    3.0459 H   0  0  0  0  0  0  0  0  0  0  0  0
  -10.9688   -1.7178    1.9218 H   0  0  0  0  0  0  0  0  0  0  0  0
   -9.9564   -0.9780    0.6154 H   0  0  0  0  0  0  0  0  0  0  0  0
  -10.1169   -4.0077    1.3141 H   0  0  0  0  0  0  0  0  0  0  0  0
   -9.0978   -3.2960   -0.0014 H   0  0  0  0  0  0  0  0  0  0  0  0
  1  2  3  0
  2  3  1  0
  3  4  2  0
  4  5  1  0
  5  6  1  0
  6  7  2  0
  7  8  1  0
  8  9  2  0
  9 10  1  0
  9 11  1  0
 11 12  1  0
 12 13  1  0
 13 14  2  0
 13 15  1  0
 15 16  1  0
 16 17  2  0
 17 18  1  0
 18 19  2  0
 19 20  1  0
 20 21  1  0
 21 22  1  0
 21 23  1  0
 21 24  1  0
 20 25  2  0
 11 26  2  0
  4 27  1  0
 27 28  2  0
 28 29  1  0
 29 30  1  0
 30 31  2  0
 31 32  1  0
 32 33  1  0
 33 34  2  0
 33 35  1  0
 35 36  1  0
 36 37  1  0
 31 38  1  0
 38 39  1  0
 39  3  1  0
 26  6  1  0
 39 29  2  0
 25 16  1  0
 37 35  1  0
  7 40  1  0
  8 41  1  0
 12 42  1  0
 15 43  1  0
 15 44  1  0
 17 45  1  0
 18 46  1  0
 19 47  1  0
 25 48  1  0
 26 49  1  0
 27 50  1  0
 28 51  1  0
 32 52  1  0
 35 53  1  0
 36 54  1  0
 36 55  1  0
 37 56  1  0
 37 57  1  0
M  END
$$$$
