
     RDKit          3D

 45 44  0  0  0  0  0  0  0  0999 V2000
   -6.7901   -0.0189   -0.2659 C   0  0  0  0  0  0  0  0  0  0  0  0
   -5.6561    0.2659   -1.1172 N   0  0  0  0  0  0  0  0  0  0  0  0
   -4.3416    0.4472   -0.6358 C   0  0  0  0  0  0  0  0  0  0  0  0
   -3.9888    1.5671   -0.0859 C   0  0  0  0  0  0  0  0  0  0  0  0
   -4.7393    2.7254    0.1296 N   0  0  0  0  0  4  0  0  0  0  0  0
   -5.9698    2.7239    0.2555 O   0  0  0  0  0  0  0  0  0  0  0  0
   -4.1060    3.9576    0.2105 O   0  0  0  0  0  1  0  0  0  0  0  0
   -3.3869   -0.6134   -0.7878 N   0  0  0  0  0  0  0  0  0  0  0  0
   -2.4950   -1.0253    0.2623 C   0  0  0  0  0  0  0  0  0  0  0  0
   -1.4603   -1.9803   -0.3639 C   0  0  0  0  0  0  0  0  0  0  0  0
   -0.6030   -1.0583   -1.6890 S   0  0  0  0  0  0  0  0  0  0  0  0
    0.2388    0.3164   -0.8810 C   0  0  0  0  0  0  0  0  0  0  0  0
    1.3498   -0.1528   -0.0042 C   0  0  0  0  0  0  0  0  0  0  0  0
    1.2532   -0.5304    1.3179 C   0  0  0  0  0  0  0  0  0  0  0  0
    2.5608   -0.8831    1.6748 C   0  0  0  0  0  0  0  0  0  0  0  0
    3.3628   -0.7112    0.6038 C   0  0  0  0  0  0  0  0  0  0  0  0
    4.8531   -0.9679    0.5311 C   0  0  0  0  0  0  0  0  0  0  0  0
    5.4503    0.0149   -0.3608 N   0  0  0  0  0  0  0  0  0  0  0  0
    5.2447    1.3552    0.0852 C   0  0  0  0  0  0  0  0  0  0  0  0
    6.8655   -0.2560   -0.4296 C   0  0  0  0  0  0  0  0  0  0  0  0
    2.6167   -0.2747   -0.3878 O   0  0  0  0  0  0  0  0  0  0  0  0
    0.6839    0.0000    0.0000 Cl  0  0  0  0  0  0  0  0  0  0  0  0
   -7.6410    0.6831   -0.4892 H   0  0  0  0  0  0  0  0  0  0  0  0
   -7.1908   -1.0550   -0.4279 H   0  0  0  0  0  0  0  0  0  0  0  0
   -6.5149    0.1023    0.8059 H   0  0  0  0  0  0  0  0  0  0  0  0
   -5.8174    0.3390   -2.1431 H   0  0  0  0  0  0  0  0  0  0  0  0
   -2.9437    1.6157    0.2704 H   0  0  0  0  0  0  0  0  0  0  0  0
   -3.3241   -1.1326   -1.7075 H   0  0  0  0  0  0  0  0  0  0  0  0
   -3.0733   -1.6998    0.9617 H   0  0  0  0  0  0  0  0  0  0  0  0
   -2.0010   -0.2299    0.8124 H   0  0  0  0  0  0  0  0  0  0  0  0
   -0.7145   -2.3102    0.3757 H   0  0  0  0  0  0  0  0  0  0  0  0
   -1.9357   -2.8555   -0.8066 H   0  0  0  0  0  0  0  0  0  0  0  0
   -0.5125    0.9201   -0.3319 H   0  0  0  0  0  0  0  0  0  0  0  0
    0.6565    0.9646   -1.6566 H   0  0  0  0  0  0  0  0  0  0  0  0
    0.3755   -0.5499    1.9467 H   0  0  0  0  0  0  0  0  0  0  0  0
    2.8173   -1.2293    2.6729 H   0  0  0  0  0  0  0  0  0  0  0  0
    5.0261   -1.9508    0.0703 H   0  0  0  0  0  0  0  0  0  0  0  0
    5.3210   -0.9057    1.5309 H   0  0  0  0  0  0  0  0  0  0  0  0
    4.7587    1.9312   -0.7563 H   0  0  0  0  0  0  0  0  0  0  0  0
    6.1663    1.9153    0.3481 H   0  0  0  0  0  0  0  0  0  0  0  0
    4.5542    1.4240    0.9513 H   0  0  0  0  0  0  0  0  0  0  0  0
    7.0858   -1.3278   -0.6001 H   0  0  0  0  0  0  0  0  0  0  0  0
    7.3792    0.0796    0.4844 H   0  0  0  0  0  0  0  0  0  0  0  0
    7.2699    0.3702   -1.2635 H   0  0  0  0  0  0  0  0  0  0  0  0
   -0.6839    0.0000    0.0000 H   0  0  0  0  0  0  0  0  0  0  0  0
  1  2  1  0
  2  3  1  0
  3  4  2  3
  4  5  1  0
  5  6  2  0
  5  7  1  0
  3  8  1  0
  8  9  1  0
  9 10  1  0
 10 11  1  0
 11 12  1  0
 12 13  1  0
 13 14  2  0
 14 15  1  0
 15 16  2  0
 16 17  1  0
 17 18  1  0
 18 19  1  0
 18 20  1  0
 16 21  1  0
 21 13  1  0
  1 23  1  0
  1 24  1  0
  1 25  1  0
  2 26  1  0
  4 27  1  0
  8 28  1  0
  9 29  1  0
  9 30  1  0
 10 31  1  0
 10 32  1  0
 12 33  1  0
 12 34  1  0
 14 35  1  0
 15 36  1  0
 17 37  1  0
 17 38  1  0
 19 39  1  0
 19 40  1  0
 19 41  1  0
 20 42  1  0
 20 43  1  0
 20 44  1  0
 22 45  1  0
M  CHG  2   5   1   7  -1
M  END
$$$$
