
     RDKit          3D

 58 57  0  0  0  0  0  0  0  0999 V2000
    7.7271    2.3099    2.1036 C   0  0  0  0  0  0  0  0  0  0  0  0
    6.6581    1.9697    1.0761 C   0  0  0  0  0  0  0  0  0  0  0  0
    6.8178    0.5405    0.5578 C   0  0  0  0  0  0  0  0  0  0  0  0
    5.8446    0.1877   -0.5711 C   0  0  0  0  0  0  0  0  0  0  0  0
    4.3538    0.3132   -0.2383 C   0  0  0  0  0  0  0  0  0  0  0  0
    3.9075   -0.5954    0.9091 C   0  0  0  0  0  0  0  0  0  0  0  0
    2.4184   -0.4647    1.2479 C   0  0  0  0  0  0  0  0  0  0  0  0
    1.4350   -0.7812    0.1154 C   0  0  0  0  0  0  0  0  0  0  0  0
    1.5443   -2.2144   -0.4047 C   0  0  0  0  0  0  0  0  0  0  0  0
    0.6067   -2.5311   -1.5768 C   0  0  0  0  0  0  0  0  0  0  0  0
   -0.8878   -2.4256   -1.2496 C   0  0  0  0  0  0  0  0  0  0  0  0
   -1.5008   -1.0977   -1.7064 C   0  0  0  0  0  0  0  0  0  0  0  0
   -3.0072   -1.0010   -1.4438 C   0  0  0  0  0  0  0  0  0  0  0  0
   -3.3591   -0.9444    0.0468 C   0  0  0  0  0  0  0  0  0  0  0  0
   -4.8545   -0.7257    0.2794 C   0  0  0  0  0  0  0  0  0  0  0  0
   -5.3102    0.6980    0.0068 C   0  0  0  0  0  0  0  0  0  0  0  0
   -4.5442    1.6279   -0.2135 O   0  0  0  0  0  0  0  0  0  0  0  0
   -6.6836    0.8374    0.0694 N   0  0  0  0  0  0  0  0  0  0  0  0
   -7.3184    2.0902   -0.3012 C   0  0  0  0  0  0  0  0  0  0  0  0
   -8.6795    2.2674    0.3664 C   0  0  0  0  0  0  0  0  0  0  0  0
   -9.3187    3.4367   -0.1282 O   0  0  0  0  0  0  0  0  0  0  0  0
    7.5987    3.3376    2.4584 H   0  0  0  0  0  0  0  0  0  0  0  0
    7.6661    1.6414    2.9686 H   0  0  0  0  0  0  0  0  0  0  0  0
    8.7293    2.2232    1.6713 H   0  0  0  0  0  0  0  0  0  0  0  0
    6.7228    2.6782    0.2427 H   0  0  0  0  0  0  0  0  0  0  0  0
    5.6745    2.0984    1.5399 H   0  0  0  0  0  0  0  0  0  0  0  0
    7.8384    0.4098    0.1761 H   0  0  0  0  0  0  0  0  0  0  0  0
    6.7092   -0.1700    1.3851 H   0  0  0  0  0  0  0  0  0  0  0  0
    6.0496   -0.8401   -0.8960 H   0  0  0  0  0  0  0  0  0  0  0  0
    6.0594    0.8305   -1.4341 H   0  0  0  0  0  0  0  0  0  0  0  0
    4.1057    1.3552   -0.0072 H   0  0  0  0  0  0  0  0  0  0  0  0
    3.7956    0.0570   -1.1461 H   0  0  0  0  0  0  0  0  0  0  0  0
    4.4701   -0.3441    1.8156 H   0  0  0  0  0  0  0  0  0  0  0  0
    4.1517   -1.6377    0.6757 H   0  0  0  0  0  0  0  0  0  0  0  0
    2.1996   -1.1218    2.0990 H   0  0  0  0  0  0  0  0  0  0  0  0
    2.2258    0.5587    1.5938 H   0  0  0  0  0  0  0  0  0  0  0  0
    1.5665   -0.0712   -0.7084 H   0  0  0  0  0  0  0  0  0  0  0  0
    0.4260   -0.6174    0.5109 H   0  0  0  0  0  0  0  0  0  0  0  0
    1.3502   -2.9163    0.4154 H   0  0  0  0  0  0  0  0  0  0  0  0
    2.5674   -2.4068   -0.7465 H   0  0  0  0  0  0  0  0  0  0  0  0
    0.8123   -3.5666   -1.8782 H   0  0  0  0  0  0  0  0  0  0  0  0
    0.8631   -1.9054   -2.4400 H   0  0  0  0  0  0  0  0  0  0  0  0
   -1.0506   -2.5913   -0.1797 H   0  0  0  0  0  0  0  0  0  0  0  0
   -1.4110   -3.2351   -1.7746 H   0  0  0  0  0  0  0  0  0  0  0  0
   -1.3384   -0.9889   -2.7861 H   0  0  0  0  0  0  0  0  0  0  0  0
   -0.9964   -0.2512   -1.2307 H   0  0  0  0  0  0  0  0  0  0  0  0
   -3.3784   -0.0985   -1.9435 H   0  0  0  0  0  0  0  0  0  0  0  0
   -3.5183   -1.8508   -1.9125 H   0  0  0  0  0  0  0  0  0  0  0  0
   -3.0798   -1.8921    0.5205 H   0  0  0  0  0  0  0  0  0  0  0  0
   -2.7780   -0.1558    0.5392 H   0  0  0  0  0  0  0  0  0  0  0  0
   -5.0826   -0.9378    1.3310 H   0  0  0  0  0  0  0  0  0  0  0  0
   -5.4380   -1.4184   -0.3376 H   0  0  0  0  0  0  0  0  0  0  0  0
   -7.2346   -0.0072   -0.0126 H   0  0  0  0  0  0  0  0  0  0  0  0
   -7.4246    2.0971   -1.3925 H   0  0  0  0  0  0  0  0  0  0  0  0
   -6.6660    2.9339   -0.0472 H   0  0  0  0  0  0  0  0  0  0  0  0
   -8.5631    2.3588    1.4514 H   0  0  0  0  0  0  0  0  0  0  0  0
   -9.3265    1.4082    0.1611 H   0  0  0  0  0  0  0  0  0  0  0  0
  -10.1451    3.5467    0.3729 H   0  0  0  0  0  0  0  0  0  0  0  0
  1  2  1  0
  2  3  1  0
  3  4  1  0
  4  5  1  0
  5  6  1  0
  6  7  1  0
  7  8  1  0
  8  9  1  0
  9 10  1  0
 10 11  1  0
 11 12  1  0
 12 13  1  0
 13 14  1  0
 14 15  1  0
 15 16  1  0
 16 17  2  0
 16 18  1  0
 18 19  1  0
 19 20  1  0
 20 21  1  0
  1 22  1  0
  1 23  1  0
  1 24  1  0
  2 25  1  0
  2 26  1  0
  3 27  1  0
  3 28  1  0
  4 29  1  0
  4 30  1  0
  5 31  1  0
  5 32  1  0
  6 33  1  0
  6 34  1  0
  7 35  1  0
  7 36  1  0
  8 37  1  0
  8 38  1  0
  9 39  1  0
  9 40  1  0
 10 41  1  0
 10 42  1  0
 11 43  1  0
 11 44  1  0
 12 45  1  0
 12 46  1  0
 13 47  1  0
 13 48  1  0
 14 49  1  0
 14 50  1  0
 15 51  1  0
 15 52  1  0
 18 53  1  0
 19 54  1  0
 19 55  1  0
 20 56  1  0
 20 57  1  0
 21 58  1  0
M  END
$$$$
