
     RDKit          3D

 64 68  0  0  0  0  0  0  0  0999 V2000
    3.1404   -1.5315    0.6469 C   0  0  0  0  0  0  0  0  0  0  0  0
    3.6182   -1.0214   -0.7214 C   0  0  2  0  0  0  0  0  0  0  0  0
    4.5336   -2.0824   -1.3527 C   0  0  0  0  0  0  0  0  0  0  0  0
    5.4559   -1.5347   -2.4176 C   0  0  0  0  0  0  0  0  0  0  0  0
    6.6154   -0.9661   -1.7859 N   0  0  0  0  0  0  0  0  0  0  0  0
    6.6481    0.1194   -0.9573 C   0  0  0  0  0  0  0  0  0  0  0  0
    7.7455    0.4917   -0.5437 O   0  0  0  0  0  0  0  0  0  0  0  0
    5.4143    0.8169   -0.6609 C   0  0  0  0  0  0  0  0  0  0  0  0
    5.3641    2.1702   -0.3485 C   0  0  0  0  0  0  0  0  0  0  0  0
    4.0182    2.5719   -0.2217 C   0  0  0  0  0  0  0  0  0  0  0  0
    3.3962    3.8126    0.0216 C   0  0  0  0  0  0  0  0  0  0  0  0
    2.0010    3.8864    0.0732 C   0  0  0  0  0  0  0  0  0  0  0  0
    1.2279    2.7395   -0.1058 C   0  0  0  0  0  0  0  0  0  0  0  0
   -0.2553    2.8626   -0.0236 C   0  0  0  0  0  0  0  0  0  0  0  0
   -0.7747    3.8586   -0.5097 O   0  0  0  0  0  0  0  0  0  0  0  0
   -0.8617    1.8154    0.6437 N   0  0  0  0  0  0  0  0  0  0  0  0
   -2.2303    1.7030    0.7560 C   0  0  0  0  0  0  0  0  0  0  0  0
   -3.1336    2.5016    0.2375 N   0  0  0  0  0  0  0  0  0  0  0  0
   -4.3498    2.0064    0.6172 C   0  0  0  0  0  0  0  0  0  0  0  0
   -5.6337    2.4949    0.3353 C   0  0  0  0  0  0  0  0  0  0  0  0
   -6.7432    1.8088    0.8412 C   0  0  0  0  0  0  0  0  0  0  0  0
   -6.5756    0.6577    1.6120 C   0  0  0  0  0  0  0  0  0  0  0  0
   -5.3011    0.1572    1.9040 C   0  0  0  0  0  0  0  0  0  0  0  0
   -4.2028    0.8589    1.3886 C   0  0  0  0  0  0  0  0  0  0  0  0
   -2.8384    0.6700    1.4503 N   0  0  0  0  0  0  0  0  0  0  0  0
   -2.1636   -0.3748    2.1999 C   0  0  0  0  0  0  0  0  0  0  0  0
   -1.4696   -1.4497    1.3521 C   0  0  0  0  0  0  0  0  0  0  0  0
   -2.3848   -2.6080    0.9248 C   0  0  0  0  0  0  0  0  0  0  0  0
   -3.5327   -2.2044    0.1117 N   0  0  0  0  0  0  0  0  0  0  0  0
   -4.5054   -3.2951    0.0105 C   0  0  0  0  0  0  0  0  0  0  0  0
   -3.1485   -1.7629   -1.2314 C   0  0  0  0  0  0  0  0  0  0  0  0
    1.8305    1.4979   -0.3743 C   0  0  0  0  0  0  0  0  0  0  0  0
    3.2380    1.4332   -0.4166 C   0  0  0  0  0  0  0  0  0  0  0  0
    4.1088    0.3563   -0.6183 N   0  0  0  0  0  0  0  0  0  0  0  0
    2.3551   -0.8960    1.0666 H   0  0  0  0  0  0  0  0  0  0  0  0
    3.9631   -1.5414    1.3709 H   0  0  0  0  0  0  0  0  0  0  0  0
    2.7357   -2.5453    0.5657 H   0  0  0  0  0  0  0  0  0  0  0  0
    2.7461   -0.9516   -1.3844 H   0  0  0  0  0  0  0  0  0  0  0  0
    5.1216   -2.5924   -0.5782 H   0  0  0  0  0  0  0  0  0  0  0  0
    3.8932   -2.8544   -1.7985 H   0  0  0  0  0  0  0  0  0  0  0  0
    5.8125   -2.3448   -3.0604 H   0  0  0  0  0  0  0  0  0  0  0  0
    4.9731   -0.7828   -3.0490 H   0  0  0  0  0  0  0  0  0  0  0  0
    7.5348   -1.3421   -1.9857 H   0  0  0  0  0  0  0  0  0  0  0  0
    6.2346    2.8138   -0.2772 H   0  0  0  0  0  0  0  0  0  0  0  0
    3.9938    4.7105    0.1586 H   0  0  0  0  0  0  0  0  0  0  0  0
    1.5192    4.8463    0.2530 H   0  0  0  0  0  0  0  0  0  0  0  0
   -0.2807    1.1354    1.1047 H   0  0  0  0  0  0  0  0  0  0  0  0
   -5.7493    3.3912   -0.2647 H   0  0  0  0  0  0  0  0  0  0  0  0
   -7.7431    2.1761    0.6259 H   0  0  0  0  0  0  0  0  0  0  0  0
   -7.4528    0.1362    1.9890 H   0  0  0  0  0  0  0  0  0  0  0  0
   -5.1820   -0.7512    2.4847 H   0  0  0  0  0  0  0  0  0  0  0  0
   -1.4146    0.1363    2.8189 H   0  0  0  0  0  0  0  0  0  0  0  0
   -2.8733   -0.8260    2.9010 H   0  0  0  0  0  0  0  0  0  0  0  0
   -0.9719   -1.0129    0.4789 H   0  0  0  0  0  0  0  0  0  0  0  0
   -0.6710   -1.8921    1.9641 H   0  0  0  0  0  0  0  0  0  0  0  0
   -2.7419   -3.0875    1.8478 H   0  0  0  0  0  0  0  0  0  0  0  0
   -1.7858   -3.3646    0.3989 H   0  0  0  0  0  0  0  0  0  0  0  0
   -5.3869   -2.9735   -0.5565 H   0  0  0  0  0  0  0  0  0  0  0  0
   -4.0841   -4.1825   -0.4780 H   0  0  0  0  0  0  0  0  0  0  0  0
   -4.8628   -3.5827    1.0062 H   0  0  0  0  0  0  0  0  0  0  0  0
   -2.4822   -0.8958   -1.1934 H   0  0  0  0  0  0  0  0  0  0  0  0
   -2.6462   -2.5586   -1.7946 H   0  0  0  0  0  0  0  0  0  0  0  0
   -4.0306   -1.4470   -1.7999 H   0  0  0  0  0  0  0  0  0  0  0  0
    1.2250    0.6195   -0.5698 H   0  0  0  0  0  0  0  0  0  0  0  0
  1  2  1  0
  2  3  1  0
  3  4  1  0
  4  5  1  0
  5  6  1  0
  6  7  2  0
  6  8  1  0
  8  9  2  0
  9 10  1  0
 10 11  2  0
 11 12  1  0
 12 13  2  0
 13 14  1  0
 14 15  2  0
 14 16  1  0
 16 17  1  0
 17 18  2  0
 18 19  1  0
 19 20  2  0
 20 21  1  0
 21 22  2  0
 22 23  1  0
 23 24  2  0
 24 25  1  0
 25 26  1  0
 26 27  1  0
 27 28  1  0
 28 29  1  0
 29 30  1  0
 29 31  1  0
 13 32  1  0
 32 33  2  0
 33 34  1  0
 34  2  1  0
 34  8  1  0
 33 10  1  0
 25 17  1  0
 24 19  1  0
  1 35  1  0
  1 36  1  0
  1 37  1  0
  2 38  1  6
  3 39  1  0
  3 40  1  0
  4 41  1  0
  4 42  1  0
  5 43  1  0
  9 44  1  0
 11 45  1  0
 12 46  1  0
 16 47  1  0
 20 48  1  0
 21 49  1  0
 22 50  1  0
 23 51  1  0
 26 52  1  0
 26 53  1  0
 27 54  1  0
 27 55  1  0
 28 56  1  0
 28 57  1  0
 30 58  1  0
 30 59  1  0
 30 60  1  0
 31 61  1  0
 31 62  1  0
 31 63  1  0
 32 64  1  0
M  END
$$$$
