
     RDKit          3D

 55 58  0  0  0  0  0  0  0  0999 V2000
   -6.1212    1.2128   -1.6798 C   0  0  0  0  0  0  0  0  0  0  0  0
   -5.2130    0.0380   -1.2835 C   0  0  0  0  0  0  0  0  0  0  0  0
   -5.7475   -0.5974    0.0047 C   0  0  0  0  0  0  0  0  0  0  0  0
   -5.3494   -0.9250   -2.3414 O   0  0  0  0  0  0  0  0  0  0  0  0
   -3.7103    0.4700   -1.2076 C   0  0  1  0  0  0  0  0  0  0  0  0
   -3.4822    1.7369   -0.3515 C   0  0  0  0  0  0  0  0  0  0  0  0
   -2.0119    1.9085    0.0129 C   0  0  0  0  0  0  0  0  0  0  0  0
   -1.5166    0.7596    0.9085 C   0  0  2  0  0  0  0  0  0  0  0  0
   -0.0869    0.6003    0.7133 N   0  0  0  0  0  0  0  0  0  0  0  0
    0.8206   -0.0032    1.5448 C   0  0  0  0  0  0  0  0  0  0  0  0
    0.4970   -0.3607    2.9616 C   0  0  0  0  0  0  0  0  0  0  0  0
    1.4433   -0.9445    3.7056 C   0  0  0  0  0  0  0  0  0  0  0  0
    2.7121   -1.1946    3.1420 C   0  0  0  0  0  0  0  0  0  0  0  0
    3.7856   -1.7431    3.6633 N   0  0  0  0  0  0  0  0  0  0  0  0
    4.7150   -1.7045    2.6603 C   0  0  0  0  0  0  0  0  0  0  0  0
    4.2182   -1.1265    1.5027 C   0  0  0  0  0  0  0  0  0  0  0  0
    4.8698   -0.8859    0.2130 C   0  0  0  0  0  0  0  0  0  0  0  0
    5.8007   -1.8101   -0.2882 C   0  0  0  0  0  0  0  0  0  0  0  0
    6.4436   -1.5930   -1.5104 C   0  0  0  0  0  0  0  0  0  0  0  0
    6.1650   -0.4448   -2.2501 C   0  0  0  0  0  0  0  0  0  0  0  0
    5.2515    0.5044   -1.7671 C   0  0  0  0  0  0  0  0  0  0  0  0
    4.9307    1.7376   -2.5734 C   0  0  0  0  0  0  0  0  0  0  0  0
    3.9645    1.5093   -3.5062 F   0  0  0  0  0  0  0  0  0  0  0  0
    6.0056    2.2186   -3.2614 F   0  0  0  0  0  0  0  0  0  0  0  0
    4.4812    2.7791   -1.8183 F   0  0  0  0  0  0  0  0  0  0  0  0
    4.6114    0.2712   -0.5363 C   0  0  0  0  0  0  0  0  0  0  0  0
    2.9087   -0.8131    1.8256 N   0  0  0  0  0  0  0  0  0  0  0  0
    1.9882   -0.2341    0.9959 N   0  0  0  0  0  0  0  0  0  0  0  0
   -2.2529   -0.5622    0.6343 C   0  0  0  0  0  0  0  0  0  0  0  0
   -2.7398   -0.6722   -0.8096 C   0  0  0  0  0  0  0  0  0  0  0  0
   -6.1996    1.9630   -0.8854 H   0  0  0  0  0  0  0  0  0  0  0  0
   -5.7518    1.7009   -2.5881 H   0  0  0  0  0  0  0  0  0  0  0  0
   -7.1366    0.8615   -1.9108 H   0  0  0  0  0  0  0  0  0  0  0  0
   -5.2128   -1.5195    0.2539 H   0  0  0  0  0  0  0  0  0  0  0  0
   -6.7978   -0.8886   -0.1198 H   0  0  0  0  0  0  0  0  0  0  0  0
   -5.6887    0.0837    0.8589 H   0  0  0  0  0  0  0  0  0  0  0  0
   -4.9870   -1.7801   -2.0471 H   0  0  0  0  0  0  0  0  0  0  0  0
   -3.4241    0.7294   -2.2411 H   0  0  0  0  0  0  0  0  0  0  0  0
   -3.8139    2.6226   -0.9100 H   0  0  0  0  0  0  0  0  0  0  0  0
   -4.0784    1.7041    0.5689 H   0  0  0  0  0  0  0  0  0  0  0  0
   -1.8648    2.8646    0.5350 H   0  0  0  0  0  0  0  0  0  0  0  0
   -1.4196    1.9757   -0.9121 H   0  0  0  0  0  0  0  0  0  0  0  0
   -1.7095    1.0509    1.9485 H   0  0  0  0  0  0  0  0  0  0  0  0
    0.2372    0.6254   -0.2543 H   0  0  0  0  0  0  0  0  0  0  0  0
   -0.4860   -0.1493    3.3597 H   0  0  0  0  0  0  0  0  0  0  0  0
    1.2636   -1.2283    4.7357 H   0  0  0  0  0  0  0  0  0  0  0  0
    5.7132   -2.0849    2.8235 H   0  0  0  0  0  0  0  0  0  0  0  0
    6.0285   -2.7202    0.2641 H   0  0  0  0  0  0  0  0  0  0  0  0
    7.1605   -2.3237   -1.8844 H   0  0  0  0  0  0  0  0  0  0  0  0
    6.6683   -0.2881   -3.2043 H   0  0  0  0  0  0  0  0  0  0  0  0
    3.9124    1.0163   -0.1578 H   0  0  0  0  0  0  0  0  0  0  0  0
   -3.1217   -0.6258    1.3026 H   0  0  0  0  0  0  0  0  0  0  0  0
   -1.6215   -1.4266    0.8737 H   0  0  0  0  0  0  0  0  0  0  0  0
   -1.8636   -0.6353   -1.4730 H   0  0  0  0  0  0  0  0  0  0  0  0
   -3.1874   -1.6591   -0.9698 H   0  0  0  0  0  0  0  0  0  0  0  0
  1  2  1  0
  2  3  1  0
  2  4  1  0
  2  5  1  0
  5  6  1  0
  6  7  1  0
  7  8  1  0
  8  9  1  0
  9 10  1  0
 10 11  1  0
 11 12  2  0
 12 13  1  0
 13 14  2  0
 14 15  1  0
 15 16  2  0
 16 17  1  0
 17 18  2  0
 18 19  1  0
 19 20  2  0
 20 21  1  0
 21 22  1  0
 22 23  1  0
 22 24  1  0
 22 25  1  0
 21 26  2  0
 16 27  1  0
 27 28  1  0
  8 29  1  0
 29 30  1  0
 30  5  1  0
 28 10  2  0
 27 13  1  0
 26 17  1  0
  1 31  1  0
  1 32  1  0
  1 33  1  0
  3 34  1  0
  3 35  1  0
  3 36  1  0
  4 37  1  0
  5 38  1  6
  6 39  1  0
  6 40  1  0
  7 41  1  0
  7 42  1  0
  8 43  1  1
  9 44  1  0
 11 45  1  0
 12 46  1  0
 15 47  1  0
 18 48  1  0
 19 49  1  0
 20 50  1  0
 26 51  1  0
 29 52  1  0
 29 53  1  0
 30 54  1  0
 30 55  1  0
M  END
$$$$
