
     RDKit          3D

 33 36  0  0  0  0  0  0  0  0999 V2000
   -1.0680    2.7485   -0.0833 O   0  0  0  0  0  0  0  0  0  0  0  0
   -0.5484    1.6403   -0.0594 C   0  0  0  0  0  0  0  0  0  0  0  0
    0.9240    1.5660   -0.0426 C   0  0  0  0  0  0  0  0  0  0  0  0
    1.5442    0.3798   -0.0164 C   0  0  0  0  0  0  0  0  0  0  0  0
    3.0275    0.2220    0.0020 C   0  0  0  0  0  0  0  0  0  0  0  0
    3.9132    1.3142   -0.0067 C   0  0  0  0  0  0  0  0  0  0  0  0
    5.3013    1.1289    0.0111 C   0  0  0  0  0  0  0  0  0  0  0  0
    5.8367   -0.1539    0.0381 C   0  0  0  0  0  0  0  0  0  0  0  0
    4.9852   -1.2522    0.0472 C   0  0  0  0  0  0  0  0  0  0  0  0
    3.5986   -1.0648    0.0294 C   0  0  0  0  0  0  0  0  0  0  0  0
    0.8495   -0.8187   -0.0039 O   0  0  0  0  0  0  0  0  0  0  0  0
   -0.5222   -0.8054   -0.0187 C   0  0  0  0  0  0  0  0  0  0  0  0
   -1.1235   -2.0601   -0.0043 C   0  0  0  0  0  0  0  0  0  0  0  0
   -2.5096   -2.1641   -0.0173 C   0  0  0  0  0  0  0  0  0  0  0  0
   -3.3161   -1.0191   -0.0448 C   0  0  0  0  0  0  0  0  0  0  0  0
   -4.7130   -1.1700   -0.0572 C   0  0  0  0  0  0  0  0  0  0  0  0
   -5.5567   -0.0635   -0.0844 C   0  0  0  0  0  0  0  0  0  0  0  0
   -5.0113    1.2100   -0.0997 C   0  0  0  0  0  0  0  0  0  0  0  0
   -3.6229    1.3753   -0.0877 C   0  0  0  0  0  0  0  0  0  0  0  0
   -2.7265    0.2747   -0.0600 C   0  0  0  0  0  0  0  0  0  0  0  0
   -1.2980    0.3583   -0.0462 C   0  0  0  0  0  0  0  0  0  0  0  0
    1.4238    2.5240   -0.0531 H   0  0  0  0  0  0  0  0  0  0  0  0
    3.5536    2.3387   -0.0275 H   0  0  0  0  0  0  0  0  0  0  0  0
    5.9622    1.9923    0.0038 H   0  0  0  0  0  0  0  0  0  0  0  0
    6.9139   -0.2968    0.0519 H   0  0  0  0  0  0  0  0  0  0  0  0
    5.3952   -2.2588    0.0682 H   0  0  0  0  0  0  0  0  0  0  0  0
    2.9699   -1.9529    0.0374 H   0  0  0  0  0  0  0  0  0  0  0  0
   -0.5130   -2.9593    0.0170 H   0  0  0  0  0  0  0  0  0  0  0  0
   -2.9579   -3.1561   -0.0057 H   0  0  0  0  0  0  0  0  0  0  0  0
   -5.1613   -2.1618   -0.0455 H   0  0  0  0  0  0  0  0  0  0  0  0
   -6.6350   -0.1973   -0.0937 H   0  0  0  0  0  0  0  0  0  0  0  0
   -5.6585    2.0833   -0.1210 H   0  0  0  0  0  0  0  0  0  0  0  0
   -3.2565    2.3987   -0.1007 H   0  0  0  0  0  0  0  0  0  0  0  0
  1  2  2  0
  2  3  1  0
  3  4  2  0
  4  5  1  0
  5  6  2  0
  6  7  1  0
  7  8  2  0
  8  9  1  0
  9 10  2  0
  4 11  1  0
 11 12  1  0
 12 13  2  0
 13 14  1  0
 14 15  2  0
 15 16  1  0
 16 17  2  0
 17 18  1  0
 18 19  2  0
 19 20  1  0
 20 21  2  0
 21  2  1  0
 10  5  1  0
 21 12  1  0
 20 15  1  0
  3 22  1  0
  6 23  1  0
  7 24  1  0
  8 25  1  0
  9 26  1  0
 10 27  1  0
 13 28  1  0
 14 29  1  0
 16 30  1  0
 17 31  1  0
 18 32  1  0
 19 33  1  0
M  END
$$$$
