
     RDKit          3D

 35 34  0  0  0  0  0  0  0  0999 V2000
    0.6897    0.0000    0.0000 Cl  0  0  0  0  0  0  0  0  0  0  0  0
    4.8946   -1.5426    0.9306 N   0  0  0  0  0  0  0  0  0  0  0  0
    4.0800   -0.9187   -0.0933 C   0  0  0  0  0  0  0  0  0  0  0  0
    4.4384    0.5432   -0.2730 C   0  0  0  0  0  0  0  0  0  0  0  0
    4.2469    1.2628    0.9046 O   0  0  0  0  0  0  0  0  0  0  0  0
    2.6596   -0.9724    0.3388 C   0  0  0  0  0  0  0  0  0  0  0  0
    2.3663   -1.5331    1.4334 O   0  0  0  0  0  0  0  0  0  0  0  0
    1.5971   -0.4223   -0.4161 N   0  0  0  0  0  0  0  0  0  0  0  0
    0.2898   -0.5100    0.0579 N   0  0  0  0  0  0  0  0  0  0  0  0
   -0.5951    0.2354   -0.7788 C   0  0  0  0  0  0  0  0  0  0  0  0
   -2.0104    0.1628   -0.2895 C   0  0  0  0  0  0  0  0  0  0  0  0
   -2.3374   -0.5567    0.8421 C   0  0  0  0  0  0  0  0  0  0  0  0
   -3.6439   -0.6384    1.3180 C   0  0  0  0  0  0  0  0  0  0  0  0
   -4.6228    0.0298    0.6180 C   0  0  0  0  0  0  0  0  0  0  0  0
   -5.9714    0.0033    1.0239 O   0  0  0  0  0  0  0  0  0  0  0  0
   -4.3485    0.7646   -0.5205 C   0  0  0  0  0  0  0  0  0  0  0  0
   -5.3778    1.4306   -1.2018 O   0  0  0  0  0  0  0  0  0  0  0  0
   -3.0346    0.8105   -0.9466 C   0  0  0  0  0  0  0  0  0  0  0  0
   -2.7699    1.5482   -2.0877 O   0  0  0  0  0  0  0  0  0  0  0  0
   -0.6897    0.0000    0.0000 H   0  0  0  0  0  0  0  0  0  0  0  0
    4.7152   -2.5616    0.9380 H   0  0  0  0  0  0  0  0  0  0  0  0
    4.6011   -1.1631    1.8723 H   0  0  0  0  0  0  0  0  0  0  0  0
    4.1771   -1.4839   -1.0296 H   0  0  0  0  0  0  0  0  0  0  0  0
    3.7555    0.9742   -1.0346 H   0  0  0  0  0  0  0  0  0  0  0  0
    5.4871    0.6494   -0.6216 H   0  0  0  0  0  0  0  0  0  0  0  0
    4.7256    2.1337    0.7625 H   0  0  0  0  0  0  0  0  0  0  0  0
    1.7928    0.0387   -1.3107 H   0  0  0  0  0  0  0  0  0  0  0  0
    0.2678   -0.2724    1.0608 H   0  0  0  0  0  0  0  0  0  0  0  0
   -0.4674   -0.0489   -1.8191 H   0  0  0  0  0  0  0  0  0  0  0  0
   -0.2683    1.3122   -0.7164 H   0  0  0  0  0  0  0  0  0  0  0  0
   -1.5734   -1.0904    1.4087 H   0  0  0  0  0  0  0  0  0  0  0  0
   -3.8943   -1.2126    2.2195 H   0  0  0  0  0  0  0  0  0  0  0  0
   -6.2572   -0.5176    1.8582 H   0  0  0  0  0  0  0  0  0  0  0  0
   -5.0971    1.9458   -2.0260 H   0  0  0  0  0  0  0  0  0  0  0  0
   -1.8254    1.5997   -2.4220 H   0  0  0  0  0  0  0  0  0  0  0  0
  2  3  1  0
  3  4  1  0
  4  5  1  0
  3  6  1  0
  6  7  2  0
  6  8  1  0
  8  9  1  0
  9 10  1  0
 10 11  1  0
 11 12  2  0
 12 13  1  0
 13 14  2  0
 14 15  1  0
 14 16  1  0
 16 17  1  0
 16 18  2  0
 18 19  1  0
 18 11  1  0
  1 20  1  0
  2 21  1  0
  2 22  1  0
  3 23  1  0
  4 24  1  0
  4 25  1  0
  5 26  1  0
  8 27  1  0
  9 28  1  0
 10 29  1  0
 10 30  1  0
 12 31  1  0
 13 32  1  0
 15 33  1  0
 17 34  1  0
 19 35  1  0
M  END
$$$$
