
     RDKit          3D

 36 37  0  0  0  0  0  0  0  0999 V2000
   -6.8018    0.8245    0.1815 C   0  0  0  0  0  0  0  0  0  0  0  0
   -5.3516    0.4452    0.1298 C   0  0  0  0  0  0  0  0  0  0  0  0
   -4.5596    0.8092   -0.9650 C   0  0  0  0  0  0  0  0  0  0  0  0
   -3.1986    0.4836   -1.0029 C   0  0  0  0  0  0  0  0  0  0  0  0
   -2.6125   -0.2014    0.0612 C   0  0  0  0  0  0  0  0  0  0  0  0
   -1.3024   -0.5796    0.1552 O   0  0  0  0  0  0  0  0  0  0  0  0
   -0.4498   -0.2393   -0.9254 C   0  0  0  0  0  0  0  0  0  0  0  0
    0.9806   -0.7273   -0.6860 C   0  0  0  0  0  0  0  0  0  0  0  0
    1.3110   -1.4405    0.2499 O   0  0  0  0  0  0  0  0  0  0  0  0
    1.9034   -0.2670   -1.6420 N   0  0  0  0  0  0  0  0  0  0  0  0
    3.4961   -0.7274   -1.7316 S   0  0  0  0  0  6  0  0  0  0  0  0
    3.5806   -2.1691   -1.7203 O   0  0  0  0  0  0  0  0  0  0  0  0
    4.0413    0.0379   -2.8349 O   0  0  0  0  0  0  0  0  0  0  0  0
    4.2044   -0.0800   -0.2383 C   0  0  0  0  0  0  0  0  0  0  0  0
    4.3326   -0.9052    0.8835 C   0  0  0  0  0  0  0  0  0  0  0  0
    4.9178   -0.4019    2.0473 C   0  0  0  0  0  0  0  0  0  0  0  0
    5.3834    0.9128    2.0772 C   0  0  0  0  0  0  0  0  0  0  0  0
    6.1052    1.5310    3.5113 Cl  0  0  0  0  0  0  0  0  0  0  0  0
    5.2729    1.7308    0.9514 C   0  0  0  0  0  0  0  0  0  0  0  0
    4.6859    1.2339   -0.2147 C   0  0  0  0  0  0  0  0  0  0  0  0
   -3.3984   -0.5531    1.1603 C   0  0  0  0  0  0  0  0  0  0  0  0
   -4.7564   -0.2289    1.1998 C   0  0  0  0  0  0  0  0  0  0  0  0
   -7.2343    0.8519   -0.8241 H   0  0  0  0  0  0  0  0  0  0  0  0
   -6.9143    1.8107    0.6423 H   0  0  0  0  0  0  0  0  0  0  0  0
   -7.3761    0.0948    0.7619 H   0  0  0  0  0  0  0  0  0  0  0  0
   -5.0000    1.3494   -1.8006 H   0  0  0  0  0  0  0  0  0  0  0  0
   -2.6337    0.7828   -1.8784 H   0  0  0  0  0  0  0  0  0  0  0  0
   -0.4088    0.8505   -1.0423 H   0  0  0  0  0  0  0  0  0  0  0  0
   -0.7986   -0.7125   -1.8512 H   0  0  0  0  0  0  0  0  0  0  0  0
    1.6339    0.3624   -2.3906 H   0  0  0  0  0  0  0  0  0  0  0  0
    3.9685   -1.9315    0.8629 H   0  0  0  0  0  0  0  0  0  0  0  0
    5.0069   -1.0395    2.9234 H   0  0  0  0  0  0  0  0  0  0  0  0
    5.6476    2.7511    0.9757 H   0  0  0  0  0  0  0  0  0  0  0  0
    4.6171    1.8702   -1.0941 H   0  0  0  0  0  0  0  0  0  0  0  0
   -2.9489   -1.0841    1.9965 H   0  0  0  0  0  0  0  0  0  0  0  0
   -5.3436   -0.5090    2.0714 H   0  0  0  0  0  0  0  0  0  0  0  0
  1  2  1  0
  2  3  2  0
  3  4  1  0
  4  5  2  0
  5  6  1  0
  6  7  1  0
  7  8  1  0
  8  9  2  0
  8 10  1  0
 10 11  1  0
 11 12  2  0
 11 13  2  0
 11 14  1  0
 14 15  2  0
 15 16  1  0
 16 17  2  0
 17 18  1  0
 17 19  1  0
 19 20  2  0
  5 21  1  0
 21 22  2  0
 22  2  1  0
 20 14  1  0
  1 23  1  0
  1 24  1  0
  1 25  1  0
  3 26  1  0
  4 27  1  0
  7 28  1  0
  7 29  1  0
 10 30  1  0
 15 31  1  0
 16 32  1  0
 19 33  1  0
 20 34  1  0
 21 35  1  0
 22 36  1  0
M  END
$$$$
