
     RDKit          3D

 23 24  0  0  0  0  0  0  0  0999 V2000
    1.0707   -1.1697    0.4418 O   0  0  0  0  0  0  0  0  0  0  0  0
    1.0478   -0.0160    0.0316 C   0  0  0  0  0  0  0  0  0  0  0  0
   -0.0883    0.6909   -0.3283 N   0  0  0  0  0  0  0  0  0  0  0  0
   -1.4277    0.2461   -0.3006 C   0  0  0  0  0  0  0  0  0  0  0  0
   -2.4101    1.1556   -0.7172 C   0  0  0  0  0  0  0  0  0  0  0  0
   -3.7610    0.7973   -0.7211 C   0  0  0  0  0  0  0  0  0  0  0  0
   -4.1440   -0.4752   -0.3082 C   0  0  0  0  0  0  0  0  0  0  0  0
   -3.1762   -1.3859    0.1075 C   0  0  0  0  0  0  0  0  0  0  0  0
   -1.8238   -1.0273    0.1115 C   0  0  0  0  0  0  0  0  0  0  0  0
    2.1831    0.7613   -0.1335 N   0  0  0  0  0  0  0  0  0  0  0  0
    3.4427    0.2912    0.1545 C   0  0  0  0  0  0  0  0  0  0  0  0
    3.9661   -0.8941    0.6243 C   0  0  0  0  0  0  0  0  0  0  0  0
    5.3489   -0.9060    0.7623 N   0  0  0  0  0  0  0  0  0  0  0  0
    5.8856    0.2507    0.4051 N   0  0  0  0  0  0  0  0  0  0  0  0
    4.7436    1.3668   -0.1001 S   0  0  0  0  0  0  0  0  0  0  0  0
    0.0476    1.6361   -0.6494 H   0  0  0  0  0  0  0  0  0  0  0  0
   -2.1419    2.1562   -1.0451 H   0  0  0  0  0  0  0  0  0  0  0  0
   -4.5130    1.5115   -1.0464 H   0  0  0  0  0  0  0  0  0  0  0  0
   -5.1933   -0.7584   -0.3095 H   0  0  0  0  0  0  0  0  0  0  0  0
   -3.4690   -2.3818    0.4314 H   0  0  0  0  0  0  0  0  0  0  0  0
   -1.1073   -1.7715    0.4440 H   0  0  0  0  0  0  0  0  0  0  0  0
    2.1100    1.7062   -0.4748 H   0  0  0  0  0  0  0  0  0  0  0  0
    3.4093   -1.7841    0.8852 H   0  0  0  0  0  0  0  0  0  0  0  0
  1  2  2  0
  2  3  1  0
  3  4  1  0
  4  5  2  0
  5  6  1  0
  6  7  2  0
  7  8  1  0
  8  9  2  0
  2 10  1  0
 10 11  1  0
 11 12  2  0
 12 13  1  0
 13 14  2  0
 14 15  1  0
  9  4  1  0
 15 11  1  0
  3 16  1  0
  5 17  1  0
  6 18  1  0
  7 19  1  0
  8 20  1  0
  9 21  1  0
 10 22  1  0
 12 23  1  0
M  END
$$$$
