
     RDKit          3D

 40 41  0  0  0  0  0  0  0  0999 V2000
   -0.2390   -0.6164   -2.8938 C   0  0  0  0  0  0  0  0  0  0  0  0
   -0.3734   -1.2593   -1.5190 C   0  0  0  0  0  0  0  0  0  0  0  0
   -0.5032   -0.2366   -0.4027 C   0  0  0  0  0  0  0  0  0  0  0  0
    0.5033    0.1845    0.4029 C   0  0  0  0  0  0  0  0  0  0  0  0
    0.3735    1.2072    1.5191 C   0  0  0  0  0  0  0  0  0  0  0  0
    0.2388    0.5643    2.8939 C   0  0  0  0  0  0  0  0  0  0  0  0
    1.8830   -0.3039    0.2008 C   0  0  0  0  0  0  0  0  0  0  0  0
    2.7731    0.4191   -0.6048 C   0  0  0  0  0  0  0  0  0  0  0  0
    4.0772   -0.0399   -0.8052 C   0  0  0  0  0  0  0  0  0  0  0  0
    4.4856   -1.2233   -0.1978 C   0  0  0  0  0  0  0  0  0  0  0  0
    5.7488   -1.7083   -0.3663 O   0  0  0  0  0  0  0  0  0  0  0  0
    3.6143   -1.9527    0.6028 C   0  0  0  0  0  0  0  0  0  0  0  0
    2.3113   -1.4942    0.8024 C   0  0  0  0  0  0  0  0  0  0  0  0
   -1.8830    0.2519   -0.2007 C   0  0  0  0  0  0  0  0  0  0  0  0
   -2.7731   -0.4712    0.6047 C   0  0  0  0  0  0  0  0  0  0  0  0
   -4.0772   -0.0122    0.8050 C   0  0  0  0  0  0  0  0  0  0  0  0
   -4.4856    1.1713    0.1977 C   0  0  0  0  0  0  0  0  0  0  0  0
   -5.7487    1.6563    0.3661 O   0  0  0  0  0  0  0  0  0  0  0  0
   -3.6142    1.9007   -0.6028 C   0  0  0  0  0  0  0  0  0  0  0  0
   -2.3112    1.4422   -0.8023 C   0  0  0  0  0  0  0  0  0  0  0  0
   -0.0962   -1.3894   -3.6561 H   0  0  0  0  0  0  0  0  0  0  0  0
   -1.1358   -0.0491   -3.1616 H   0  0  0  0  0  0  0  0  0  0  0  0
    0.6200    0.0608   -2.9362 H   0  0  0  0  0  0  0  0  0  0  0  0
    0.4869   -1.9172   -1.3570 H   0  0  0  0  0  0  0  0  0  0  0  0
   -1.2431   -1.9290   -1.5186 H   0  0  0  0  0  0  0  0  0  0  0  0
    1.2432    1.8768    1.5189 H   0  0  0  0  0  0  0  0  0  0  0  0
   -0.4868    1.8652    1.3571 H   0  0  0  0  0  0  0  0  0  0  0  0
   -0.6202   -0.1129    2.9361 H   0  0  0  0  0  0  0  0  0  0  0  0
    1.1356   -0.0031    3.1617 H   0  0  0  0  0  0  0  0  0  0  0  0
    0.0960    1.3372    3.6562 H   0  0  0  0  0  0  0  0  0  0  0  0
    2.4504    1.3418   -1.0814 H   0  0  0  0  0  0  0  0  0  0  0  0
    4.7508    0.5342   -1.4330 H   0  0  0  0  0  0  0  0  0  0  0  0
    6.2391   -1.1000   -0.9431 H   0  0  0  0  0  0  0  0  0  0  0  0
    3.9471   -2.8754    1.0691 H   0  0  0  0  0  0  0  0  0  0  0  0
    1.6317   -2.0694    1.4260 H   0  0  0  0  0  0  0  0  0  0  0  0
   -2.4505   -1.3938    1.0813 H   0  0  0  0  0  0  0  0  0  0  0  0
   -4.7509   -0.5862    1.4327 H   0  0  0  0  0  0  0  0  0  0  0  0
   -6.2391    1.0480    0.9428 H   0  0  0  0  0  0  0  0  0  0  0  0
   -3.9468    2.8235   -1.0691 H   0  0  0  0  0  0  0  0  0  0  0  0
   -1.6315    2.0174   -1.4258 H   0  0  0  0  0  0  0  0  0  0  0  0
  1  2  1  0
  2  3  1  0
  3  4  2  0
  4  5  1  0
  5  6  1  0
  4  7  1  0
  7  8  2  0
  8  9  1  0
  9 10  2  0
 10 11  1  0
 10 12  1  0
 12 13  2  0
  3 14  1  0
 14 15  2  0
 15 16  1  0
 16 17  2  0
 17 18  1  0
 17 19  1  0
 19 20  2  0
 13  7  1  0
 20 14  1  0
  1 21  1  0
  1 22  1  0
  1 23  1  0
  2 24  1  0
  2 25  1  0
  5 26  1  0
  5 27  1  0
  6 28  1  0
  6 29  1  0
  6 30  1  0
  8 31  1  0
  9 32  1  0
 11 33  1  0
 12 34  1  0
 13 35  1  0
 15 36  1  0
 16 37  1  0
 18 38  1  0
 19 39  1  0
 20 40  1  0
M  END
$$$$
