
     RDKit          3D

 59 63  0  0  0  0  0  0  0  0999 V2000
   -2.3408   -0.9289   -2.7314 O   0  0  0  0  0  0  0  0  0  0  0  0
   -2.1210   -0.3878   -1.6541 C   0  0  0  0  0  0  0  0  0  0  0  0
   -3.1218    0.4912   -0.9359 C   0  0  0  0  0  0  0  0  0  0  0  0
   -4.4219    0.6321   -1.7308 C   0  0  0  0  0  0  0  0  0  0  0  0
   -5.3037   -0.5150   -1.6447 N   0  0  0  0  0  0  0  0  0  0  0  0
   -5.8522   -1.0608   -0.5258 C   0  0  0  0  0  0  0  0  0  0  0  0
   -6.2119   -2.2359   -0.5682 O   0  0  0  0  0  0  0  0  0  0  0  0
   -6.0307   -0.2697    0.7177 C   0  0  0  0  0  0  0  0  0  0  0  0
   -6.2869   -1.0374    1.8757 C   0  0  0  0  0  0  0  0  0  0  0  0
   -6.6008   -0.4386    3.0947 C   0  0  0  0  0  0  0  0  0  0  0  0
   -6.6844    0.9429    3.1734 C   0  0  0  0  0  0  0  0  0  0  0  0
   -6.4340    1.7156    2.0386 C   0  0  0  0  0  0  0  0  0  0  0  0
   -6.0792    1.1288    0.8066 C   0  0  0  0  0  0  0  0  0  0  0  0
   -5.8209    2.0543   -0.2161 N   0  0  0  0  0  0  0  0  0  0  0  0
   -5.1279    1.9310   -1.3799 C   0  0  0  0  0  0  0  0  0  0  0  0
   -4.9443    2.9538   -2.0477 O   0  0  0  0  0  0  0  0  0  0  0  0
   -0.9344   -0.5287   -0.9614 N   0  0  0  0  0  0  0  0  0  0  0  0
    0.1904   -1.2732   -1.5222 C   0  0  0  0  0  0  0  0  0  0  0  0
    0.9119   -0.4342   -2.5855 C   0  0  0  0  0  0  0  0  0  0  0  0
    2.3582   -0.8898   -2.7434 C   0  0  0  0  0  0  0  0  0  0  0  0
    3.1583   -0.7575   -1.5132 N   0  0  0  0  0  0  0  0  0  0  0  0
    3.9820    0.4708   -1.5444 C   0  0  0  0  0  0  0  0  0  0  0  0
    4.9998    0.5066   -0.4482 C   0  0  0  0  0  0  0  0  0  0  0  0
    5.2223    1.4855    0.4065 N   0  0  0  0  0  0  0  0  0  0  0  0
    6.2489    1.0457    1.2076 C   0  0  0  0  0  0  0  0  0  0  0  0
    6.8865    1.6853    2.2805 C   0  0  0  0  0  0  0  0  0  0  0  0
    7.9185    1.0118    2.9471 C   0  0  0  0  0  0  0  0  0  0  0  0
    8.3065   -0.2721    2.5541 C   0  0  0  0  0  0  0  0  0  0  0  0
    7.6818   -0.9265    1.4855 C   0  0  0  0  0  0  0  0  0  0  0  0
    6.6587   -0.2308    0.8381 C   0  0  0  0  0  0  0  0  0  0  0  0
    5.8479   -0.5501   -0.2180 N   0  0  0  0  0  0  0  0  0  0  0  0
    2.3411   -0.8074   -0.2833 C   0  0  0  0  0  0  0  0  0  0  0  0
    1.1449   -1.7472   -0.4194 C   0  0  0  0  0  0  0  0  0  0  0  0
   -3.2925    0.0741    0.0622 H   0  0  0  0  0  0  0  0  0  0  0  0
   -2.6534    1.4757   -0.8079 H   0  0  0  0  0  0  0  0  0  0  0  0
   -4.1954    0.7194   -2.8020 H   0  0  0  0  0  0  0  0  0  0  0  0
   -5.1748   -1.2152   -2.3692 H   0  0  0  0  0  0  0  0  0  0  0  0
   -6.2644   -2.1268    1.8245 H   0  0  0  0  0  0  0  0  0  0  0  0
   -6.7998   -1.0540    3.9690 H   0  0  0  0  0  0  0  0  0  0  0  0
   -6.9456    1.4215    4.1142 H   0  0  0  0  0  0  0  0  0  0  0  0
   -6.5015    2.7978    2.1377 H   0  0  0  0  0  0  0  0  0  0  0  0
   -6.0856    3.0194   -0.0513 H   0  0  0  0  0  0  0  0  0  0  0  0
   -0.7502    0.1047   -0.1926 H   0  0  0  0  0  0  0  0  0  0  0  0
   -0.2303   -2.1654   -2.0039 H   0  0  0  0  0  0  0  0  0  0  0  0
    0.8902    0.6319   -2.3227 H   0  0  0  0  0  0  0  0  0  0  0  0
    0.3859   -0.5218   -3.5438 H   0  0  0  0  0  0  0  0  0  0  0  0
    2.3627   -1.9503   -3.0284 H   0  0  0  0  0  0  0  0  0  0  0  0
    2.8221   -0.3642   -3.5875 H   0  0  0  0  0  0  0  0  0  0  0  0
    4.5395    0.5174   -2.4892 H   0  0  0  0  0  0  0  0  0  0  0  0
    3.3520    1.3684   -1.5004 H   0  0  0  0  0  0  0  0  0  0  0  0
    6.5793    2.6810    2.5797 H   0  0  0  0  0  0  0  0  0  0  0  0
    8.4218    1.4965    3.7805 H   0  0  0  0  0  0  0  0  0  0  0  0
    9.1110   -0.7734    3.0891 H   0  0  0  0  0  0  0  0  0  0  0  0
    7.9833   -1.9226    1.1808 H   0  0  0  0  0  0  0  0  0  0  0  0
    5.8330   -1.4208   -0.7297 H   0  0  0  0  0  0  0  0  0  0  0  0
    2.9639   -1.1569    0.5481 H   0  0  0  0  0  0  0  0  0  0  0  0
    1.9684    0.1896   -0.0118 H   0  0  0  0  0  0  0  0  0  0  0  0
    1.5136   -2.7514   -0.6676 H   0  0  0  0  0  0  0  0  0  0  0  0
    0.6255   -1.8383    0.5419 H   0  0  0  0  0  0  0  0  0  0  0  0
  1  2  2  0
  2  3  1  0
  3  4  1  0
  4  5  1  0
  5  6  1  0
  6  7  2  0
  6  8  1  0
  8  9  2  0
  9 10  1  0
 10 11  2  0
 11 12  1  0
 12 13  2  0
 13 14  1  0
 14 15  1  0
 15 16  2  0
  2 17  1  0
 17 18  1  0
 18 19  1  0
 19 20  1  0
 20 21  1  0
 21 22  1  0
 22 23  1  0
 23 24  2  0
 24 25  1  0
 25 26  2  0
 26 27  1  0
 27 28  2  0
 28 29  1  0
 29 30  2  0
 30 31  1  0
 21 32  1  0
 32 33  1  0
 15  4  1  0
 33 18  1  0
 13  8  1  0
 31 23  1  0
 30 25  1  0
  3 34  1  0
  3 35  1  0
  4 36  1  0
  5 37  1  0
  9 38  1  0
 10 39  1  0
 11 40  1  0
 12 41  1  0
 14 42  1  0
 17 43  1  0
 18 44  1  0
 19 45  1  0
 19 46  1  0
 20 47  1  0
 20 48  1  0
 22 49  1  0
 22 50  1  0
 26 51  1  0
 27 52  1  0
 28 53  1  0
 29 54  1  0
 31 55  1  0
 32 56  1  0
 32 57  1  0
 33 58  1  0
 33 59  1  0
M  END
$$$$
