
     RDKit          3D

 58 61  0  0  0  0  0  0  0  0999 V2000
    7.1153   -1.4681    0.1503 C   0  0  0  0  0  0  0  0  0  0  0  0
    6.0823   -1.0949   -0.9057 C   0  0  0  0  0  0  0  0  0  0  0  0
    6.6212   -0.0064   -1.8306 C   0  0  0  0  0  0  0  0  0  0  0  0
    4.8454   -0.6416   -0.2813 N   0  0  0  0  0  0  0  0  0  0  0  0
    3.9252   -1.5299    0.2164 C   0  0  0  0  0  0  0  0  0  0  0  0
    4.0494   -2.7469    0.1235 O   0  0  0  0  0  0  0  0  0  0  0  0
    2.8396   -0.9386    0.8133 N   0  0  0  0  0  0  0  0  0  0  0  0
    1.7867   -1.7480    1.4026 C   0  0  0  0  0  0  0  0  0  0  0  0
    0.8462   -0.7497    2.0645 C   0  0  0  0  0  0  0  0  0  0  0  0
    1.0042    0.5100    1.2144 C   0  0  2  0  0  0  0  0  0  0  0  0
    0.1764    0.4224    0.0075 N   0  0  0  0  0  0  0  0  0  0  0  0
   -1.1500    0.8224   -0.0304 C   0  0  0  0  0  0  0  0  0  0  0  0
   -1.6395    1.4246    1.0157 N   0  0  0  0  0  0  0  0  0  0  0  0
   -2.9412    1.9375    1.1256 C   0  0  0  0  0  0  0  0  0  0  0  0
   -3.0792    3.1231    1.8549 C   0  0  0  0  0  0  0  0  0  0  0  0
   -4.3331    3.6730    2.0788 C   0  0  0  0  0  0  0  0  0  0  0  0
   -4.4390    4.8024    2.7936 F   0  0  0  0  0  0  0  0  0  0  0  0
   -5.4793    3.0645    1.5891 C   0  0  0  0  0  0  0  0  0  0  0  0
   -5.3637    1.8785    0.8712 C   0  0  0  0  0  0  0  0  0  0  0  0
   -4.1046    1.3007    0.6442 C   0  0  0  0  0  0  0  0  0  0  0  0
   -4.0698    0.1053   -0.1223 N   0  0  0  0  0  0  0  0  0  0  0  0
   -3.7728   -1.0577    0.7640 C   0  0  0  0  0  0  0  0  0  0  0  0
   -4.7840   -2.1799    0.5333 C   0  0  0  0  0  0  0  0  0  0  0  0
   -4.8351   -2.9695    1.6390 F   0  0  0  0  0  0  0  0  0  0  0  0
   -4.3781   -2.9814   -0.4868 F   0  0  0  0  0  0  0  0  0  0  0  0
   -3.2438    0.0906   -1.2789 C   0  0  0  0  0  0  0  0  0  0  0  0
   -3.8480   -0.2797   -2.4946 C   0  0  0  0  0  0  0  0  0  0  0  0
   -3.1443   -0.2145   -3.6985 C   0  0  0  0  0  0  0  0  0  0  0  0
   -1.8274    0.2288   -3.7004 C   0  0  0  0  0  0  0  0  0  0  0  0
   -0.9667    0.3415   -5.1856 Cl  0  0  0  0  0  0  0  0  0  0  0  0
   -1.2004    0.5859   -2.5085 C   0  0  0  0  0  0  0  0  0  0  0  0
   -1.9014    0.5125   -1.2921 C   0  0  0  0  0  0  0  0  0  0  0  0
    2.4913    0.4755    0.8393 C   0  0  0  0  0  0  0  0  0  0  0  0
    7.3488   -0.6157    0.7935 H   0  0  0  0  0  0  0  0  0  0  0  0
    6.7436   -2.2733    0.7952 H   0  0  0  0  0  0  0  0  0  0  0  0
    8.0450   -1.8086   -0.3177 H   0  0  0  0  0  0  0  0  0  0  0  0
    5.8567   -1.9895   -1.5067 H   0  0  0  0  0  0  0  0  0  0  0  0
    7.5283   -0.3439   -2.3460 H   0  0  0  0  0  0  0  0  0  0  0  0
    5.8769    0.2578   -2.5911 H   0  0  0  0  0  0  0  0  0  0  0  0
    6.8613    0.9019   -1.2733 H   0  0  0  0  0  0  0  0  0  0  0  0
    4.8863    0.2452    0.1910 H   0  0  0  0  0  0  0  0  0  0  0  0
    1.2841   -2.3026    0.6013 H   0  0  0  0  0  0  0  0  0  0  0  0
    2.2079   -2.4672    2.1121 H   0  0  0  0  0  0  0  0  0  0  0  0
    1.1900   -0.5509    3.0847 H   0  0  0  0  0  0  0  0  0  0  0  0
   -0.1800   -1.1237    2.1187 H   0  0  0  0  0  0  0  0  0  0  0  0
    0.7773    1.4246    1.7706 H   0  0  0  0  0  0  0  0  0  0  0  0
    0.4699   -0.2962   -0.6485 H   0  0  0  0  0  0  0  0  0  0  0  0
   -2.2007    3.6165    2.2593 H   0  0  0  0  0  0  0  0  0  0  0  0
   -6.4425    3.5215    1.7593 H   0  0  0  0  0  0  0  0  0  0  0  0
   -6.2558    1.4065    0.4672 H   0  0  0  0  0  0  0  0  0  0  0  0
   -2.7640   -1.4603    0.6039 H   0  0  0  0  0  0  0  0  0  0  0  0
   -3.8379   -0.7763    1.8268 H   0  0  0  0  0  0  0  0  0  0  0  0
   -5.7906   -1.8129    0.3194 H   0  0  0  0  0  0  0  0  0  0  0  0
   -4.8901   -0.5938   -2.5045 H   0  0  0  0  0  0  0  0  0  0  0  0
   -3.6366   -0.4919   -4.6277 H   0  0  0  0  0  0  0  0  0  0  0  0
   -0.1736    0.9408   -2.5301 H   0  0  0  0  0  0  0  0  0  0  0  0
    3.1087    0.9523    1.6142 H   0  0  0  0  0  0  0  0  0  0  0  0
    2.7046    0.9476   -0.1258 H   0  0  0  0  0  0  0  0  0  0  0  0
  1  2  1  0
  2  3  1  0
  2  4  1  0
  4  5  1  0
  5  6  2  0
  5  7  1  0
  7  8  1  0
  8  9  1  0
  9 10  1  0
 10 11  1  0
 11 12  1  0
 12 13  2  0
 13 14  1  0
 14 15  2  0
 15 16  1  0
 16 17  1  0
 16 18  2  0
 18 19  1  0
 19 20  2  0
 20 21  1  0
 21 22  1  0
 22 23  1  0
 23 24  1  0
 23 25  1  0
 21 26  1  0
 26 27  2  0
 27 28  1  0
 28 29  2  0
 29 30  1  0
 29 31  1  0
 31 32  2  0
 10 33  1  0
 33  7  1  0
 32 12  1  0
 20 14  1  0
 32 26  1  0
  1 34  1  0
  1 35  1  0
  1 36  1  0
  2 37  1  0
  3 38  1  0
  3 39  1  0
  3 40  1  0
  4 41  1  0
  8 42  1  0
  8 43  1  0
  9 44  1  0
  9 45  1  0
 10 46  1  1
 11 47  1  0
 15 48  1  0
 18 49  1  0
 19 50  1  0
 22 51  1  0
 22 52  1  0
 23 53  1  0
 27 54  1  0
 28 55  1  0
 31 56  1  0
 33 57  1  0
 33 58  1  0
M  END
$$$$
