
     RDKit          3D

124131  0  0  0  0  0  0  0  0999 V2000
    4.9662    4.7581   -0.8419 C   0  0  0  0  0  0  0  0  0  0  0  0
    5.7512    3.9020    0.1465 C   0  0  0  0  0  0  0  0  0  0  0  0
    5.8430    2.3974   -0.2105 C   0  0  2  0  0  0  0  0  0  0  0  0
    6.5279    2.2956   -1.4709 O   0  0  0  0  0  0  0  0  0  0  0  0
    4.4561    1.7278   -0.3650 C   0  0  0  0  0  0  0  0  0  0  0  0
    3.7269    1.5340    0.9780 C   0  0  2  0  0  0  0  0  0  0  0  0
    4.7175    1.1838    2.1122 C   0  0  0  0  0  0  0  0  0  0  0  0
    5.9990    0.6462    1.6701 N   0  0  0  0  0  0  0  0  0  0  0  0
    6.0067   -0.6681    0.9959 C   0  0  0  0  0  0  0  0  0  0  0  0
    4.8192   -1.6372    1.1735 C   0  0  0  0  0  0  0  0  0  0  0  0
    4.0973   -1.8972   -0.1245 C   0  0  0  0  0  0  0  0  0  0  0  0
    2.9535   -1.2940   -0.6611 C   0  0  0  0  0  0  0  0  0  0  0  0
    2.7274   -1.9167   -1.8764 N   0  0  0  0  0  0  0  0  0  0  0  0
    3.6744   -2.8646   -2.1534 C   0  0  0  0  0  0  0  0  0  0  0  0
    3.8235   -3.6931   -3.2732 C   0  0  0  0  0  0  0  0  0  0  0  0
    4.9087   -4.5735   -3.2873 C   0  0  0  0  0  0  0  0  0  0  0  0
    5.8062   -4.6185   -2.2234 C   0  0  0  0  0  0  0  0  0  0  0  0
    5.6385   -3.7795   -1.1160 C   0  0  0  0  0  0  0  0  0  0  0  0
    4.5499   -2.8812   -1.0762 C   0  0  0  0  0  0  0  0  0  0  0  0
    1.9576   -0.1972   -0.1927 C   0  0  1  0  0  0  0  0  0  0  0  0
    1.7294    0.8048   -1.3909 C   0  0  0  0  0  0  0  0  0  0  0  0
    1.8442    0.5302   -2.5835 O   0  0  0  0  0  0  0  0  0  0  0  0
    1.2646    2.0185   -0.9532 O   0  0  0  0  0  0  0  0  0  0  0  0
    0.9593    2.9523   -1.9900 C   0  0  0  0  0  0  0  0  0  0  0  0
    0.5846   -0.8832    0.1781 C   0  0  0  0  0  0  0  0  0  0  0  0
   -0.6045   -0.5209   -0.4959 C   0  0  0  0  0  0  0  0  0  0  0  0
   -1.8225   -1.0945   -0.1461 C   0  0  0  0  0  0  0  0  0  0  0  0
   -1.8947   -2.0680    0.8367 C   0  0  0  0  0  0  0  0  0  0  0  0
   -0.7525   -2.4733    1.5016 C   0  0  0  0  0  0  0  0  0  0  0  0
    0.4860   -1.8907    1.1785 C   0  0  0  0  0  0  0  0  0  0  0  0
    1.6343   -2.2315    1.8434 O   0  0  0  0  0  0  0  0  0  0  0  0
    1.7023   -3.5543    2.3662 C   0  0  0  0  0  0  0  0  0  0  0  0
   -3.2029   -2.5349    1.0661 N   0  0  0  0  0  0  0  0  0  0  0  0
   -3.3791   -3.9654    0.8409 C   0  0  0  0  0  0  0  0  0  0  0  0
   -4.0892   -1.5795    0.3258 C   0  0  1  0  0  0  0  0  0  0  0  0
   -4.7949   -0.6250    1.3353 C   0  0  1  0  0  0  0  0  0  0  0  0
   -6.2218   -0.6421    1.0463 O   0  0  0  0  0  0  0  0  0  0  0  0
   -4.6817   -1.1508    2.7886 C   0  0  0  0  0  0  0  0  0  0  0  0
   -3.9751   -0.6946    3.6768 O   0  0  0  0  0  0  0  0  0  0  0  0
   -5.5611   -2.1980    2.9618 O   0  0  0  0  0  0  0  0  0  0  0  0
   -5.5195   -2.7766    4.2682 C   0  0  0  0  0  0  0  0  0  0  0  0
   -4.2515    0.8225    1.2603 C   0  0  2  0  0  0  0  0  0  0  0  0
   -4.9606    1.6394    2.2335 O   0  0  0  0  0  0  0  0  0  0  0  0
   -4.1972    2.3018    3.1521 C   0  0  0  0  0  0  0  0  0  0  0  0
   -5.0781    2.9441    4.1792 C   0  0  0  0  0  0  0  0  0  0  0  0
   -2.9771    2.3983    3.1351 O   0  0  0  0  0  0  0  0  0  0  0  0
   -4.3779    1.4510   -0.1683 C   0  0  2  0  0  0  0  0  0  0  0  0
   -3.7577    2.9019   -0.1879 C   0  0  0  0  0  0  0  0  0  0  0  0
   -4.6470    4.0680    0.2403 C   0  0  0  0  0  0  0  0  0  0  0  0
   -5.8246    1.5664   -0.6328 C   0  0  0  0  0  0  0  0  0  0  0  0
   -6.1476    1.5294   -1.9323 C   0  0  0  0  0  0  0  0  0  0  0  0
   -5.0999    1.3594   -2.9790 C   0  0  0  0  0  0  0  0  0  0  0  0
   -4.0291    0.4545   -2.5827 N   0  0  0  0  0  0  0  0  0  0  0  0
   -4.3587   -0.9452   -2.8326 C   0  0  0  0  0  0  0  0  0  0  0  0
   -3.2610   -1.6646   -2.0845 C   0  0  0  0  0  0  0  0  0  0  0  0
   -3.1882   -0.8861   -0.7545 C   0  0  2  0  0  0  0  0  0  0  0  0
   -3.5399    0.5695   -1.1769 C   0  0  2  0  0  0  0  0  0  0  0  0
    2.4547    0.6273    1.0367 C   0  0  0  0  0  0  0  0  0  0  0  0
    6.7154    1.6552    0.8584 C   0  0  0  0  0  0  0  0  0  0  0  0
   -0.3118    0.2619    1.5035 O   0  0  0  0  0  0  0  0  0  0  0  0
   -0.0696    0.4160    0.0900 S   0  0  0  0  0  6  0  0  0  0  0  0
    0.3070    1.6731   -0.5037 O   0  0  0  0  0  0  0  0  0  0  0  0
    1.0656   -0.6551   -0.2901 O   0  0  0  0  0  0  0  0  0  0  0  0
   -1.3457   -0.1789   -0.6825 O   0  0  0  0  0  0  0  0  0  0  0  0
    5.3387    4.6410   -1.8637 H   0  0  0  0  0  0  0  0  0  0  0  0
    3.8996    4.5127   -0.8281 H   0  0  0  0  0  0  0  0  0  0  0  0
    5.0588    5.8153   -0.5735 H   0  0  0  0  0  0  0  0  0  0  0  0
    5.3164    4.0344    1.1436 H   0  0  0  0  0  0  0  0  0  0  0  0
    6.7684    4.3139    0.1851 H   0  0  0  0  0  0  0  0  0  0  0  0
    5.8703    2.4072   -2.1817 H   0  0  0  0  0  0  0  0  0  0  0  0
    3.8440    2.3163   -1.0524 H   0  0  0  0  0  0  0  0  0  0  0  0
    4.5957    0.7776   -0.8855 H   0  0  0  0  0  0  0  0  0  0  0  0
    3.3534    2.5368    1.2351 H   0  0  0  0  0  0  0  0  0  0  0  0
    4.9259    2.1083    2.6684 H   0  0  0  0  0  0  0  0  0  0  0  0
    4.2769    0.5424    2.8824 H   0  0  0  0  0  0  0  0  0  0  0  0
    6.8931   -1.1806    1.3947 H   0  0  0  0  0  0  0  0  0  0  0  0
    6.2198   -0.5539   -0.0754 H   0  0  0  0  0  0  0  0  0  0  0  0
    4.1333   -1.3451    1.9657 H   0  0  0  0  0  0  0  0  0  0  0  0
    5.2163   -2.5952    1.5337 H   0  0  0  0  0  0  0  0  0  0  0  0
    1.9862   -1.6557   -2.5154 H   0  0  0  0  0  0  0  0  0  0  0  0
    3.1264   -3.6536   -4.1044 H   0  0  0  0  0  0  0  0  0  0  0  0
    5.0546   -5.2291   -4.1428 H   0  0  0  0  0  0  0  0  0  0  0  0
    6.6464   -5.3073   -2.2533 H   0  0  0  0  0  0  0  0  0  0  0  0
    6.3512   -3.8182   -0.2986 H   0  0  0  0  0  0  0  0  0  0  0  0
    1.8443    3.1497   -2.6048 H   0  0  0  0  0  0  0  0  0  0  0  0
    0.6497    3.8899   -1.5204 H   0  0  0  0  0  0  0  0  0  0  0  0
    0.1330    2.5815   -2.6021 H   0  0  0  0  0  0  0  0  0  0  0  0
   -0.6043    0.1973   -1.3086 H   0  0  0  0  0  0  0  0  0  0  0  0
   -0.8460   -3.1995    2.3004 H   0  0  0  0  0  0  0  0  0  0  0  0
    1.3738   -4.2984    1.6322 H   0  0  0  0  0  0  0  0  0  0  0  0
    2.7494   -3.7639    2.6074 H   0  0  0  0  0  0  0  0  0  0  0  0
    1.1290   -3.6314    3.2951 H   0  0  0  0  0  0  0  0  0  0  0  0
   -2.8069   -4.5480    1.5700 H   0  0  0  0  0  0  0  0  0  0  0  0
   -3.0723   -4.2611   -0.1682 H   0  0  0  0  0  0  0  0  0  0  0  0
   -4.4329   -4.2348    0.9704 H   0  0  0  0  0  0  0  0  0  0  0  0
   -4.8761   -2.1556   -0.1804 H   0  0  0  0  0  0  0  0  0  0  0  0
   -6.5511   -1.5126    1.3493 H   0  0  0  0  0  0  0  0  0  0  0  0
   -4.4918   -2.9916    4.5751 H   0  0  0  0  0  0  0  0  0  0  0  0
   -6.0100   -2.1123    4.9832 H   0  0  0  0  0  0  0  0  0  0  0  0
   -6.0680   -3.7210    4.2354 H   0  0  0  0  0  0  0  0  0  0  0  0
   -3.1868    0.7885    1.5232 H   0  0  0  0  0  0  0  0  0  0  0  0
   -4.4686    3.2630    5.0295 H   0  0  0  0  0  0  0  0  0  0  0  0
   -5.5775    3.8159    3.7474 H   0  0  0  0  0  0  0  0  0  0  0  0
   -5.8146    2.2230    4.5445 H   0  0  0  0  0  0  0  0  0  0  0  0
   -2.8543    2.9060    0.4329 H   0  0  0  0  0  0  0  0  0  0  0  0
   -3.4119    3.1416   -1.2027 H   0  0  0  0  0  0  0  0  0  0  0  0
   -4.0383    4.9669    0.3749 H   0  0  0  0  0  0  0  0  0  0  0  0
   -5.1813    3.8862    1.1716 H   0  0  0  0  0  0  0  0  0  0  0  0
   -5.3880    4.2964   -0.5330 H   0  0  0  0  0  0  0  0  0  0  0  0
   -6.6003    1.7443    0.1091 H   0  0  0  0  0  0  0  0  0  0  0  0
   -7.1756    1.6759   -2.2477 H   0  0  0  0  0  0  0  0  0  0  0  0
   -5.5631    1.0120   -3.9111 H   0  0  0  0  0  0  0  0  0  0  0  0
   -4.6756    2.3426   -3.2133 H   0  0  0  0  0  0  0  0  0  0  0  0
   -4.3365   -1.1852   -3.9007 H   0  0  0  0  0  0  0  0  0  0  0  0
   -5.3414   -1.2196   -2.4308 H   0  0  0  0  0  0  0  0  0  0  0  0
   -3.4860   -2.7300   -1.9649 H   0  0  0  0  0  0  0  0  0  0  0  0
   -2.3205   -1.5928   -2.6481 H   0  0  0  0  0  0  0  0  0  0  0  0
   -2.5862    1.0963   -1.2989 H   0  0  0  0  0  0  0  0  0  0  0  0
    2.5196   -0.0204    1.9134 H   0  0  0  0  0  0  0  0  0  0  0  0
    1.6311    1.2993    1.3306 H   0  0  0  0  0  0  0  0  0  0  0  0
    7.6039    1.2064    0.3947 H   0  0  0  0  0  0  0  0  0  0  0  0
    7.1265    2.3889    1.5638 H   0  0  0  0  0  0  0  0  0  0  0  0
    1.8696   -0.4369    0.2274 H   0  0  0  0  0  0  0  0  0  0  0  0
   -1.5150   -1.0802   -0.3446 H   0  0  0  0  0  0  0  0  0  0  0  0
  1  2  1  0
  2  3  1  0
  3  4  1  6
  3  5  1  0
  5  6  1  0
  6  7  1  0
  7  8  1  0
  8  9  1  0
  9 10  1  0
 10 11  1  0
 11 12  2  0
 12 13  1  0
 13 14  1  0
 14 15  2  0
 15 16  1  0
 16 17  2  0
 17 18  1  0
 18 19  2  0
 12 20  1  0
 20 21  1  6
 21 22  2  0
 21 23  1  0
 23 24  1  0
 20 25  1  0
 25 26  2  0
 26 27  1  0
 27 28  2  0
 28 29  1  0
 29 30  2  0
 30 31  1  0
 31 32  1  0
 28 33  1  0
 33 34  1  0
 33 35  1  0
 35 36  1  0
 36 37  1  6
 36 38  1  0
 38 39  2  0
 38 40  1  0
 40 41  1  0
 36 42  1  0
 42 43  1  0
 43 44  1  0
 44 45  1  0
 44 46  2  0
 42 47  1  0
 47 48  1  1
 48 49  1  0
 47 50  1  0
 50 51  2  0
 51 52  1  0
 52 53  1  0
 53 54  1  0
 54 55  1  0
 56 55  1  6
 56 57  1  0
 20 58  1  0
  8 59  1  0
 60 61  2  0
 61 62  2  0
 61 63  1  0
 61 64  1  0
 59  3  1  0
 58  6  1  0
 19 11  1  0
 30 25  1  0
 56 35  1  0
 19 14  1  0
 56 27  1  0
 57 47  1  0
 57 53  1  0
  1 65  1  0
  1 66  1  0
  1 67  1  0
  2 68  1  0
  2 69  1  0
  4 70  1  0
  5 71  1  0
  5 72  1  0
  6 73  1  1
  7 74  1  0
  7 75  1  0
  9 76  1  0
  9 77  1  0
 10 78  1  0
 10 79  1  0
 13 80  1  0
 15 81  1  0
 16 82  1  0
 17 83  1  0
 18 84  1  0
 24 85  1  0
 24 86  1  0
 24 87  1  0
 26 88  1  0
 29 89  1  0
 32 90  1  0
 32 91  1  0
 32 92  1  0
 34 93  1  0
 34 94  1  0
 34 95  1  0
 35 96  1  6
 37 97  1  0
 41 98  1  0
 41 99  1  0
 41100  1  0
 42101  1  1
 45102  1  0
 45103  1  0
 45104  1  0
 48105  1  0
 48106  1  0
 49107  1  0
 49108  1  0
 49109  1  0
 50110  1  0
 51111  1  0
 52112  1  0
 52113  1  0
 54114  1  0
 54115  1  0
 55116  1  0
 55117  1  0
 57118  1  6
 58119  1  0
 58120  1  0
 59121  1  0
 59122  1  0
 63123  1  0
 64124  1  0
M  END
$$$$
