
     RDKit          3D

 89 95  0  0  0  0  0  0  0  0999 V2000
    5.2824   -1.4464    2.9153 C   0  0  0  0  0  0  0  0  0  0  0  0
    4.5620   -0.3316    2.2884 N   0  0  0  0  0  0  0  0  0  0  0  0
    3.1188   -0.4642    2.5664 C   0  0  0  0  0  0  0  0  0  0  0  0
    2.3277    0.7291    2.0310 C   0  0  2  0  0  0  0  0  0  0  0  0
    0.8517    0.5795    2.3691 C   0  0  0  0  0  0  0  0  0  0  0  0
    0.3097    1.3136    3.1879 O   0  0  0  0  0  0  0  0  0  0  0  0
    0.1914   -0.4356    1.7210 N   0  0  0  0  0  0  0  0  0  0  0  0
   -1.2199   -0.6915    1.8709 C   0  0  2  0  0  0  0  0  0  0  0  0
   -1.6768   -0.9395    3.3041 C   0  0  0  0  0  0  0  0  0  0  0  0
   -1.4331   -1.9079    1.1299 O   0  0  0  0  0  0  0  0  0  0  0  0
   -2.4611   -1.6967    0.1738 C   0  0  1  0  0  0  0  0  0  0  0  0
   -1.9990   -2.1059   -1.0917 O   0  0  0  0  0  0  0  0  0  0  0  0
   -3.7652   -2.4153    0.5733 C   0  0  2  0  0  0  0  0  0  0  0  0
   -3.7466   -3.9406    0.4600 C   0  0  0  0  0  0  0  0  0  0  0  0
   -5.2355   -4.2724    0.3304 C   0  0  0  0  0  0  0  0  0  0  0  0
   -5.7631   -3.1570   -0.5637 C   0  0  0  0  0  0  0  0  0  0  0  0
   -4.8939   -2.0307   -0.2754 N   0  0  0  0  0  0  0  0  0  0  0  0
   -4.9766   -0.8232   -0.9424 C   0  0  0  0  0  0  0  0  0  0  0  0
   -5.9146   -0.5810   -1.7069 O   0  0  0  0  0  0  0  0  0  0  0  0
   -3.8725    0.2338   -0.6095 C   0  0  2  0  0  0  0  0  0  0  0  0
   -3.4264    0.9725   -1.8858 C   0  0  0  0  0  0  0  0  0  0  0  0
   -4.1927    2.2491   -2.1386 C   0  0  0  0  0  0  0  0  0  0  0  0
   -3.8764    3.4184   -1.4331 C   0  0  0  0  0  0  0  0  0  0  0  0
   -4.5784    4.6001   -1.6771 C   0  0  0  0  0  0  0  0  0  0  0  0
   -5.6015    4.6230   -2.6220 C   0  0  0  0  0  0  0  0  0  0  0  0
   -5.9280    3.4636   -3.3256 C   0  0  0  0  0  0  0  0  0  0  0  0
   -5.2278    2.2812   -3.0829 C   0  0  0  0  0  0  0  0  0  0  0  0
   -2.6864   -0.3031    0.0863 N   0  0  0  0  0  0  0  0  0  0  0  0
   -2.0972    0.3451    1.1494 C   0  0  0  0  0  0  0  0  0  0  0  0
   -2.2452    1.5267    1.4183 O   0  0  0  0  0  0  0  0  0  0  0  0
    2.5493    0.9307    0.5305 C   0  0  0  0  0  0  0  0  0  0  0  0
    4.0465    1.0322    0.2133 C   0  0  2  0  0  0  0  0  0  0  0  0
    4.3229    1.1725   -1.2764 C   0  0  0  0  0  0  0  0  0  0  0  0
    3.5166    1.8058   -2.2311 C   0  0  0  0  0  0  0  0  0  0  0  0
    3.9183    1.8939   -3.5732 C   0  0  0  0  0  0  0  0  0  0  0  0
    5.1491    1.3793   -4.0167 C   0  0  0  0  0  0  0  0  0  0  0  0
    5.9567    0.7771   -3.0524 C   0  0  0  0  0  0  0  0  0  0  0  0
    7.2052    0.1968   -3.1097 N   0  0  0  0  0  0  0  0  0  0  0  0
    7.5785   -0.2586   -1.8617 C   0  0  0  0  0  0  0  0  0  0  0  0
    6.5570    0.0365   -0.9898 C   0  0  0  0  0  0  0  0  0  0  0  0
    5.5531    0.6830   -1.7363 C   0  0  0  0  0  0  0  0  0  0  0  0
    6.3579   -0.1894    0.4719 C   0  0  0  0  0  0  0  0  0  0  0  0
    4.8191   -0.2251    0.8242 C   0  0  1  0  0  0  0  0  0  0  0  0
    0.9921   -0.2758   -0.5190 C   0  0  0  0  0  0  0  0  0  0  0  0
   -0.5605   -0.2671    0.3498 S   0  0  0  0  0  6  0  0  0  0  0  0
   -0.3182   -0.2683    1.7742 O   0  0  0  0  0  0  0  0  0  0  0  0
   -1.4847   -1.1778   -0.2793 O   0  0  0  0  0  0  0  0  0  0  0  0
   -1.0214    1.2362   -0.0205 O   0  0  0  0  0  0  0  0  0  0  0  0
    6.3653   -1.3001    2.8661 H   0  0  0  0  0  0  0  0  0  0  0  0
    5.0458   -1.5017    3.9819 H   0  0  0  0  0  0  0  0  0  0  0  0
    5.0339   -2.4081    2.4583 H   0  0  0  0  0  0  0  0  0  0  0  0
    2.7375   -1.4050    2.1462 H   0  0  0  0  0  0  0  0  0  0  0  0
    2.9565   -0.5226    3.6508 H   0  0  0  0  0  0  0  0  0  0  0  0
    2.6735    1.6363    2.5473 H   0  0  0  0  0  0  0  0  0  0  0  0
    0.6740   -1.0439    1.0814 H   0  0  0  0  0  0  0  0  0  0  0  0
   -2.7333   -1.2237    3.3380 H   0  0  0  0  0  0  0  0  0  0  0  0
   -1.1129   -1.7657    3.7533 H   0  0  0  0  0  0  0  0  0  0  0  0
   -1.5604   -0.0605    3.9456 H   0  0  0  0  0  0  0  0  0  0  0  0
   -1.5281   -1.3254   -1.4297 H   0  0  0  0  0  0  0  0  0  0  0  0
   -4.0489   -2.1364    1.5977 H   0  0  0  0  0  0  0  0  0  0  0  0
   -3.2214   -4.2704   -0.4455 H   0  0  0  0  0  0  0  0  0  0  0  0
   -3.2806   -4.4243    1.3228 H   0  0  0  0  0  0  0  0  0  0  0  0
   -5.4207   -5.2660   -0.0866 H   0  0  0  0  0  0  0  0  0  0  0  0
   -5.7102   -4.2203    1.3187 H   0  0  0  0  0  0  0  0  0  0  0  0
   -6.8077   -2.8981   -0.3552 H   0  0  0  0  0  0  0  0  0  0  0  0
   -5.6605   -3.4080   -1.6256 H   0  0  0  0  0  0  0  0  0  0  0  0
   -4.3494    0.9354    0.0871 H   0  0  0  0  0  0  0  0  0  0  0  0
   -2.3637    1.2470   -1.8189 H   0  0  0  0  0  0  0  0  0  0  0  0
   -3.5002    0.3147   -2.7657 H   0  0  0  0  0  0  0  0  0  0  0  0
   -3.0822    3.4155   -0.6884 H   0  0  0  0  0  0  0  0  0  0  0  0
   -4.3248    5.5038   -1.1326 H   0  0  0  0  0  0  0  0  0  0  0  0
   -6.1464    5.5428   -2.8147 H   0  0  0  0  0  0  0  0  0  0  0  0
   -6.7317    3.4781   -4.0585 H   0  0  0  0  0  0  0  0  0  0  0  0
   -5.4950    1.3805   -3.6347 H   0  0  0  0  0  0  0  0  0  0  0  0
    2.1132    0.1067   -0.0471 H   0  0  0  0  0  0  0  0  0  0  0  0
    2.0192    1.8402    0.2168 H   0  0  0  0  0  0  0  0  0  0  0  0
    4.4380    1.9386    0.6969 H   0  0  0  0  0  0  0  0  0  0  0  0
    2.5637    2.2476   -1.9480 H   0  0  0  0  0  0  0  0  0  0  0  0
    3.2598    2.3798   -4.2920 H   0  0  0  0  0  0  0  0  0  0  0  0
    5.4508    1.4584   -5.0537 H   0  0  0  0  0  0  0  0  0  0  0  0
    7.7654    0.1219   -3.9484 H   0  0  0  0  0  0  0  0  0  0  0  0
    8.5322   -0.7429   -1.7144 H   0  0  0  0  0  0  0  0  0  0  0  0
    6.8526    0.6129    1.0350 H   0  0  0  0  0  0  0  0  0  0  0  0
    6.8318   -1.1392    0.7457 H   0  0  0  0  0  0  0  0  0  0  0  0
    4.4087   -1.1254    0.3373 H   0  0  0  0  0  0  0  0  0  0  0  0
    1.6412    0.4903   -0.0888 H   0  0  0  0  0  0  0  0  0  0  0  0
    1.4400   -1.2644   -0.3953 H   0  0  0  0  0  0  0  0  0  0  0  0
    0.8073   -0.0793   -1.5764 H   0  0  0  0  0  0  0  0  0  0  0  0
   -1.4956    1.6062    0.7552 H   0  0  0  0  0  0  0  0  0  0  0  0
  1  2  1  0
  2  3  1  0
  3  4  1  0
  4  5  1  0
  5  6  2  0
  5  7  1  0
  8  7  1  1
  8  9  1  0
  8 10  1  0
 10 11  1  0
 11 12  1  6
 11 13  1  0
 13 14  1  0
 14 15  1  0
 15 16  1  0
 16 17  1  0
 17 18  1  0
 18 19  2  0
 18 20  1  0
 20 21  1  0
 21 22  1  0
 22 23  2  0
 23 24  1  0
 24 25  2  0
 25 26  1  0
 26 27  2  0
 20 28  1  0
 28 29  1  0
 29 30  2  0
  4 31  1  0
 31 32  1  0
 32 33  1  0
 33 34  2  0
 34 35  1  0
 35 36  2  0
 36 37  1  0
 37 38  1  0
 38 39  1  0
 39 40  2  0
 40 41  1  0
 40 42  1  0
 42 43  1  0
 44 45  1  0
 45 46  2  0
 45 47  2  0
 45 48  1  0
 43  2  1  0
 29  8  1  0
 43 32  1  0
 28 11  1  0
 41 33  1  0
 17 13  1  0
 27 22  1  0
 41 37  2  0
  1 49  1  0
  1 50  1  0
  1 51  1  0
  3 52  1  0
  3 53  1  0
  4 54  1  1
  7 55  1  0
  9 56  1  0
  9 57  1  0
  9 58  1  0
 12 59  1  0
 13 60  1  1
 14 61  1  0
 14 62  1  0
 15 63  1  0
 15 64  1  0
 16 65  1  0
 16 66  1  0
 20 67  1  1
 21 68  1  0
 21 69  1  0
 23 70  1  0
 24 71  1  0
 25 72  1  0
 26 73  1  0
 27 74  1  0
 31 75  1  0
 31 76  1  0
 32 77  1  1
 34 78  1  0
 35 79  1  0
 36 80  1  0
 38 81  1  0
 39 82  1  0
 42 83  1  0
 42 84  1  0
 43 85  1  6
 44 86  1  0
 44 87  1  0
 44 88  1  0
 48 89  1  0
M  END
$$$$
