
     RDKit          3D

 85 89  0  0  0  0  0  0  0  0999 V2000
    8.2431   -1.8952    1.1399 C   0  0  0  0  0  0  0  0  0  0  0  0
    7.3291   -2.6807    0.3159 N   0  0  0  0  0  0  0  0  0  0  0  0
    7.4777   -2.3250   -1.1128 C   0  0  0  0  0  0  0  0  0  0  0  0
    6.2094   -2.5690   -1.9473 C   0  0  0  0  0  0  0  0  0  0  0  0
    5.0800   -1.7884   -1.4386 N   0  0  0  0  0  0  0  0  0  0  0  0
    4.0233   -1.5176   -2.3000 C   0  0  0  0  0  0  0  0  0  0  0  0
    3.9511   -1.9641   -3.4421 O   0  0  0  0  0  0  0  0  0  0  0  0
    2.9190   -0.6538   -1.8230 C   0  0  0  0  0  0  0  0  0  0  0  0
    3.1736    0.6169   -1.3037 C   0  0  0  0  0  0  0  0  0  0  0  0
    2.1131    1.4052   -0.8507 C   0  0  0  0  0  0  0  0  0  0  0  0
    0.7870    0.9355   -0.9168 C   0  0  0  0  0  0  0  0  0  0  0  0
   -0.2660    1.7671   -0.4129 N   0  0  0  0  0  0  0  0  0  0  0  0
    0.0069    3.0759   -0.1576 N   0  0  0  0  0  0  0  0  0  0  0  0
   -1.1594    3.6517    0.1560 C   0  0  0  0  0  0  0  0  0  0  0  0
   -1.2482    5.0853    0.4656 C   0  0  0  0  0  0  0  0  0  0  0  0
   -0.0897    5.8790    0.4905 C   0  0  0  0  0  0  0  0  0  0  0  0
   -0.1543    7.2404    0.8070 C   0  0  0  0  0  0  0  0  0  0  0  0
   -1.3842    7.8342    1.1045 C   0  0  0  0  0  0  0  0  0  0  0  0
   -1.4070    9.2759    1.4489 C   0  0  0  0  0  0  0  0  0  0  0  0
   -0.4423   10.0165    1.4895 O   0  0  0  0  0  0  0  0  0  0  0  0
   -2.6413    9.7247    1.7372 O   0  0  0  0  0  0  0  0  0  0  0  0
   -2.5474    7.0578    1.0749 C   0  0  0  0  0  0  0  0  0  0  0  0
   -2.4785    5.6950    0.7580 C   0  0  0  0  0  0  0  0  0  0  0  0
   -2.1858    2.6825    0.1791 C   0  0  0  0  0  0  0  0  0  0  0  0
   -1.5927    1.4670   -0.1097 C   0  0  0  0  0  0  0  0  0  0  0  0
   -2.2077    0.1456   -0.0055 C   0  0  0  0  0  0  0  0  0  0  0  0
   -3.3465   -0.1644   -0.7555 C   0  0  0  0  0  0  0  0  0  0  0  0
   -3.9731   -1.4204   -0.6576 C   0  0  0  0  0  0  0  0  0  0  0  0
   -5.2335   -1.7166   -1.4934 C   0  0  0  0  0  0  0  0  0  0  0  0
   -6.3522   -0.7263   -1.1022 C   0  0  0  0  0  0  0  0  0  0  0  0
   -4.9152   -1.5570   -2.9963 C   0  0  0  0  0  0  0  0  0  0  0  0
   -5.7989   -3.1413   -1.2993 C   0  0  0  0  0  0  0  0  0  0  0  0
   -3.4093   -2.3609    0.2281 C   0  0  0  0  0  0  0  0  0  0  0  0
   -2.2708   -2.0821    1.0098 C   0  0  0  0  0  0  0  0  0  0  0  0
   -1.6504   -3.1084    1.9763 C   0  0  0  0  0  0  0  0  0  0  0  0
   -0.1896   -3.3909    1.5588 C   0  0  0  0  0  0  0  0  0  0  0  0
   -1.6698   -2.5453    3.4145 C   0  0  0  0  0  0  0  0  0  0  0  0
   -2.3858   -4.4674    2.0109 C   0  0  0  0  0  0  0  0  0  0  0  0
   -1.6952   -0.8057    0.8826 C   0  0  0  0  0  0  0  0  0  0  0  0
    0.5413   -0.3142   -1.5017 C   0  0  0  0  0  0  0  0  0  0  0  0
    1.6042   -1.1074   -1.9493 C   0  0  0  0  0  0  0  0  0  0  0  0
    5.0630   -1.5569    0.0116 C   0  0  0  0  0  0  0  0  0  0  0  0
    5.9325   -2.5715    0.7798 C   0  0  0  0  0  0  0  0  0  0  0  0
    9.2757   -2.0160    0.7944 H   0  0  0  0  0  0  0  0  0  0  0  0
    7.9952   -0.8277    1.1279 H   0  0  0  0  0  0  0  0  0  0  0  0
    8.2189   -2.2420    2.1792 H   0  0  0  0  0  0  0  0  0  0  0  0
    8.3068   -2.9039   -1.5343 H   0  0  0  0  0  0  0  0  0  0  0  0
    7.7390   -1.2623   -1.2131 H   0  0  0  0  0  0  0  0  0  0  0  0
    5.9231   -3.6277   -1.9155 H   0  0  0  0  0  0  0  0  0  0  0  0
    6.3936   -2.3088   -2.9957 H   0  0  0  0  0  0  0  0  0  0  0  0
    4.1888    1.0021   -1.2569 H   0  0  0  0  0  0  0  0  0  0  0  0
    2.3383    2.3865   -0.4333 H   0  0  0  0  0  0  0  0  0  0  0  0
    0.8809    5.4383    0.2665 H   0  0  0  0  0  0  0  0  0  0  0  0
    0.7612    7.8294    0.8240 H   0  0  0  0  0  0  0  0  0  0  0  0
   -2.4992   10.6695    1.9545 H   0  0  0  0  0  0  0  0  0  0  0  0
   -3.5149    7.5009    1.3005 H   0  0  0  0  0  0  0  0  0  0  0  0
   -3.4041    5.1257    0.7478 H   0  0  0  0  0  0  0  0  0  0  0  0
   -3.2236    2.8205    0.4509 H   0  0  0  0  0  0  0  0  0  0  0  0
   -3.7463    0.5906   -1.4303 H   0  0  0  0  0  0  0  0  0  0  0  0
   -6.5860   -0.7969   -0.0339 H   0  0  0  0  0  0  0  0  0  0  0  0
   -6.0767    0.3135   -1.3092 H   0  0  0  0  0  0  0  0  0  0  0  0
   -7.2739   -0.9302   -1.6598 H   0  0  0  0  0  0  0  0  0  0  0  0
   -4.1052   -2.2297   -3.3015 H   0  0  0  0  0  0  0  0  0  0  0  0
   -5.7920   -1.7898   -3.6123 H   0  0  0  0  0  0  0  0  0  0  0  0
   -4.6106   -0.5366   -3.2518 H   0  0  0  0  0  0  0  0  0  0  0  0
   -6.6937   -3.2990   -1.9141 H   0  0  0  0  0  0  0  0  0  0  0  0
   -6.0898   -3.3231   -0.2573 H   0  0  0  0  0  0  0  0  0  0  0  0
   -5.0694   -3.9067   -1.5894 H   0  0  0  0  0  0  0  0  0  0  0  0
   -3.8739   -3.3368    0.3159 H   0  0  0  0  0  0  0  0  0  0  0  0
    0.4404   -2.4962    1.6213 H   0  0  0  0  0  0  0  0  0  0  0  0
   -0.1385   -3.7576    0.5266 H   0  0  0  0  0  0  0  0  0  0  0  0
    0.2680   -4.1489    2.2063 H   0  0  0  0  0  0  0  0  0  0  0  0
   -1.2657   -3.2716    4.1297 H   0  0  0  0  0  0  0  0  0  0  0  0
   -2.6924   -2.3020    3.7289 H   0  0  0  0  0  0  0  0  0  0  0  0
   -1.0715   -1.6331    3.5122 H   0  0  0  0  0  0  0  0  0  0  0  0
   -3.4259   -4.3556    2.3400 H   0  0  0  0  0  0  0  0  0  0  0  0
   -1.9013   -5.1632    2.7063 H   0  0  0  0  0  0  0  0  0  0  0  0
   -2.3897   -4.9493    1.0264 H   0  0  0  0  0  0  0  0  0  0  0  0
   -0.8244   -0.5448    1.4818 H   0  0  0  0  0  0  0  0  0  0  0  0
   -0.4630   -0.6928   -1.6654 H   0  0  0  0  0  0  0  0  0  0  0  0
    1.4053   -2.0747   -2.4079 H   0  0  0  0  0  0  0  0  0  0  0  0
    5.4410   -0.5428    0.1842 H   0  0  0  0  0  0  0  0  0  0  0  0
    4.0341   -1.6086    0.3823 H   0  0  0  0  0  0  0  0  0  0  0  0
    5.8833   -2.3601    1.8548 H   0  0  0  0  0  0  0  0  0  0  0  0
    5.4785   -3.5642    0.6558 H   0  0  0  0  0  0  0  0  0  0  0  0
  1  2  1  0
  2  3  1  0
  3  4  1  0
  4  5  1  0
  5  6  1  0
  6  7  2  0
  6  8  1  0
  8  9  2  0
  9 10  1  0
 10 11  2  0
 11 12  1  0
 12 13  1  0
 13 14  2  0
 14 15  1  0
 15 16  2  0
 16 17  1  0
 17 18  2  0
 18 19  1  0
 19 20  2  0
 19 21  1  0
 18 22  1  0
 22 23  2  0
 14 24  1  0
 24 25  2  0
 25 26  1  0
 26 27  2  0
 27 28  1  0
 28 29  1  0
 29 30  1  0
 29 31  1  0
 29 32  1  0
 28 33  2  0
 33 34  1  0
 34 35  1  0
 35 36  1  0
 35 37  1  0
 35 38  1  0
 34 39  2  0
 11 40  1  0
 40 41  2  0
  5 42  1  0
 42 43  1  0
 43  2  1  0
 41  8  1  0
 25 12  1  0
 39 26  1  0
 23 15  1  0
  1 44  1  0
  1 45  1  0
  1 46  1  0
  3 47  1  0
  3 48  1  0
  4 49  1  0
  4 50  1  0
  9 51  1  0
 10 52  1  0
 16 53  1  0
 17 54  1  0
 21 55  1  0
 22 56  1  0
 23 57  1  0
 24 58  1  0
 27 59  1  0
 30 60  1  0
 30 61  1  0
 30 62  1  0
 31 63  1  0
 31 64  1  0
 31 65  1  0
 32 66  1  0
 32 67  1  0
 32 68  1  0
 33 69  1  0
 36 70  1  0
 36 71  1  0
 36 72  1  0
 37 73  1  0
 37 74  1  0
 37 75  1  0
 38 76  1  0
 38 77  1  0
 38 78  1  0
 39 79  1  0
 40 80  1  0
 41 81  1  0
 42 82  1  0
 42 83  1  0
 43 84  1  0
 43 85  1  0
M  END
$$$$
