
     RDKit          3D

 27 28  0  0  0  0  0  0  0  0999 V2000
   -3.0641    3.6800    0.5038 O   0  0  0  0  0  0  0  0  0  0  0  0
   -2.6221    2.7400   -0.1705 N   0  0  0  0  0  4  0  0  0  0  0  0
   -3.0718    2.4538   -1.2939 O   0  0  0  0  0  1  0  0  0  0  0  0
   -1.5946    2.0399    0.3335 N   0  0  0  0  0  0  0  0  0  0  0  0
   -1.7451    0.7605    0.3747 C   0  0  0  0  0  0  0  0  0  0  0  0
   -2.7917   -0.0374   -0.0491 N   0  0  0  0  0  0  0  0  0  0  0  0
   -2.4305   -1.4455   -0.1088 C   0  0  0  0  0  0  0  0  0  0  0  0
   -1.2245   -1.5107    0.8346 C   0  0  0  0  0  0  0  0  0  0  0  0
   -0.7975   -0.1170    0.8708 N   0  0  0  0  0  0  0  0  0  0  0  0
    0.3905    0.2663    1.6023 C   0  0  0  0  0  0  0  0  0  0  0  0
    1.6262   -0.0318    0.7964 C   0  0  0  0  0  0  0  0  0  0  0  0
    1.8965    0.6377   -0.4027 C   0  0  0  0  0  0  0  0  0  0  0  0
    3.0483    0.3305   -1.1217 C   0  0  0  0  0  0  0  0  0  0  0  0
    3.8897   -0.6408   -0.6094 C   0  0  0  0  0  0  0  0  0  0  0  0
    5.3264   -1.0846   -1.4333 Cl  0  0  0  0  0  0  0  0  0  0  0  0
    3.6707   -1.3104    0.5407 N   0  0  0  0  0  0  0  0  0  0  0  0
    2.5464   -0.9876    1.2172 C   0  0  0  0  0  0  0  0  0  0  0  0
   -3.3748    0.3306   -0.7981 H   0  0  0  0  0  0  0  0  0  0  0  0
   -3.2486   -2.0943    0.2148 H   0  0  0  0  0  0  0  0  0  0  0  0
   -2.1399   -1.7099   -1.1311 H   0  0  0  0  0  0  0  0  0  0  0  0
   -0.4513   -2.1849    0.4546 H   0  0  0  0  0  0  0  0  0  0  0  0
   -1.5306   -1.8360    1.8349 H   0  0  0  0  0  0  0  0  0  0  0  0
    0.3858    1.3333    1.8563 H   0  0  0  0  0  0  0  0  0  0  0  0
    0.4185   -0.2664    2.5609 H   0  0  0  0  0  0  0  0  0  0  0  0
    1.2091    1.3934   -0.7777 H   0  0  0  0  0  0  0  0  0  0  0  0
    3.2755    0.8361   -2.0530 H   0  0  0  0  0  0  0  0  0  0  0  0
    2.4036   -1.5447    2.1399 H   0  0  0  0  0  0  0  0  0  0  0  0
  1  2  2  0
  2  3  1  0
  2  4  1  0
  4  5  2  0
  5  6  1  0
  6  7  1  0
  7  8  1  0
  8  9  1  0
  9 10  1  0
 10 11  1  0
 11 12  2  0
 12 13  1  0
 13 14  2  0
 14 15  1  0
 14 16  1  0
 16 17  2  0
  9  5  1  0
 17 11  1  0
  6 18  1  0
  7 19  1  0
  7 20  1  0
  8 21  1  0
  8 22  1  0
 10 23  1  0
 10 24  1  0
 12 25  1  0
 13 26  1  0
 17 27  1  0
M  CHG  2   2   1   3  -1
M  END
$$$$
