
     RDKit          3D

 42 45  0  0  0  0  0  0  0  0999 V2000
   -1.5710   -2.1434   -2.2891 C   0  0  0  0  0  0  0  0  0  0  0  0
   -1.7897   -1.5704   -0.8897 C   0  0  2  0  0  0  0  0  0  0  0  0
   -2.8832   -0.4921   -0.9149 C   0  0  0  0  0  0  0  0  0  0  0  0
   -3.0273    0.2434    0.3565 N   0  0  0  0  0  0  0  0  0  0  0  0
   -4.3246    0.7743    0.7050 C   0  0  0  0  0  0  0  0  0  0  0  0
   -4.6441    1.0857    2.0325 C   0  0  0  0  0  0  0  0  0  0  0  0
   -5.9088    1.5733    2.3656 C   0  0  0  0  0  0  0  0  0  0  0  0
   -6.8403    1.7345    1.3576 C   0  0  0  0  0  0  0  0  0  0  0  0
   -6.5933    1.4471    0.0663 N   0  0  0  0  0  0  0  0  0  0  0  0
   -5.3538    0.9838   -0.2271 C   0  0  0  0  0  0  0  0  0  0  0  0
   -5.1242    0.7652   -1.5328 F   0  0  0  0  0  0  0  0  0  0  0  0
   -1.8656    0.6549    1.0480 C   0  0  0  0  0  0  0  0  0  0  0  0
   -1.8559    1.4830    1.9537 O   0  0  0  0  0  0  0  0  0  0  0  0
   -0.6441    0.0306    0.6028 C   0  0  0  0  0  0  0  0  0  0  0  0
    0.6697    0.2525    0.9581 C   0  0  0  0  0  0  0  0  0  0  0  0
    1.4278   -0.6878    0.2147 C   0  0  0  0  0  0  0  0  0  0  0  0
    2.9158   -0.8843    0.2353 C   0  0  0  0  0  0  0  0  0  0  0  0
    3.5936    0.3784    0.2145 O   0  0  0  0  0  0  0  0  0  0  0  0
    4.9651    0.2552    0.2531 C   0  0  0  0  0  0  0  0  0  0  0  0
    5.6900    1.4364    0.1809 C   0  0  0  0  0  0  0  0  0  0  0  0
    7.0817    1.3681    0.2216 C   0  0  0  0  0  0  0  0  0  0  0  0
    7.6930    0.1253    0.3340 C   0  0  0  0  0  0  0  0  0  0  0  0
    9.4025   -0.0076    0.3875 Cl  0  0  0  0  0  0  0  0  0  0  0  0
    6.8868   -1.0014    0.4022 C   0  0  0  0  0  0  0  0  0  0  0  0
    5.5316   -0.9654    0.3660 N   0  0  0  0  0  0  0  0  0  0  0  0
    0.6329   -1.4614   -0.5428 N   0  0  0  0  0  0  0  0  0  0  0  0
   -0.5983   -0.9838   -0.3043 N   0  0  0  0  0  0  0  0  0  0  0  0
   -2.5065   -2.5417   -2.6956 H   0  0  0  0  0  0  0  0  0  0  0  0
   -1.1963   -1.3793   -2.9793 H   0  0  0  0  0  0  0  0  0  0  0  0
   -0.8428   -2.9616   -2.2720 H   0  0  0  0  0  0  0  0  0  0  0  0
   -2.0842   -2.3770   -0.2059 H   0  0  0  0  0  0  0  0  0  0  0  0
   -3.8242   -0.9997   -1.1543 H   0  0  0  0  0  0  0  0  0  0  0  0
   -2.6686    0.2538   -1.6916 H   0  0  0  0  0  0  0  0  0  0  0  0
   -3.9310    0.9349    2.8390 H   0  0  0  0  0  0  0  0  0  0  0  0
   -6.1565    1.8159    3.3938 H   0  0  0  0  0  0  0  0  0  0  0  0
   -7.8377    2.1100    1.5696 H   0  0  0  0  0  0  0  0  0  0  0  0
    1.0332    0.9898    1.6615 H   0  0  0  0  0  0  0  0  0  0  0  0
    3.2124   -1.4775   -0.6398 H   0  0  0  0  0  0  0  0  0  0  0  0
    3.1664   -1.4331    1.1527 H   0  0  0  0  0  0  0  0  0  0  0  0
    5.1801    2.3897    0.0936 H   0  0  0  0  0  0  0  0  0  0  0  0
    7.6732    2.2770    0.1656 H   0  0  0  0  0  0  0  0  0  0  0  0
    7.3158   -1.9954    0.4909 H   0  0  0  0  0  0  0  0  0  0  0  0
  1  2  1  0
  2  3  1  0
  3  4  1  0
  4  5  1  0
  5  6  2  0
  6  7  1  0
  7  8  2  0
  8  9  1  0
  9 10  2  0
 10 11  1  0
  4 12  1  0
 12 13  2  0
 12 14  1  0
 14 15  2  0
 15 16  1  0
 16 17  1  0
 17 18  1  0
 18 19  1  0
 19 20  2  0
 20 21  1  0
 21 22  2  0
 22 23  1  0
 22 24  1  0
 24 25  2  0
 16 26  2  0
 26 27  1  0
 27  2  1  0
 10  5  1  0
 27 14  1  0
 25 19  1  0
  1 28  1  0
  1 29  1  0
  1 30  1  0
  2 31  1  1
  3 32  1  0
  3 33  1  0
  6 34  1  0
  7 35  1  0
  8 36  1  0
 15 37  1  0
 17 38  1  0
 17 39  1  0
 20 40  1  0
 21 41  1  0
 24 42  1  0
M  END
$$$$
