
     RDKit          3D

 60 64  0  0  0  0  0  0  0  0999 V2000
    0.0155    4.8097   -2.7329 C   0  0  0  0  0  0  0  0  0  0  0  0
    0.7406    3.6748   -2.0622 C   0  0  0  0  0  0  0  0  0  0  0  0
    2.0844    3.4410   -2.3917 C   0  0  0  0  0  0  0  0  0  0  0  0
    2.7977    2.3895   -1.8099 C   0  0  0  0  0  0  0  0  0  0  0  0
    2.1845    1.5542   -0.8822 C   0  0  0  0  0  0  0  0  0  0  0  0
    2.8263    0.4716   -0.2421 N   0  0  0  0  0  0  0  0  0  0  0  0
    4.1528    0.0826   -0.3546 C   0  0  0  0  0  0  0  0  0  0  0  0
    5.0028    0.6586   -1.0200 O   0  0  0  0  0  0  0  0  0  0  0  0
    4.3865   -1.0590    0.3951 N   0  0  0  0  0  0  0  0  0  0  0  0
    5.6086   -1.7437    0.5756 C   0  0  0  0  0  0  0  0  0  0  0  0
    6.8398   -1.3180    0.0730 C   0  0  0  0  0  0  0  0  0  0  0  0
    8.0112   -2.0676    0.3041 C   0  0  0  0  0  0  0  0  0  0  0  0
    9.3350   -1.5773   -0.2361 C   0  0  0  0  0  0  0  0  0  0  0  0
    9.8327   -0.5345    0.4829 F   0  0  0  0  0  0  0  0  0  0  0  0
    9.2571   -1.1477   -1.5250 F   0  0  0  0  0  0  0  0  0  0  0  0
   10.3053   -2.5347   -0.2235 F   0  0  0  0  0  0  0  0  0  0  0  0
    7.9344   -3.2483    1.0613 C   0  0  0  0  0  0  0  0  0  0  0  0
    6.7101   -3.6789    1.5691 C   0  0  0  0  0  0  0  0  0  0  0  0
    5.5659   -2.9274    1.3231 C   0  0  0  0  0  0  0  0  0  0  0  0
    4.3920   -3.3519    1.8186 F   0  0  0  0  0  0  0  0  0  0  0  0
    0.8414    1.7862   -0.5533 C   0  0  0  0  0  0  0  0  0  0  0  0
    0.1059    2.8426   -1.1199 C   0  0  0  0  0  0  0  0  0  0  0  0
   -1.2525    3.0381   -0.7962 N   0  0  0  0  0  0  0  0  0  0  0  0
   -2.2717    2.1269   -0.4619 C   0  0  0  0  0  0  0  0  0  0  0  0
   -2.2266    0.7691   -0.8492 C   0  0  0  0  0  0  0  0  0  0  0  0
   -3.2267   -0.1421   -0.4782 C   0  0  0  0  0  0  0  0  0  0  0  0
   -4.2746    0.3177    0.2971 C   0  0  0  0  0  0  0  0  0  0  0  0
   -4.3139    1.6559    0.6885 C   0  0  0  0  0  0  0  0  0  0  0  0
   -3.3409    2.5703    0.3302 C   0  0  0  0  0  0  0  0  0  0  0  0
   -5.4398    1.9031    1.4638 N   0  0  0  0  0  0  0  0  0  0  0  0
   -6.2126    0.7612    1.6256 C   0  0  0  0  0  0  0  0  0  0  0  0
   -7.2596    0.7069    2.2382 O   0  0  0  0  0  0  0  0  0  0  0  0
   -5.4713   -0.3224    0.8732 C   0  0  0  0  0  0  0  0  0  0  0  0
   -5.7758   -1.6169    0.6905 C   0  0  0  0  0  0  0  0  0  0  0  0
   -6.8888   -2.2923    1.2465 C   0  0  0  0  0  0  0  0  0  0  0  0
   -7.5768   -2.2442    2.4435 C   0  0  0  0  0  0  0  0  0  0  0  0
   -8.6006   -3.2224    2.4035 C   0  0  0  0  0  0  0  0  0  0  0  0
   -8.5112   -3.8551    1.1864 C   0  0  0  0  0  0  0  0  0  0  0  0
   -7.4707   -3.2902    0.4953 N   0  0  0  0  0  0  0  0  0  0  0  0
   -0.8946    4.4464   -3.2213 H   0  0  0  0  0  0  0  0  0  0  0  0
    0.6322    5.2823   -3.5048 H   0  0  0  0  0  0  0  0  0  0  0  0
   -0.2450    5.5781   -1.9981 H   0  0  0  0  0  0  0  0  0  0  0  0
    2.5929    4.0751   -3.1155 H   0  0  0  0  0  0  0  0  0  0  0  0
    3.8323    2.2544   -2.1089 H   0  0  0  0  0  0  0  0  0  0  0  0
    2.2653   -0.0344    0.4252 H   0  0  0  0  0  0  0  0  0  0  0  0
    3.5868   -1.5107    0.8173 H   0  0  0  0  0  0  0  0  0  0  0  0
    6.9251   -0.4001   -0.5044 H   0  0  0  0  0  0  0  0  0  0  0  0
    8.8309   -3.8356    1.2571 H   0  0  0  0  0  0  0  0  0  0  0  0
    6.6402   -4.5908    2.1541 H   0  0  0  0  0  0  0  0  0  0  0  0
    0.3573    1.1561    0.1882 H   0  0  0  0  0  0  0  0  0  0  0  0
   -1.5568    4.0034   -0.8504 H   0  0  0  0  0  0  0  0  0  0  0  0
   -1.4147    0.4147   -1.4815 H   0  0  0  0  0  0  0  0  0  0  0  0
   -3.1638   -1.1747   -0.8030 H   0  0  0  0  0  0  0  0  0  0  0  0
   -3.3996    3.5993    0.6661 H   0  0  0  0  0  0  0  0  0  0  0  0
   -5.7050    2.7899    1.8633 H   0  0  0  0  0  0  0  0  0  0  0  0
   -5.1192   -2.2178    0.0658 H   0  0  0  0  0  0  0  0  0  0  0  0
   -7.3693   -1.5758    3.2697 H   0  0  0  0  0  0  0  0  0  0  0  0
   -9.3224   -3.4359    3.1809 H   0  0  0  0  0  0  0  0  0  0  0  0
   -9.0980   -4.6527    0.7514 H   0  0  0  0  0  0  0  0  0  0  0  0
   -7.1911   -3.5568   -0.4388 H   0  0  0  0  0  0  0  0  0  0  0  0
  1  2  1  0
  2  3  2  0
  3  4  1  0
  4  5  2  0
  5  6  1  0
  6  7  1  0
  7  8  2  0
  7  9  1  0
  9 10  1  0
 10 11  2  0
 11 12  1  0
 12 13  1  0
 13 14  1  0
 13 15  1  0
 13 16  1  0
 12 17  2  0
 17 18  1  0
 18 19  2  0
 19 20  1  0
  5 21  1  0
 21 22  2  0
 22 23  1  0
 23 24  1  0
 24 25  2  0
 25 26  1  0
 26 27  2  0
 27 28  1  0
 28 29  2  0
 28 30  1  0
 30 31  1  0
 31 32  2  0
 31 33  1  0
 33 34  2  0
 34 35  1  0
 35 36  2  0
 36 37  1  0
 37 38  2  0
 38 39  1  0
 22  2  1  0
 29 24  1  0
 39 35  1  0
 19 10  1  0
 33 27  1  0
  1 40  1  0
  1 41  1  0
  1 42  1  0
  3 43  1  0
  4 44  1  0
  6 45  1  0
  9 46  1  0
 11 47  1  0
 17 48  1  0
 18 49  1  0
 21 50  1  0
 23 51  1  0
 25 52  1  0
 26 53  1  0
 29 54  1  0
 30 55  1  0
 34 56  1  0
 36 57  1  0
 37 58  1  0
 38 59  1  0
 39 60  1  0
M  END
$$$$
