
     RDKit          3D

 75 78  0  0  0  0  0  0  0  0999 V2000
    8.5975    1.6955    0.3553 C   0  0  0  0  0  0  0  0  0  0  0  0
    7.6726    0.6013    0.8574 C   0  0  0  0  0  0  0  0  0  0  0  0
    6.4333    0.5398    0.1043 N   0  0  0  0  0  0  0  0  0  0  0  0
    6.3915   -0.2248   -0.9992 N   0  0  0  0  0  0  0  0  0  0  0  0
    5.1364   -0.0980   -1.4413 C   0  0  0  0  0  0  0  0  0  0  0  0
    4.6946   -0.8357   -2.6514 C   0  0  0  0  0  0  0  0  0  0  0  0
    4.3681    0.7752   -0.6203 C   0  0  0  0  0  0  0  0  0  0  0  0
    2.9394    1.1734   -0.8230 C   0  0  0  0  0  0  0  0  0  0  0  0
    2.0392    0.0160   -0.6606 N   0  0  0  0  0  0  0  0  0  0  0  0
    1.9590   -0.3926    0.7460 C   0  0  0  0  0  0  0  0  0  0  0  0
    0.6998    0.3656   -1.1895 C   0  0  0  0  0  0  0  0  0  0  0  0
   -0.3281   -0.8095   -1.2289 C   0  0  0  0  0  0  0  0  0  0  0  0
   -1.1312   -0.9971    0.0058 N   0  0  0  0  0  0  0  0  0  0  0  0
   -1.7503   -2.3523    0.1304 C   0  0  0  0  0  0  0  0  0  0  0  0
   -0.8963   -3.5477   -0.3430 C   0  0  0  0  0  0  0  0  0  0  0  0
   -1.6456   -4.8739   -0.1807 C   0  0  0  0  0  0  0  0  0  0  0  0
   -2.6692   -4.8275    0.8104 O   0  0  0  0  0  0  0  0  0  0  0  0
   -2.2544   -4.0963    1.9519 C   0  0  0  0  0  0  0  0  0  0  0  0
   -2.1394   -2.6165    1.6048 C   0  0  0  0  0  0  0  0  0  0  0  0
   -2.0735    0.1517    0.1904 C   0  0  0  0  0  0  0  0  0  0  0  0
   -2.0279    0.6642    1.6436 C   0  0  0  0  0  0  0  0  0  0  0  0
   -2.8536    1.9424    1.7878 C   0  0  0  0  0  0  0  0  0  0  0  0
   -4.2866    1.7473    1.3026 C   0  0  0  0  0  0  0  0  0  0  0  0
   -4.3273    1.2049   -0.0541 N   0  0  0  0  0  0  0  0  0  0  0  0
   -5.3172    1.5188   -0.9818 C   0  0  0  0  0  0  0  0  0  0  0  0
   -5.4523    0.9405   -2.0543 O   0  0  0  0  0  0  0  0  0  0  0  0
   -6.2440    2.6347   -0.6378 C   0  0  0  0  0  0  0  0  0  0  0  0
   -7.4316    2.3749    0.2635 C   0  0  0  0  0  0  0  0  0  0  0  0
   -7.6526    2.6592   -1.1900 C   0  0  0  0  0  0  0  0  0  0  0  0
   -3.5404   -0.0111   -0.2813 C   0  0  0  0  0  0  0  0  0  0  0  0
    5.2476    1.1756    0.3763 C   0  0  0  0  0  0  0  0  0  0  0  0
    5.0602    2.0759    1.5418 C   0  0  0  0  0  0  0  0  0  0  0  0
    8.8599    1.5390   -0.6963 H   0  0  0  0  0  0  0  0  0  0  0  0
    9.5222    1.7087    0.9399 H   0  0  0  0  0  0  0  0  0  0  0  0
    8.1280    2.6806    0.4385 H   0  0  0  0  0  0  0  0  0  0  0  0
    8.1581   -0.3776    0.7762 H   0  0  0  0  0  0  0  0  0  0  0  0
    7.4250    0.7561    1.9120 H   0  0  0  0  0  0  0  0  0  0  0  0
    4.0933   -0.1926   -3.3020 H   0  0  0  0  0  0  0  0  0  0  0  0
    5.5491   -1.1933   -3.2356 H   0  0  0  0  0  0  0  0  0  0  0  0
    4.0911   -1.7030   -2.3664 H   0  0  0  0  0  0  0  0  0  0  0  0
    2.8628    1.5676   -1.8452 H   0  0  0  0  0  0  0  0  0  0  0  0
    2.6516    1.9930   -0.1542 H   0  0  0  0  0  0  0  0  0  0  0  0
    1.5100    0.3831    1.3762 H   0  0  0  0  0  0  0  0  0  0  0  0
    1.3806   -1.3144    0.8562 H   0  0  0  0  0  0  0  0  0  0  0  0
    2.9478   -0.6295    1.1536 H   0  0  0  0  0  0  0  0  0  0  0  0
    0.8284    0.6742   -2.2360 H   0  0  0  0  0  0  0  0  0  0  0  0
    0.3061    1.2421   -0.6628 H   0  0  0  0  0  0  0  0  0  0  0  0
   -1.0071   -0.6661   -2.0797 H   0  0  0  0  0  0  0  0  0  0  0  0
    0.2706   -1.6921   -1.4652 H   0  0  0  0  0  0  0  0  0  0  0  0
   -2.6527   -2.3896   -0.4926 H   0  0  0  0  0  0  0  0  0  0  0  0
    0.0362   -3.5842    0.2355 H   0  0  0  0  0  0  0  0  0  0  0  0
   -0.6150   -3.4761   -1.3982 H   0  0  0  0  0  0  0  0  0  0  0  0
   -2.1326   -5.1449   -1.1236 H   0  0  0  0  0  0  0  0  0  0  0  0
   -0.9463   -5.6811    0.0627 H   0  0  0  0  0  0  0  0  0  0  0  0
   -1.3017   -4.4953    2.3226 H   0  0  0  0  0  0  0  0  0  0  0  0
   -2.9939   -4.2388    2.7464 H   0  0  0  0  0  0  0  0  0  0  0  0
   -3.1081   -2.1457    1.8066 H   0  0  0  0  0  0  0  0  0  0  0  0
   -1.4177   -2.1666    2.2982 H   0  0  0  0  0  0  0  0  0  0  0  0
   -1.7042    0.9976   -0.4024 H   0  0  0  0  0  0  0  0  0  0  0  0
   -2.4207   -0.0775    2.3439 H   0  0  0  0  0  0  0  0  0  0  0  0
   -0.9932    0.8728    1.9406 H   0  0  0  0  0  0  0  0  0  0  0  0
   -2.3792    2.7431    1.2065 H   0  0  0  0  0  0  0  0  0  0  0  0
   -2.8576    2.2659    2.8346 H   0  0  0  0  0  0  0  0  0  0  0  0
   -4.8094    2.7047    1.3617 H   0  0  0  0  0  0  0  0  0  0  0  0
   -4.8204    1.0422    1.9514 H   0  0  0  0  0  0  0  0  0  0  0  0
   -5.7577    3.6030   -0.5763 H   0  0  0  0  0  0  0  0  0  0  0  0
   -7.7037    3.1405    0.9797 H   0  0  0  0  0  0  0  0  0  0  0  0
   -7.6062    1.3613    0.6062 H   0  0  0  0  0  0  0  0  0  0  0  0
   -7.9620    1.8427   -1.8335 H   0  0  0  0  0  0  0  0  0  0  0  0
   -8.0704    3.6200   -1.4656 H   0  0  0  0  0  0  0  0  0  0  0  0
   -4.0592   -0.8091    0.2589 H   0  0  0  0  0  0  0  0  0  0  0  0
   -3.5499   -0.2729   -1.3449 H   0  0  0  0  0  0  0  0  0  0  0  0
    4.1047    2.6047    1.4932 H   0  0  0  0  0  0  0  0  0  0  0  0
    5.0757    1.5017    2.4733 H   0  0  0  0  0  0  0  0  0  0  0  0
    5.8498    2.8319    1.5849 H   0  0  0  0  0  0  0  0  0  0  0  0
  1  2  1  0
  2  3  1  0
  3  4  1  0
  4  5  2  0
  5  6  1  0
  5  7  1  0
  7  8  1  0
  8  9  1  0
  9 10  1  0
  9 11  1  0
 11 12  1  0
 12 13  1  0
 13 14  1  0
 14 15  1  0
 15 16  1  0
 16 17  1  0
 17 18  1  0
 18 19  1  0
 13 20  1  0
 20 21  1  0
 21 22  1  0
 22 23  1  0
 23 24  1  0
 24 25  1  0
 25 26  2  0
 25 27  1  0
 27 28  1  0
 28 29  1  0
 24 30  1  0
  7 31  2  0
 31 32  1  0
 31  3  1  0
 19 14  1  0
 30 20  1  0
 29 27  1  0
  1 33  1  0
  1 34  1  0
  1 35  1  0
  2 36  1  0
  2 37  1  0
  6 38  1  0
  6 39  1  0
  6 40  1  0
  8 41  1  0
  8 42  1  0
 10 43  1  0
 10 44  1  0
 10 45  1  0
 11 46  1  0
 11 47  1  0
 12 48  1  0
 12 49  1  0
 14 50  1  0
 15 51  1  0
 15 52  1  0
 16 53  1  0
 16 54  1  0
 18 55  1  0
 18 56  1  0
 19 57  1  0
 19 58  1  0
 20 59  1  0
 21 60  1  0
 21 61  1  0
 22 62  1  0
 22 63  1  0
 23 64  1  0
 23 65  1  0
 27 66  1  0
 28 67  1  0
 28 68  1  0
 29 69  1  0
 29 70  1  0
 30 71  1  0
 30 72  1  0
 32 73  1  0
 32 74  1  0
 32 75  1  0
M  END
$$$$
