
     RDKit          3D

 52 56  0  0  0  0  0  0  0  0999 V2000
    7.7360    1.1738    1.5782 C   0  0  0  0  0  0  0  0  0  0  0  0
    6.8314    0.1929    0.8848 C   0  0  0  0  0  0  0  0  0  0  0  0
    6.7152   -1.1041    1.4166 C   0  0  0  0  0  0  0  0  0  0  0  0
    5.8752   -2.0490    0.8260 C   0  0  0  0  0  0  0  0  0  0  0  0
    5.1331   -1.7054   -0.2989 C   0  0  0  0  0  0  0  0  0  0  0  0
    4.3292   -2.6644   -0.8600 O   0  0  0  0  0  0  0  0  0  0  0  0
    3.0086   -2.4938   -0.9339 C   0  0  0  0  0  0  0  0  0  0  0  0
    2.2227   -3.2827   -1.6311 N   0  0  0  0  0  0  0  0  0  0  0  0
    0.9541   -2.7949   -1.4404 C   0  0  0  0  0  0  0  0  0  0  0  0
   -0.2646   -3.2477   -1.9584 C   0  0  0  0  0  0  0  0  0  0  0  0
   -1.4384   -2.5646   -1.6061 C   0  0  0  0  0  0  0  0  0  0  0  0
   -2.9227   -3.1616   -2.2751 Cl  0  0  0  0  0  0  0  0  0  0  0  0
   -1.4175   -1.4425   -0.7497 C   0  0  0  0  0  0  0  0  0  0  0  0
   -2.6367   -0.7129   -0.3735 C   0  0  0  0  0  0  0  0  0  0  0  0
   -3.0707    0.3893   -1.1211 C   0  0  0  0  0  0  0  0  0  0  0  0
   -4.2261    1.0898   -0.7571 C   0  0  0  0  0  0  0  0  0  0  0  0
   -4.9796    0.7125    0.3653 C   0  0  0  0  0  0  0  0  0  0  0  0
   -6.1968    1.4487    0.7453 C   0  0  0  0  0  0  0  0  0  0  0  0
   -6.3609    1.9566    2.0451 C   0  0  0  0  0  0  0  0  0  0  0  0
   -7.5165    2.6552    2.4059 C   0  0  0  0  0  0  0  0  0  0  0  0
   -8.5295    2.8570    1.4720 C   0  0  0  0  0  0  0  0  0  0  0  0
   -8.3877    2.3619    0.1783 C   0  0  0  0  0  0  0  0  0  0  0  0
   -7.2311    1.6643   -0.1810 C   0  0  0  0  0  0  0  0  0  0  0  0
   -4.5378   -0.3909    1.1117 C   0  0  0  0  0  0  0  0  0  0  0  0
   -3.3835   -1.0940    0.7487 C   0  0  0  0  0  0  0  0  0  0  0  0
   -0.1851   -0.9933   -0.2290 C   0  0  0  0  0  0  0  0  0  0  0  0
    0.9667   -1.6919   -0.5963 C   0  0  0  0  0  0  0  0  0  0  0  0
    2.2901   -1.5262   -0.2779 N   0  0  0  0  0  0  0  0  0  0  0  0
    5.2596   -0.4404   -0.8703 C   0  0  0  0  0  0  0  0  0  0  0  0
    6.1127    0.5091   -0.2864 C   0  0  0  0  0  0  0  0  0  0  0  0
    6.1642    1.8275   -0.9594 C   0  0  0  0  0  0  0  0  0  0  0  0
    5.2239    2.3679   -1.5122 O   0  0  0  0  0  0  0  0  0  0  0  0
    7.3955    2.3607   -0.9758 O   0  0  0  0  0  0  0  0  0  0  0  0
    7.9400    0.8614    2.6086 H   0  0  0  0  0  0  0  0  0  0  0  0
    8.6925    1.2472    1.0522 H   0  0  0  0  0  0  0  0  0  0  0  0
    7.2683    2.1615    1.6414 H   0  0  0  0  0  0  0  0  0  0  0  0
    7.2816   -1.3870    2.3027 H   0  0  0  0  0  0  0  0  0  0  0  0
    5.8004   -3.0498    1.2452 H   0  0  0  0  0  0  0  0  0  0  0  0
   -0.2838   -4.1079   -2.6180 H   0  0  0  0  0  0  0  0  0  0  0  0
   -2.5125    0.7097   -1.9984 H   0  0  0  0  0  0  0  0  0  0  0  0
   -4.5311    1.9448   -1.3576 H   0  0  0  0  0  0  0  0  0  0  0  0
   -5.5776    1.8193    2.7877 H   0  0  0  0  0  0  0  0  0  0  0  0
   -7.6227    3.0426    3.4158 H   0  0  0  0  0  0  0  0  0  0  0  0
   -9.4288    3.3995    1.7519 H   0  0  0  0  0  0  0  0  0  0  0  0
   -9.1774    2.5140   -0.5529 H   0  0  0  0  0  0  0  0  0  0  0  0
   -7.1466    1.2749   -1.1938 H   0  0  0  0  0  0  0  0  0  0  0  0
   -5.1033   -0.7245    1.9797 H   0  0  0  0  0  0  0  0  0  0  0  0
   -3.0756   -1.9500    1.3457 H   0  0  0  0  0  0  0  0  0  0  0  0
   -0.1376   -0.1324    0.4323 H   0  0  0  0  0  0  0  0  0  0  0  0
    2.6749   -0.8181    0.3289 H   0  0  0  0  0  0  0  0  0  0  0  0
    4.7102   -0.1963   -1.7782 H   0  0  0  0  0  0  0  0  0  0  0  0
    7.2963    3.1840   -1.4982 H   0  0  0  0  0  0  0  0  0  0  0  0
  1  2  1  0
  2  3  2  0
  3  4  1  0
  4  5  2  0
  5  6  1  0
  6  7  1  0
  7  8  2  0
  8  9  1  0
  9 10  2  0
 10 11  1  0
 11 12  1  0
 11 13  2  0
 13 14  1  0
 14 15  2  0
 15 16  1  0
 16 17  2  0
 17 18  1  0
 18 19  2  0
 19 20  1  0
 20 21  2  0
 21 22  1  0
 22 23  2  0
 17 24  1  0
 24 25  2  0
 13 26  1  0
 26 27  2  0
 27 28  1  0
  5 29  1  0
 29 30  2  0
 30 31  1  0
 31 32  2  0
 31 33  1  0
 30  2  1  0
 28  7  1  0
 27  9  1  0
 25 14  1  0
 23 18  1  0
  1 34  1  0
  1 35  1  0
  1 36  1  0
  3 37  1  0
  4 38  1  0
 10 39  1  0
 15 40  1  0
 16 41  1  0
 19 42  1  0
 20 43  1  0
 21 44  1  0
 22 45  1  0
 23 46  1  0
 24 47  1  0
 25 48  1  0
 26 49  1  0
 28 50  1  0
 29 51  1  0
 33 52  1  0
M  END
$$$$
