
     RDKit          3D

 45 47  0  0  0  0  0  0  0  0999 V2000
   -1.8604    0.3194   -2.1267 O   0  0  0  0  0  0  0  0  0  0  0  0
   -1.6557   -0.6688   -1.4271 C   0  0  0  0  0  0  0  0  0  0  0  0
   -0.4083   -1.5467   -1.6266 C   0  0  0  0  0  0  0  0  0  0  0  0
    0.7644   -0.9577   -0.9643 N   0  0  0  0  0  0  0  0  0  0  0  0
    2.0284   -1.5063   -1.4689 C   0  0  0  0  0  0  0  0  0  0  0  0
    3.2368   -0.7406   -0.8817 C   0  0  0  0  0  0  0  0  0  0  0  0
    3.1456   -0.5383    0.5695 N   0  0  0  0  0  0  0  0  0  0  0  0
    3.7605    0.5256    1.2454 C   0  0  0  0  0  0  0  0  0  0  0  0
    3.3619    0.8658    2.3609 O   0  0  0  0  0  0  0  0  0  0  0  0
    4.8837    1.1939    0.6063 C   0  0  0  0  0  0  0  0  0  0  0  0
    5.9339    0.7544   -0.1831 C   0  0  0  0  0  0  0  0  0  0  0  0
    6.7313    1.8861   -0.4826 C   0  0  0  0  0  0  0  0  0  0  0  0
    6.1369    2.9478    0.1535 C   0  0  0  0  0  0  0  0  0  0  0  0
    5.0302    2.5410    0.8227 O   0  0  0  0  0  0  0  0  0  0  0  0
    2.0446   -1.2395    1.2217 C   0  0  0  0  0  0  0  0  0  0  0  0
    0.6951   -0.9823    0.5128 C   0  0  0  0  0  0  0  0  0  0  0  0
   -2.4749   -1.1223   -0.4066 N   0  0  0  0  0  0  0  0  0  0  0  0
   -3.6813   -0.5544    0.0671 C   0  0  0  0  0  0  0  0  0  0  0  0
   -4.2545    0.6003   -0.4758 C   0  0  0  0  0  0  0  0  0  0  0  0
   -5.4605    1.1217    0.0319 C   0  0  0  0  0  0  0  0  0  0  0  0
   -6.0485    2.3829   -0.5586 C   0  0  0  0  0  0  0  0  0  0  0  0
   -7.3854    2.5066   -0.3192 F   0  0  0  0  0  0  0  0  0  0  0  0
   -5.4745    3.5081   -0.0523 F   0  0  0  0  0  0  0  0  0  0  0  0
   -5.9078    2.4576   -1.9103 F   0  0  0  0  0  0  0  0  0  0  0  0
   -6.0848    0.4775    1.1100 C   0  0  0  0  0  0  0  0  0  0  0  0
   -5.5253   -0.6740    1.6622 C   0  0  0  0  0  0  0  0  0  0  0  0
   -4.3341   -1.1849    1.1433 C   0  0  0  0  0  0  0  0  0  0  0  0
   -3.6783   -2.6169    1.8658 Cl  0  0  0  0  0  0  0  0  0  0  0  0
   -0.5920   -2.5734   -1.2878 H   0  0  0  0  0  0  0  0  0  0  0  0
   -0.2532   -1.5985   -2.7121 H   0  0  0  0  0  0  0  0  0  0  0  0
    2.0766   -1.4252   -2.5615 H   0  0  0  0  0  0  0  0  0  0  0  0
    2.1050   -2.5733   -1.2217 H   0  0  0  0  0  0  0  0  0  0  0  0
    3.3160    0.2377   -1.3698 H   0  0  0  0  0  0  0  0  0  0  0  0
    4.1495   -1.3090   -1.0861 H   0  0  0  0  0  0  0  0  0  0  0  0
    6.1181   -0.2654   -0.4880 H   0  0  0  0  0  0  0  0  0  0  0  0
    7.6351    1.9218   -1.0746 H   0  0  0  0  0  0  0  0  0  0  0  0
    6.3686    4.0010    0.2337 H   0  0  0  0  0  0  0  0  0  0  0  0
    2.2856   -2.3092    1.1775 H   0  0  0  0  0  0  0  0  0  0  0  0
    1.9628   -0.9804    2.2820 H   0  0  0  0  0  0  0  0  0  0  0  0
    0.3037   -0.0115    0.8392 H   0  0  0  0  0  0  0  0  0  0  0  0
   -0.0016   -1.7498    0.8703 H   0  0  0  0  0  0  0  0  0  0  0  0
   -2.1770   -1.9537    0.0928 H   0  0  0  0  0  0  0  0  0  0  0  0
   -3.7833    1.1263   -1.3034 H   0  0  0  0  0  0  0  0  0  0  0  0
   -7.0123    0.8726    1.5235 H   0  0  0  0  0  0  0  0  0  0  0  0
   -6.0203   -1.1657    2.4963 H   0  0  0  0  0  0  0  0  0  0  0  0
  1  2  2  0
  2  3  1  0
  3  4  1  0
  4  5  1  0
  5  6  1  0
  6  7  1  0
  7  8  1  0
  8  9  2  0
  8 10  1  0
 10 11  2  0
 11 12  1  0
 12 13  2  0
 13 14  1  0
  7 15  1  0
 15 16  1  0
  2 17  1  0
 17 18  1  0
 18 19  2  0
 19 20  1  0
 20 21  1  0
 21 22  1  0
 21 23  1  0
 21 24  1  0
 20 25  2  0
 25 26  1  0
 26 27  2  0
 27 28  1  0
 16  4  1  0
 27 18  1  0
 14 10  1  0
  3 29  1  0
  3 30  1  0
  5 31  1  0
  5 32  1  0
  6 33  1  0
  6 34  1  0
 11 35  1  0
 12 36  1  0
 13 37  1  0
 15 38  1  0
 15 39  1  0
 16 40  1  0
 16 41  1  0
 17 42  1  0
 19 43  1  0
 25 44  1  0
 26 45  1  0
M  END
$$$$
