
     RDKit          3D

 42 44  0  0  0  0  0  0  0  0999 V2000
    3.9820   -2.3049    3.6891 C   0  0  0  0  0  0  0  0  0  0  0  0
    3.3190   -1.4533    2.6753 C   0  0  0  0  0  0  0  0  0  0  0  0
    2.8245   -0.1643    2.7226 C   0  0  0  0  0  0  0  0  0  0  0  0
    2.3387    0.1078    1.4161 C   0  0  0  0  0  0  0  0  0  0  0  0
    1.8747    1.3294    1.0745 N   0  0  0  0  0  0  0  0  0  0  0  0
    1.1861    1.7140   -0.0953 C   0  0  0  0  0  0  0  0  0  0  0  0
    0.3036    0.8790   -0.6991 N   0  0  0  0  0  0  0  0  0  0  0  0
   -0.3568    1.2685   -1.8142 C   0  0  0  0  0  0  0  0  0  0  0  0
   -1.2685    0.3903   -2.4247 N   0  0  0  0  0  0  0  0  0  0  0  0
   -1.6229   -0.8924   -1.7924 C   0  0  1  0  0  0  0  0  0  0  0  0
   -0.4514   -1.8814   -1.7362 C   0  0  0  0  0  0  0  0  0  0  0  0
   -2.4366   -0.6938   -0.5185 C   0  0  0  0  0  0  0  0  0  0  0  0
   -3.8018   -0.3531   -0.6184 C   0  0  0  0  0  0  0  0  0  0  0  0
   -4.5736   -0.1503    0.5272 C   0  0  0  0  0  0  0  0  0  0  0  0
   -3.9864   -0.2826    1.7798 C   0  0  0  0  0  0  0  0  0  0  0  0
   -4.7248   -0.0861    2.8776 F   0  0  0  0  0  0  0  0  0  0  0  0
   -2.6427   -0.6101    1.9083 C   0  0  0  0  0  0  0  0  0  0  0  0
   -1.8706   -0.8170    0.7632 C   0  0  0  0  0  0  0  0  0  0  0  0
   -0.0931    2.5220   -2.3966 C   0  0  0  0  0  0  0  0  0  0  0  0
   -0.7584    2.9569   -3.5884 C   0  0  0  0  0  0  0  0  0  0  0  0
   -1.3117    3.3511   -4.5322 N   0  0  0  0  0  0  0  0  0  0  0  0
    0.8199    3.3903   -1.7887 C   0  0  0  0  0  0  0  0  0  0  0  0
    1.4503    2.9794   -0.6282 C   0  0  0  0  0  0  0  0  0  0  0  0
    2.3147    3.8134   -0.0222 F   0  0  0  0  0  0  0  0  0  0  0  0
    2.5103   -0.9552    0.6148 N   0  0  0  0  0  0  0  0  0  0  0  0
    3.0977   -1.8759    1.3899 N   0  0  0  0  0  0  0  0  0  0  0  0
    5.0633   -2.3525    3.4993 H   0  0  0  0  0  0  0  0  0  0  0  0
    3.8306   -1.9071    4.7012 H   0  0  0  0  0  0  0  0  0  0  0  0
    3.5768   -3.3216    3.6665 H   0  0  0  0  0  0  0  0  0  0  0  0
    2.8415    0.5024    3.5736 H   0  0  0  0  0  0  0  0  0  0  0  0
    2.0134    2.1077    1.7070 H   0  0  0  0  0  0  0  0  0  0  0  0
   -2.1170    0.8928   -2.6836 H   0  0  0  0  0  0  0  0  0  0  0  0
   -2.3204   -1.3684   -2.4993 H   0  0  0  0  0  0  0  0  0  0  0  0
   -0.7986   -2.8684   -1.4070 H   0  0  0  0  0  0  0  0  0  0  0  0
    0.0034   -1.9973   -2.7285 H   0  0  0  0  0  0  0  0  0  0  0  0
    0.3437   -1.5773   -1.0530 H   0  0  0  0  0  0  0  0  0  0  0  0
   -4.2718   -0.2475   -1.5951 H   0  0  0  0  0  0  0  0  0  0  0  0
   -5.6244    0.1118    0.4479 H   0  0  0  0  0  0  0  0  0  0  0  0
   -2.1973   -0.6965    2.8951 H   0  0  0  0  0  0  0  0  0  0  0  0
   -0.8116   -1.0493    0.8808 H   0  0  0  0  0  0  0  0  0  0  0  0
    1.0427    4.3742   -2.2034 H   0  0  0  0  0  0  0  0  0  0  0  0
    3.3033   -2.7847    0.9800 H   0  0  0  0  0  0  0  0  0  0  0  0
  1  2  1  0
  2  3  2  0
  3  4  1  0
  4  5  1  0
  5  6  1  0
  6  7  2  0
  7  8  1  0
  8  9  1  0
  9 10  1  0
 10 11  1  0
 10 12  1  0
 12 13  2  0
 13 14  1  0
 14 15  2  0
 15 16  1  0
 15 17  1  0
 17 18  2  0
  8 19  2  0
 19 20  1  0
 20 21  3  0
 19 22  1  0
 22 23  2  0
 23 24  1  0
  4 25  2  0
 25 26  1  0
 26  2  1  0
 23  6  1  0
 18 12  1  0
  1 27  1  0
  1 28  1  0
  1 29  1  0
  3 30  1  0
  5 31  1  0
  9 32  1  0
 10 33  1  6
 11 34  1  0
 11 35  1  0
 11 36  1  0
 13 37  1  0
 14 38  1  0
 17 39  1  0
 18 40  1  0
 22 41  1  0
 26 42  1  0
M  END
$$$$
