
     RDKit          3D

 22 23  0  0  0  0  0  0  0  0999 V2000
    3.8149   -1.2290    0.8992 N   0  0  0  0  0  0  0  0  0  0  0  0
    2.5293   -0.1986    0.5453 S   0  0  0  0  0  6  0  0  0  0  0  0
    2.8884    1.0528    1.1693 O   0  0  0  0  0  0  0  0  0  0  0  0
    2.3554   -0.3257   -0.8843 O   0  0  0  0  0  0  0  0  0  0  0  0
    1.1713   -0.9910    1.4124 C   0  0  0  0  0  0  0  0  0  0  0  0
   -0.0713   -0.1860    1.3471 C   0  0  0  0  0  0  0  0  0  0  0  0
   -0.5674    0.3568    2.4699 N   0  0  0  0  0  0  0  0  0  0  0  0
   -1.7259    1.0146    2.0935 O   0  0  0  0  0  0  0  0  0  0  0  0
   -1.9333    0.8455    0.7618 C   0  0  0  0  0  0  0  0  0  0  0  0
   -3.0034    1.3501    0.0278 C   0  0  0  0  0  0  0  0  0  0  0  0
   -3.0175    1.0413   -1.3361 C   0  0  0  0  0  0  0  0  0  0  0  0
   -2.0059    0.2671   -1.9116 C   0  0  0  0  0  0  0  0  0  0  0  0
   -0.9418   -0.2260   -1.1409 C   0  0  0  0  0  0  0  0  0  0  0  0
   -0.9101    0.0792    0.2311 C   0  0  0  0  0  0  0  0  0  0  0  0
    4.2016   -1.6078    0.0318 H   0  0  0  0  0  0  0  0  0  0  0  0
    4.5091   -0.7264    1.4581 H   0  0  0  0  0  0  0  0  0  0  0  0
    1.0190   -1.9725    0.9524 H   0  0  0  0  0  0  0  0  0  0  0  0
    1.4963   -1.1309    2.4489 H   0  0  0  0  0  0  0  0  0  0  0  0
   -3.7781    1.9478    0.4924 H   0  0  0  0  0  0  0  0  0  0  0  0
   -3.8290    1.4123   -1.9593 H   0  0  0  0  0  0  0  0  0  0  0  0
   -2.0396    0.0459   -2.9770 H   0  0  0  0  0  0  0  0  0  0  0  0
   -0.1621   -0.8194   -1.6105 H   0  0  0  0  0  0  0  0  0  0  0  0
  1  2  1  0
  2  3  2  0
  2  4  2  0
  2  5  1  0
  5  6  1  0
  6  7  2  0
  7  8  1  0
  8  9  1  0
  9 10  2  0
 10 11  1  0
 11 12  2  0
 12 13  1  0
 13 14  2  0
 14  6  1  0
 14  9  1  0
  1 15  1  0
  1 16  1  0
  5 17  1  0
  5 18  1  0
 10 19  1  0
 11 20  1  0
 12 21  1  0
 13 22  1  0
M  END
$$$$
