
     RDKit          3D

 70 75  0  0  0  0  0  0  0  0999 V2000
    1.3976   -0.2960   -2.4885 C   0  0  0  0  0  0  0  0  0  0  0  0
    1.0083   -0.4955   -1.0519 C   0  0  0  0  0  0  0  0  0  0  0  0
   -0.1850   -0.1209   -0.5460 C   0  0  0  0  0  0  0  0  0  0  0  0
   -1.4099    0.3897   -1.2444 C   0  0  0  0  0  0  0  0  0  0  0  0
   -1.4233    0.9431   -2.3295 O   0  0  0  0  0  0  0  0  0  0  0  0
   -2.6193   -0.0022   -0.4291 C   0  0  1  0  0  0  0  0  0  0  0  0
   -2.0239    0.0641    0.9878 C   0  0  1  0  0  0  0  0  0  0  0  0
   -2.9544   -0.5996    1.9948 C   0  0  0  0  0  0  0  0  0  0  0  0
   -4.4048   -0.3134    1.6948 C   0  0  0  0  0  0  0  0  0  0  0  0
   -4.8668    0.2981    0.5803 C   0  0  0  0  0  0  0  0  0  0  0  0
   -6.3611    0.3163    0.3195 C   0  0  0  0  0  0  0  0  0  0  0  0
   -6.8382    1.2616   -0.7882 C   0  0  1  0  0  0  0  0  0  0  0  0
   -6.9064    2.6058   -0.3060 O   0  0  0  0  0  0  0  0  0  0  0  0
   -5.9814    1.2238   -2.0587 C   0  0  0  0  0  0  0  0  0  0  0  0
   -4.6106    0.5517   -1.8920 C   0  0  0  0  0  0  0  0  0  0  0  0
   -3.9314    0.8170   -0.5295 C   0  0  2  0  0  0  0  0  0  0  0  0
   -3.6624    2.3289   -0.3445 C   0  0  0  0  0  0  0  0  0  0  0  0
   -0.5745   -0.4346    0.8806 C   0  0  0  0  0  0  0  0  0  0  0  0
   -0.2906   -1.9096    1.1338 C   0  0  0  0  0  0  0  0  0  0  0  0
    1.1211   -2.3394    0.6621 C   0  0  0  0  0  0  0  0  0  0  0  0
    1.9510   -1.2575   -0.0960 C   0  0  2  0  0  0  0  0  0  0  0  0
    2.3667   -0.2657    0.9032 O   0  0  0  0  0  0  0  0  0  0  0  0
    3.7902   -0.2722    0.9712 C   0  0  2  0  0  0  0  0  0  0  0  0
    4.4083    1.0584    1.3637 C   0  0  0  0  0  0  0  0  0  0  0  0
    5.9410    0.9393    1.2494 C   0  0  2  0  0  0  0  0  0  0  0  0
    6.6061    2.2870    1.5197 C   0  0  0  0  0  0  0  0  0  0  0  0
    6.3750    0.3826   -0.1280 C   0  0  0  0  0  0  0  0  0  0  0  0
    5.6871   -0.8709   -0.4873 N   0  0  0  0  0  0  0  0  0  0  0  0
    4.2428   -0.6603   -0.4240 C   0  0  1  0  0  0  0  0  0  0  0  0
    3.2881   -1.8160   -0.7210 C   0  0  1  0  0  0  0  0  0  0  0  0
    3.7832   -3.1505   -0.1416 C   0  0  0  0  0  0  0  0  0  0  0  0
    2.3537    0.2274   -2.5655 H   0  0  0  0  0  0  0  0  0  0  0  0
    0.6856    0.3029   -3.0573 H   0  0  0  0  0  0  0  0  0  0  0  0
    1.4768   -1.2610   -2.9988 H   0  0  0  0  0  0  0  0  0  0  0  0
   -2.8272   -1.0518   -0.6916 H   0  0  0  0  0  0  0  0  0  0  0  0
   -1.9395    1.1196    1.2855 H   0  0  0  0  0  0  0  0  0  0  0  0
   -2.7126   -0.2533    3.0059 H   0  0  0  0  0  0  0  0  0  0  0  0
   -2.8312   -1.6879    1.9894 H   0  0  0  0  0  0  0  0  0  0  0  0
   -5.1137   -0.7094    2.4207 H   0  0  0  0  0  0  0  0  0  0  0  0
   -6.6489   -0.7036    0.0299 H   0  0  0  0  0  0  0  0  0  0  0  0
   -6.8889    0.5532    1.2519 H   0  0  0  0  0  0  0  0  0  0  0  0
   -7.8687    0.9986   -1.0554 H   0  0  0  0  0  0  0  0  0  0  0  0
   -7.3967    2.5996    0.5331 H   0  0  0  0  0  0  0  0  0  0  0  0
   -5.8420    2.2388   -2.4512 H   0  0  0  0  0  0  0  0  0  0  0  0
   -6.5230    0.6714   -2.8374 H   0  0  0  0  0  0  0  0  0  0  0  0
   -3.9675    0.8746   -2.7189 H   0  0  0  0  0  0  0  0  0  0  0  0
   -4.7460   -0.5312   -2.0247 H   0  0  0  0  0  0  0  0  0  0  0  0
   -4.5401    2.9458   -0.5424 H   0  0  0  0  0  0  0  0  0  0  0  0
   -3.3491    2.5735    0.6755 H   0  0  0  0  0  0  0  0  0  0  0  0
   -2.8838    2.6838   -1.0272 H   0  0  0  0  0  0  0  0  0  0  0  0
    0.0249    0.1665    1.5764 H   0  0  0  0  0  0  0  0  0  0  0  0
   -0.4025   -2.1367    2.2009 H   0  0  0  0  0  0  0  0  0  0  0  0
   -1.0299   -2.5319    0.6119 H   0  0  0  0  0  0  0  0  0  0  0  0
    0.9926   -3.2208    0.0214 H   0  0  0  0  0  0  0  0  0  0  0  0
    1.6722   -2.6640    1.5537 H   0  0  0  0  0  0  0  0  0  0  0  0
    4.0776   -1.0239    1.7181 H   0  0  0  0  0  0  0  0  0  0  0  0
    4.1103    1.3261    2.3843 H   0  0  0  0  0  0  0  0  0  0  0  0
    4.0266    1.8582    0.7162 H   0  0  0  0  0  0  0  0  0  0  0  0
    6.2840    0.2353    2.0203 H   0  0  0  0  0  0  0  0  0  0  0  0
    6.3368    2.6600    2.5135 H   0  0  0  0  0  0  0  0  0  0  0  0
    7.6967    2.1970    1.4793 H   0  0  0  0  0  0  0  0  0  0  0  0
    6.3002    3.0366    0.7821 H   0  0  0  0  0  0  0  0  0  0  0  0
    7.4540    0.1905   -0.1164 H   0  0  0  0  0  0  0  0  0  0  0  0
    6.1959    1.1319   -0.9100 H   0  0  0  0  0  0  0  0  0  0  0  0
    5.9554   -1.1411   -1.4336 H   0  0  0  0  0  0  0  0  0  0  0  0
    3.9939    0.1495   -1.1235 H   0  0  0  0  0  0  0  0  0  0  0  0
    3.2059   -1.9767   -1.8002 H   0  0  0  0  0  0  0  0  0  0  0  0
    4.7513   -3.4242   -0.5748 H   0  0  0  0  0  0  0  0  0  0  0  0
    3.9023   -3.1243    0.9451 H   0  0  0  0  0  0  0  0  0  0  0  0
    3.0921   -3.9622   -0.3894 H   0  0  0  0  0  0  0  0  0  0  0  0
  1  2  1  0
  2  3  2  0
  3  4  1  0
  4  5  2  0
  4  6  1  0
  6  7  1  0
  7  8  1  0
  8  9  1  0
  9 10  2  0
 10 11  1  0
 11 12  1  0
 12 13  1  0
 12 14  1  0
 14 15  1  0
 15 16  1  0
 16 17  1  1
  7 18  1  0
 18 19  1  0
 19 20  1  0
 20 21  1  0
 21 22  1  1
 22 23  1  0
 23 24  1  0
 24 25  1  0
 25 26  1  0
 25 27  1  0
 27 28  1  0
 28 29  1  0
 29 30  1  0
 30 31  1  0
 21  2  1  0
 29 23  1  0
 18  3  1  0
 30 21  1  0
 16  6  1  0
 16 10  1  0
  1 32  1  0
  1 33  1  0
  1 34  1  0
  6 35  1  6
  7 36  1  1
  8 37  1  0
  8 38  1  0
  9 39  1  0
 11 40  1  0
 11 41  1  0
 12 42  1  6
 13 43  1  0
 14 44  1  0
 14 45  1  0
 15 46  1  0
 15 47  1  0
 17 48  1  0
 17 49  1  0
 17 50  1  0
 18 51  1  0
 19 52  1  0
 19 53  1  0
 20 54  1  0
 20 55  1  0
 23 56  1  1
 24 57  1  0
 24 58  1  0
 25 59  1  1
 26 60  1  0
 26 61  1  0
 26 62  1  0
 27 63  1  0
 27 64  1  0
 28 65  1  0
 29 66  1  6
 30 67  1  6
 31 68  1  0
 31 69  1  0
 31 70  1  0
M  END
$$$$
