
     RDKit          3D

 57 61  0  0  0  0  0  0  0  0999 V2000
   -7.2120   -1.3316   -0.5974 C   0  0  0  0  0  0  0  0  0  0  0  0
   -5.7430   -1.4225   -0.6273 N   0  0  0  0  0  0  0  0  0  0  0  0
   -5.1726   -0.1067   -0.9610 C   0  0  0  0  0  0  0  0  0  0  0  0
   -3.7886   -0.1818   -1.6266 C   0  0  0  0  0  0  0  0  0  0  0  0
   -2.6101   -0.6852   -0.7911 C   0  0  0  0  0  0  0  0  0  0  0  0
   -2.9315   -1.0290    0.5909 N   0  0  0  0  0  0  0  0  0  0  0  0
   -2.7873   -0.1701    1.6819 C   0  0  0  0  0  0  0  0  0  0  0  0
   -3.2978   -0.3624    2.7877 O   0  0  0  0  0  0  0  0  0  0  0  0
   -1.9642    1.0405    1.5160 C   0  0  0  0  0  0  0  0  0  0  0  0
   -2.5814    2.2875    1.4323 C   0  0  0  0  0  0  0  0  0  0  0  0
   -1.7938    3.4262    1.2866 C   0  0  0  0  0  0  0  0  0  0  0  0
   -0.3974    3.3096    1.2371 C   0  0  0  0  0  0  0  0  0  0  0  0
    0.2340    2.0586    1.3458 C   0  0  0  0  0  0  0  0  0  0  0  0
    1.6923    1.9530    1.3287 C   0  0  0  0  0  0  0  0  0  0  0  0
    2.7292    2.8592    1.2365 C   0  0  0  0  0  0  0  0  0  0  0  0
    3.9255    2.1115    1.3118 C   0  0  0  0  0  0  0  0  0  0  0  0
    3.5781    0.7714    1.4332 C   0  0  0  0  0  0  0  0  0  0  0  0
    4.4098   -0.3641    1.5838 C   0  0  0  0  0  0  0  0  0  0  0  0
    5.1575   -0.8775    0.5937 C   0  0  0  0  0  0  0  0  0  0  0  0
    6.0630   -2.0471    0.8916 C   0  0  0  0  0  0  0  0  0  0  0  0
    6.1913   -2.6322    1.9479 O   0  0  0  0  0  0  0  0  0  0  0  0
    6.7289   -2.3015   -0.2973 N   0  0  0  0  0  0  0  0  0  0  0  0
    6.3123   -1.4341   -1.3040 C   0  0  0  0  0  0  0  0  0  0  0  0
    6.7559   -1.4278   -2.6109 C   0  0  0  0  0  0  0  0  0  0  0  0
    6.1806   -0.4922   -3.4745 C   0  0  0  0  0  0  0  0  0  0  0  0
    5.1857    0.3915   -3.0110 C   0  0  0  0  0  0  0  0  0  0  0  0
    4.4844    1.5188   -4.1094 Cl  0  0  0  0  0  0  0  0  0  0  0  0
    4.7499    0.3702   -1.6833 C   0  0  0  0  0  0  0  0  0  0  0  0
    5.3369   -0.5427   -0.8245 C   0  0  0  0  0  0  0  0  0  0  0  0
    2.2080    0.6947    1.4429 O   0  0  0  0  0  0  0  0  0  0  0  0
   -0.5706    0.9200    1.4868 C   0  0  0  0  0  0  0  0  0  0  0  0
   -3.7648   -2.2128    0.7719 C   0  0  0  0  0  0  0  0  0  0  0  0
   -5.2713   -1.9058    0.6987 C   0  0  0  0  0  0  0  0  0  0  0  0
   -7.5695   -0.5984    0.1455 H   0  0  0  0  0  0  0  0  0  0  0  0
   -7.6045   -1.0464   -1.5839 H   0  0  0  0  0  0  0  0  0  0  0  0
   -7.6525   -2.3068   -0.3633 H   0  0  0  0  0  0  0  0  0  0  0  0
   -5.1641    0.5694   -0.0866 H   0  0  0  0  0  0  0  0  0  0  0  0
   -5.8263    0.3829   -1.7015 H   0  0  0  0  0  0  0  0  0  0  0  0
   -3.8614   -0.7947   -2.5327 H   0  0  0  0  0  0  0  0  0  0  0  0
   -3.5366    0.8241   -1.9900 H   0  0  0  0  0  0  0  0  0  0  0  0
   -1.8168    0.0664   -0.8263 H   0  0  0  0  0  0  0  0  0  0  0  0
   -2.1751   -1.5755   -1.2565 H   0  0  0  0  0  0  0  0  0  0  0  0
   -3.6621    2.3698    1.4894 H   0  0  0  0  0  0  0  0  0  0  0  0
   -2.2593    4.4074    1.2205 H   0  0  0  0  0  0  0  0  0  0  0  0
    0.1894    4.2190    1.1286 H   0  0  0  0  0  0  0  0  0  0  0  0
    2.6389    3.9310    1.1434 H   0  0  0  0  0  0  0  0  0  0  0  0
    4.9387    2.4951    1.2925 H   0  0  0  0  0  0  0  0  0  0  0  0
    4.4208   -0.8269    2.5690 H   0  0  0  0  0  0  0  0  0  0  0  0
    7.4084   -3.0462   -0.3956 H   0  0  0  0  0  0  0  0  0  0  0  0
    7.5131   -2.1223   -2.9617 H   0  0  0  0  0  0  0  0  0  0  0  0
    6.4980   -0.4565   -4.5152 H   0  0  0  0  0  0  0  0  0  0  0  0
    3.9658    1.0400   -1.3596 H   0  0  0  0  0  0  0  0  0  0  0  0
   -0.1234   -0.0664    1.5889 H   0  0  0  0  0  0  0  0  0  0  0  0
   -3.5366   -2.6477    1.7578 H   0  0  0  0  0  0  0  0  0  0  0  0
   -3.4853   -2.9652    0.0236 H   0  0  0  0  0  0  0  0  0  0  0  0
   -5.7858   -2.8471    0.9308 H   0  0  0  0  0  0  0  0  0  0  0  0
   -5.5506   -1.1907    1.4884 H   0  0  0  0  0  0  0  0  0  0  0  0
  1  2  1  0
  2  3  1  0
  3  4  1  0
  4  5  1  0
  5  6  1  0
  6  7  1  0
  7  8  2  0
  7  9  1  0
  9 10  2  0
 10 11  1  0
 11 12  2  0
 12 13  1  0
 13 14  1  0
 14 15  2  0
 15 16  1  0
 16 17  2  0
 17 18  1  0
 18 19  2  0
 19 20  1  0
 20 21  2  0
 20 22  1  0
 22 23  1  0
 23 24  2  0
 24 25  1  0
 25 26  2  0
 26 27  1  0
 26 28  1  0
 28 29  2  0
 17 30  1  0
 13 31  2  0
  6 32  1  0
 32 33  1  0
 33  2  1  0
 31  9  1  0
 30 14  1  0
 29 19  1  0
 29 23  1  0
  1 34  1  0
  1 35  1  0
  1 36  1  0
  3 37  1  0
  3 38  1  0
  4 39  1  0
  4 40  1  0
  5 41  1  0
  5 42  1  0
 10 43  1  0
 11 44  1  0
 12 45  1  0
 15 46  1  0
 16 47  1  0
 18 48  1  0
 22 49  1  0
 24 50  1  0
 25 51  1  0
 28 52  1  0
 31 53  1  0
 32 54  1  0
 32 55  1  0
 33 56  1  0
 33 57  1  0
M  END
$$$$
