
     RDKit          3D

 33 35  0  0  0  0  0  0  0  0999 V2000
   -6.4106    0.5145    0.2433 C   0  0  0  0  0  0  0  0  0  0  0  0
   -5.6834   -0.6978    0.0866 O   0  0  0  0  0  0  0  0  0  0  0  0
   -4.3213   -0.5966    0.0351 C   0  0  0  0  0  0  0  0  0  0  0  0
   -3.5797    0.5798    0.1167 C   0  0  0  0  0  0  0  0  0  0  0  0
   -2.1788    0.5427    0.0498 C   0  0  0  0  0  0  0  0  0  0  0  0
   -1.5033   -0.6691   -0.0978 C   0  0  0  0  0  0  0  0  0  0  0  0
   -0.1009   -0.7935   -0.1761 N   0  0  0  0  0  0  0  0  0  0  0  0
    0.8482    0.2096   -0.0805 C   0  0  0  0  0  0  0  0  0  0  0  0
    0.6063    1.3936    0.1259 O   0  0  0  0  0  0  0  0  0  0  0  0
    2.2361   -0.2557   -0.2317 C   0  0  0  0  0  0  0  0  0  0  0  0
    2.6785   -1.5049   -0.6572 C   0  0  0  0  0  0  0  0  0  0  0  0
    4.0518   -1.5057   -0.6573 N   0  0  0  0  0  0  0  0  0  0  0  0
    4.5171   -0.2905   -0.2501 C   0  0  0  0  0  0  0  0  0  0  0  0
    5.8216    0.0216   -0.1476 N   0  0  0  0  0  0  0  0  0  0  0  0
    6.0258    1.2909    0.2728 C   0  0  0  0  0  0  0  0  0  0  0  0
    5.0333    2.2117    0.5792 C   0  0  0  0  0  0  0  0  0  0  0  0
    3.6970    1.8304    0.4549 C   0  0  0  0  0  0  0  0  0  0  0  0
    3.4211    0.5203    0.0204 C   0  0  0  0  0  0  0  0  0  0  0  0
   -2.2532   -1.8476   -0.1815 C   0  0  0  0  0  0  0  0  0  0  0  0
   -3.6495   -1.8094   -0.1148 C   0  0  0  0  0  0  0  0  0  0  0  0
   -7.4756    0.2642    0.2686 H   0  0  0  0  0  0  0  0  0  0  0  0
   -6.2466    1.1859   -0.6060 H   0  0  0  0  0  0  0  0  0  0  0  0
   -6.1614    1.0050    1.1901 H   0  0  0  0  0  0  0  0  0  0  0  0
   -4.0529    1.5493    0.2321 H   0  0  0  0  0  0  0  0  0  0  0  0
   -1.6493    1.4880    0.1148 H   0  0  0  0  0  0  0  0  0  0  0  0
    0.2469   -1.7339   -0.2829 H   0  0  0  0  0  0  0  0  0  0  0  0
    2.1528   -2.3941   -0.9756 H   0  0  0  0  0  0  0  0  0  0  0  0
    4.6561   -2.2700   -0.9223 H   0  0  0  0  0  0  0  0  0  0  0  0
    7.0728    1.5710    0.3639 H   0  0  0  0  0  0  0  0  0  0  0  0
    5.2926    3.2117    0.9094 H   0  0  0  0  0  0  0  0  0  0  0  0
    2.8951    2.5258    0.6850 H   0  0  0  0  0  0  0  0  0  0  0  0
   -1.7688   -2.8131   -0.2982 H   0  0  0  0  0  0  0  0  0  0  0  0
   -4.2180   -2.7339   -0.1801 H   0  0  0  0  0  0  0  0  0  0  0  0
  1  2  1  0
  2  3  1  0
  3  4  2  0
  4  5  1  0
  5  6  2  0
  6  7  1  0
  7  8  1  0
  8  9  2  0
  8 10  1  0
 10 11  2  0
 11 12  1  0
 12 13  1  0
 13 14  2  0
 14 15  1  0
 15 16  2  0
 16 17  1  0
 17 18  2  0
  6 19  1  0
 19 20  2  0
 20  3  1  0
 18 10  1  0
 18 13  1  0
  1 21  1  0
  1 22  1  0
  1 23  1  0
  4 24  1  0
  5 25  1  0
  7 26  1  0
 11 27  1  0
 12 28  1  0
 15 29  1  0
 16 30  1  0
 17 31  1  0
 19 32  1  0
 20 33  1  0
M  END
$$$$
