
     RDKit          3D

 44 45  0  0  0  0  0  0  0  0999 V2000
   -3.6064    2.6337    2.6457 C   0  0  0  0  0  0  0  0  0  0  0  0
   -4.2477    1.5283    2.0154 O   0  0  0  0  0  0  0  0  0  0  0  0
   -3.4693    0.7120    1.2338 C   0  0  0  0  0  0  0  0  0  0  0  0
   -2.1504    0.9884    0.8568 C   0  0  0  0  0  0  0  0  0  0  0  0
   -1.4283    0.0865    0.0671 C   0  0  0  0  0  0  0  0  0  0  0  0
   -0.0918    0.2958   -0.3469 N   0  0  0  0  0  0  0  0  0  0  0  0
    0.7118    1.3975   -0.0933 C   0  0  0  0  0  0  0  0  0  0  0  0
    0.3894    2.4015    0.5415 O   0  0  0  0  0  0  0  0  0  0  0  0
    2.0547    1.3385   -0.7622 C   0  0  0  0  0  0  0  0  0  0  0  0
    3.0274    0.0833    0.0034 S   0  0  0  0  0  6  0  0  0  0  0  0
    3.2577    0.4249    1.3949 O   0  0  0  0  0  0  0  0  0  0  0  0
    2.4394   -1.1942   -0.3766 O   0  0  0  0  0  0  0  0  0  0  0  0
    4.5955    0.2180   -0.8245 C   0  0  0  0  0  0  0  0  0  0  0  0
    5.0100   -0.7818   -1.7110 C   0  0  0  0  0  0  0  0  0  0  0  0
    6.2505   -0.6668   -2.3401 C   0  0  0  0  0  0  0  0  0  0  0  0
    7.0685    0.4354   -2.0773 C   0  0  0  0  0  0  0  0  0  0  0  0
    6.6526    1.4262   -1.1828 C   0  0  0  0  0  0  0  0  0  0  0  0
    5.4146    1.3176   -0.5481 C   0  0  0  0  0  0  0  0  0  0  0  0
   -2.0442   -1.1008   -0.3636 C   0  0  0  0  0  0  0  0  0  0  0  0
   -3.3737   -1.3766   -0.0340 C   0  0  0  0  0  0  0  0  0  0  0  0
   -4.0630   -2.4904   -0.4444 O   0  0  0  0  0  0  0  0  0  0  0  0
   -3.5263   -3.2201   -1.5440 C   0  0  0  0  0  0  0  0  0  0  0  0
   -4.0691   -0.4766    0.7889 C   0  0  0  0  0  0  0  0  0  0  0  0
   -5.3847   -0.7289    1.1096 O   0  0  0  0  0  0  0  0  0  0  0  0
   -5.4481   -1.4871    2.3163 C   0  0  0  0  0  0  0  0  0  0  0  0
   -3.2865    3.3771    1.9049 H   0  0  0  0  0  0  0  0  0  0  0  0
   -2.7676    2.3030    3.2696 H   0  0  0  0  0  0  0  0  0  0  0  0
   -4.3371    3.1161    3.3049 H   0  0  0  0  0  0  0  0  0  0  0  0
   -1.6846    1.9073    1.1901 H   0  0  0  0  0  0  0  0  0  0  0  0
    0.3467   -0.4992   -0.8081 H   0  0  0  0  0  0  0  0  0  0  0  0
    2.5623    2.3003   -0.6493 H   0  0  0  0  0  0  0  0  0  0  0  0
    1.9383    1.1063   -1.8252 H   0  0  0  0  0  0  0  0  0  0  0  0
    4.3910   -1.6530   -1.9082 H   0  0  0  0  0  0  0  0  0  0  0  0
    6.5889   -1.4440   -3.0244 H   0  0  0  0  0  0  0  0  0  0  0  0
    8.0401    0.5169   -2.5616 H   0  0  0  0  0  0  0  0  0  0  0  0
    7.3039    2.2753   -0.9679 H   0  0  0  0  0  0  0  0  0  0  0  0
    5.1089    2.0815    0.1656 H   0  0  0  0  0  0  0  0  0  0  0  0
   -1.4754   -1.8033   -0.9660 H   0  0  0  0  0  0  0  0  0  0  0  0
   -2.6567   -3.8087   -1.2292 H   0  0  0  0  0  0  0  0  0  0  0  0
   -4.2960   -3.9168   -1.8945 H   0  0  0  0  0  0  0  0  0  0  0  0
   -3.2739   -2.5573   -2.3836 H   0  0  0  0  0  0  0  0  0  0  0  0
   -6.5025   -1.5922    2.5889 H   0  0  0  0  0  0  0  0  0  0  0  0
   -4.9355   -0.9800    3.1435 H   0  0  0  0  0  0  0  0  0  0  0  0
   -5.0335   -2.4933    2.1737 H   0  0  0  0  0  0  0  0  0  0  0  0
  1  2  1  0
  2  3  1  0
  3  4  2  0
  4  5  1  0
  5  6  1  0
  6  7  1  0
  7  8  2  0
  7  9  1  0
  9 10  1  0
 10 11  2  0
 10 12  2  0
 10 13  1  0
 13 14  2  0
 14 15  1  0
 15 16  2  0
 16 17  1  0
 17 18  2  0
  5 19  2  0
 19 20  1  0
 20 21  1  0
 21 22  1  0
 20 23  2  0
 23 24  1  0
 24 25  1  0
 23  3  1  0
 18 13  1  0
  1 26  1  0
  1 27  1  0
  1 28  1  0
  4 29  1  0
  6 30  1  0
  9 31  1  0
  9 32  1  0
 14 33  1  0
 15 34  1  0
 16 35  1  0
 17 36  1  0
 18 37  1  0
 19 38  1  0
 22 39  1  0
 22 40  1  0
 22 41  1  0
 25 42  1  0
 25 43  1  0
 25 44  1  0
M  END
$$$$
