
     RDKit          3D

 16 15  0  0  0  0  0  0  0  0999 V2000
    2.0384   -0.2558    1.8348 O   0  0  0  0  0  0  0  0  0  0  0  0
    1.9094   -0.2312    0.6212 C   0  0  0  0  0  0  0  0  0  0  0  0
    2.9055   -0.6711   -0.1765 O   0  0  0  0  0  0  0  0  0  0  0  0
    0.7114    0.2731   -0.1586 C   0  0  2  0  0  0  0  0  0  0  0  0
    0.7566    2.1177   -0.0707 S   0  0  0  0  0  0  0  0  0  0  0  0
   -0.5727   -0.3330    0.4208 C   0  0  2  0  0  0  0  0  0  0  0  0
   -0.6462   -2.1610    0.1512 S   0  0  0  0  0  0  0  0  0  0  0  0
   -1.7938    0.2498   -0.2567 C   0  0  0  0  0  0  0  0  0  0  0  0
   -1.9351    0.4236   -1.4580 O   0  0  0  0  0  0  0  0  0  0  0  0
   -2.7843    0.5608    0.6018 O   0  0  0  0  0  0  0  0  0  0  0  0
    3.6128   -0.9393    0.4484 H   0  0  0  0  0  0  0  0  0  0  0  0
    0.8252    0.0062   -1.2161 H   0  0  0  0  0  0  0  0  0  0  0  0
   -0.0769    2.3385   -1.1006 H   0  0  0  0  0  0  0  0  0  0  0  0
   -0.6341   -0.1562    1.5009 H   0  0  0  0  0  0  0  0  0  0  0  0
   -0.7982   -2.1132   -1.1831 H   0  0  0  0  0  0  0  0  0  0  0  0
   -3.5179    0.8912    0.0413 H   0  0  0  0  0  0  0  0  0  0  0  0
  1  2  2  0
  2  3  1  0
  2  4  1  0
  4  5  1  0
  4  6  1  0
  6  7  1  0
  6  8  1  0
  8  9  2  0
  8 10  1  0
  3 11  1  0
  4 12  1  6
  5 13  1  0
  6 14  1  1
  7 15  1  0
 10 16  1  0
M  END
$$$$
