
     RDKit          3D

 58 61  0  0  0  0  0  0  0  0999 V2000
    4.0111   -3.2160    0.2598 C   0  0  0  0  0  0  0  0  0  0  0  0
    4.4127   -1.7895    0.1851 C   0  0  0  0  0  0  0  0  0  0  0  0
    5.5948   -1.4039    0.6755 N   0  0  0  0  0  0  0  0  0  0  0  0
    5.6279   -0.0796    0.4548 N   0  0  0  0  0  0  0  0  0  0  0  0
    6.7774    0.6795    0.8887 C   0  0  0  0  0  0  0  0  0  0  0  0
    4.5118    0.3986   -0.1804 C   0  0  0  0  0  0  0  0  0  0  0  0
    4.3265    1.8284   -0.5321 C   0  0  0  0  0  0  0  0  0  0  0  0
    3.6817   -0.6980   -0.3644 C   0  0  0  0  0  0  0  0  0  0  0  0
    2.3326   -0.7443   -1.0067 C   0  0  0  0  0  0  0  0  0  0  0  0
    1.3647    0.0252   -0.2197 N   0  0  0  0  0  0  0  0  0  0  0  0
    1.0619   -0.5717    1.0859 C   0  0  0  0  0  0  0  0  0  0  0  0
   -0.2457    0.0915    1.5127 C   0  0  0  0  0  0  0  0  0  0  0  0
   -0.8536    0.6279    0.2136 C   0  0  0  0  0  0  0  0  0  0  0  0
   -2.3031    0.3946    0.0446 N   0  0  0  0  0  0  0  0  0  0  0  0
   -2.9357   -0.8536   -0.0689 C   0  0  0  0  0  0  0  0  0  0  0  0
   -4.1570   -0.9708   -0.1257 O   0  0  0  0  0  0  0  0  0  0  0  0
   -2.1153   -2.0994   -0.1452 C   0  0  0  0  0  0  0  0  0  0  0  0
   -2.7868   -3.4361   -0.4021 C   0  0  0  0  0  0  0  0  0  0  0  0
   -1.9504   -2.8088   -1.4727 C   0  0  0  0  0  0  0  0  0  0  0  0
   -3.1699    1.5977    0.1111 C   0  0  0  0  0  0  0  0  0  0  0  0
   -4.0506    1.6371    1.3721 C   0  0  0  0  0  0  0  0  0  0  0  0
   -5.3513    2.3864    1.1150 C   0  0  0  0  0  0  0  0  0  0  0  0
   -5.0978    3.5069    0.2728 O   0  0  0  0  0  0  0  0  0  0  0  0
   -4.7841    3.1263   -1.0685 C   0  0  0  0  0  0  0  0  0  0  0  0
   -3.9883    1.8255   -1.1653 C   0  0  0  0  0  0  0  0  0  0  0  0
    0.0707    0.1338   -0.9044 C   0  0  0  0  0  0  0  0  0  0  0  0
    3.8763   -3.6266   -0.7459 H   0  0  0  0  0  0  0  0  0  0  0  0
    3.0676   -3.3186    0.8051 H   0  0  0  0  0  0  0  0  0  0  0  0
    4.7649   -3.8217    0.7741 H   0  0  0  0  0  0  0  0  0  0  0  0
    6.4396    1.4499    1.5862 H   0  0  0  0  0  0  0  0  0  0  0  0
    7.4889    0.0151    1.3867 H   0  0  0  0  0  0  0  0  0  0  0  0
    7.2457    1.1301    0.0100 H   0  0  0  0  0  0  0  0  0  0  0  0
    3.4623    1.9696   -1.1881 H   0  0  0  0  0  0  0  0  0  0  0  0
    5.2037    2.2193   -1.0577 H   0  0  0  0  0  0  0  0  0  0  0  0
    4.1671    2.4258    0.3709 H   0  0  0  0  0  0  0  0  0  0  0  0
    2.4231   -0.3053   -2.0088 H   0  0  0  0  0  0  0  0  0  0  0  0
    1.9990   -1.7802   -1.1456 H   0  0  0  0  0  0  0  0  0  0  0  0
    0.9165   -1.6560    1.0075 H   0  0  0  0  0  0  0  0  0  0  0  0
    1.8511   -0.3845    1.8213 H   0  0  0  0  0  0  0  0  0  0  0  0
   -0.0420    0.9297    2.1913 H   0  0  0  0  0  0  0  0  0  0  0  0
   -0.8953   -0.6014    2.0551 H   0  0  0  0  0  0  0  0  0  0  0  0
   -0.7015    1.7155    0.2477 H   0  0  0  0  0  0  0  0  0  0  0  0
   -1.3023   -2.1637    0.5632 H   0  0  0  0  0  0  0  0  0  0  0  0
   -3.8621   -3.4599   -0.5454 H   0  0  0  0  0  0  0  0  0  0  0  0
   -2.3946   -4.3068    0.1107 H   0  0  0  0  0  0  0  0  0  0  0  0
   -0.9903   -3.2590   -1.6940 H   0  0  0  0  0  0  0  0  0  0  0  0
   -2.4634   -2.4039   -2.3384 H   0  0  0  0  0  0  0  0  0  0  0  0
   -2.5106    2.4730    0.1804 H   0  0  0  0  0  0  0  0  0  0  0  0
   -4.2774    0.6465    1.7787 H   0  0  0  0  0  0  0  0  0  0  0  0
   -3.4838    2.1530    2.1584 H   0  0  0  0  0  0  0  0  0  0  0  0
   -6.1084    1.7396    0.6555 H   0  0  0  0  0  0  0  0  0  0  0  0
   -5.7646    2.7528    2.0602 H   0  0  0  0  0  0  0  0  0  0  0  0
   -4.2062    3.9491   -1.5027 H   0  0  0  0  0  0  0  0  0  0  0  0
   -5.7145    3.0497   -1.6423 H   0  0  0  0  0  0  0  0  0  0  0  0
   -3.3461    1.8418   -2.0536 H   0  0  0  0  0  0  0  0  0  0  0  0
   -4.6975    1.0066   -1.3268 H   0  0  0  0  0  0  0  0  0  0  0  0
   -0.2406   -0.8236   -1.3218 H   0  0  0  0  0  0  0  0  0  0  0  0
    0.1109    0.8562   -1.7273 H   0  0  0  0  0  0  0  0  0  0  0  0
  1  2  1  0
  2  3  2  0
  3  4  1  0
  4  5  1  0
  4  6  1  0
  6  7  1  0
  6  8  2  0
  8  9  1  0
  9 10  1  0
 10 11  1  0
 11 12  1  0
 12 13  1  0
 13 14  1  0
 14 15  1  0
 15 16  2  0
 15 17  1  0
 17 18  1  0
 18 19  1  0
 14 20  1  0
 20 21  1  0
 21 22  1  0
 22 23  1  0
 23 24  1  0
 24 25  1  0
 13 26  1  0
  8  2  1  0
 26 10  1  0
 19 17  1  0
 25 20  1  0
  1 27  1  0
  1 28  1  0
  1 29  1  0
  5 30  1  0
  5 31  1  0
  5 32  1  0
  7 33  1  0
  7 34  1  0
  7 35  1  0
  9 36  1  0
  9 37  1  0
 11 38  1  0
 11 39  1  0
 12 40  1  0
 12 41  1  0
 13 42  1  0
 17 43  1  0
 18 44  1  0
 18 45  1  0
 19 46  1  0
 19 47  1  0
 20 48  1  0
 21 49  1  0
 21 50  1  0
 22 51  1  0
 22 52  1  0
 24 53  1  0
 24 54  1  0
 25 55  1  0
 25 56  1  0
 26 57  1  0
 26 58  1  0
M  END
$$$$
