
     RDKit          3D

 73 76  0  0  0  0  0  0  0  0999 V2000
    5.9297   -2.6798    0.3267 C   0  0  0  0  0  0  0  0  0  0  0  0
    6.1111   -1.9602   -0.9997 C   0  0  0  0  0  0  0  0  0  0  0  0
    4.8727   -1.1683   -1.3322 C   0  0  0  0  0  0  0  0  0  0  0  0
    3.8292   -1.6646   -1.7409 O   0  0  0  0  0  0  0  0  0  0  0  0
    5.0522    0.1463   -1.0420 O   0  0  0  0  0  0  0  0  0  0  0  0
    3.8596    0.9369   -1.0881 C   0  0  0  0  0  0  0  0  0  0  0  0
    2.8671    0.6157    0.0201 C   0  0  0  0  0  0  0  0  0  0  0  0
    3.2023   -0.1441    0.9447 O   0  0  0  0  0  0  0  0  0  0  0  0
    1.4354    1.2322    0.0165 C   0  0  1  0  0  0  0  0  0  0  0  0
    1.1756    1.4915    1.4484 O   0  0  0  0  0  0  0  0  0  0  0  0
    1.9931    2.3737    2.0982 C   0  0  0  0  0  0  0  0  0  0  0  0
    2.8855    3.0103    1.5603 O   0  0  0  0  0  0  0  0  0  0  0  0
    1.6120    2.4285    3.5559 C   0  0  0  0  0  0  0  0  0  0  0  0
    2.2393    3.6099    4.2688 C   0  0  0  0  0  0  0  0  0  0  0  0
    0.9492    2.5346   -0.7360 C   0  0  1  0  0  0  0  0  0  0  0  0
    1.7357    3.0863   -1.9137 C   0  0  0  0  0  0  0  0  0  0  0  0
   -0.5251    2.2486   -1.1750 C   0  0  0  0  0  0  0  0  0  0  0  0
   -0.9169    1.0096   -0.3786 C   0  0  1  0  0  0  0  0  0  0  0  0
   -2.1932    0.2395   -0.7575 C   0  0  2  0  0  0  0  0  0  0  0  0
   -3.4301    1.1609   -0.7813 C   0  0  0  0  0  0  0  0  0  0  0  0
   -4.7150    0.3980   -1.1136 C   0  0  0  0  0  0  0  0  0  0  0  0
   -4.8978   -0.8046   -0.2294 C   0  0  0  0  0  0  0  0  0  0  0  0
   -6.0114   -0.9447    0.5102 C   0  0  0  0  0  0  0  0  0  0  0  0
   -6.2039   -2.1022    1.4133 C   0  0  0  0  0  0  0  0  0  0  0  0
   -7.2374   -2.2320    2.0593 O   0  0  0  0  0  0  0  0  0  0  0  0
   -5.1181   -3.0969    1.4859 C   0  0  0  0  0  0  0  0  0  0  0  0
   -4.0022   -2.9574    0.7588 C   0  0  0  0  0  0  0  0  0  0  0  0
   -3.7257   -1.8005   -0.2020 C   0  0  1  0  0  0  0  0  0  0  0  0
   -3.6654   -2.4761   -1.6050 C   0  0  0  0  0  0  0  0  0  0  0  0
   -2.4022   -1.0076    0.1942 C   0  0  2  0  0  0  0  0  0  0  0  0
   -2.6438   -0.3802    1.9324 Cl  0  0  0  0  0  0  0  0  0  0  0  0
   -1.0987   -1.8763    0.2611 C   0  0  1  0  0  0  0  0  0  0  0  0
   -0.9058   -2.6173   -0.9382 O   0  0  0  0  0  0  0  0  0  0  0  0
    0.1862   -1.0546    0.5366 C   0  0  0  0  0  0  0  0  0  0  0  0
    0.3721    0.1517   -0.4220 C   0  0  2  0  0  0  0  0  0  0  0  0
    0.6972   -0.3698   -1.8454 C   0  0  0  0  0  0  0  0  0  0  0  0
    5.0718   -3.3553    0.2845 H   0  0  0  0  0  0  0  0  0  0  0  0
    5.7538   -1.9664    1.1363 H   0  0  0  0  0  0  0  0  0  0  0  0
    6.8231   -3.2591    0.5745 H   0  0  0  0  0  0  0  0  0  0  0  0
    6.2841   -2.6709   -1.8138 H   0  0  0  0  0  0  0  0  0  0  0  0
    6.9848   -1.2990   -0.9645 H   0  0  0  0  0  0  0  0  0  0  0  0
    4.1989    1.9583   -0.9169 H   0  0  0  0  0  0  0  0  0  0  0  0
    3.3976    0.8638   -2.0728 H   0  0  0  0  0  0  0  0  0  0  0  0
    0.5237    2.5075    3.6316 H   0  0  0  0  0  0  0  0  0  0  0  0
    1.9345    1.4971    4.0256 H   0  0  0  0  0  0  0  0  0  0  0  0
    1.8450    3.6968    5.2816 H   0  0  0  0  0  0  0  0  0  0  0  0
    2.0207    4.5482    3.7468 H   0  0  0  0  0  0  0  0  0  0  0  0
    3.3227    3.4994    4.3379 H   0  0  0  0  0  0  0  0  0  0  0  0
    0.8801    3.3556   -0.0105 H   0  0  0  0  0  0  0  0  0  0  0  0
    1.3576    4.0979   -2.1865 H   0  0  0  0  0  0  0  0  0  0  0  0
    1.6425    2.4766   -2.8171 H   0  0  0  0  0  0  0  0  0  0  0  0
    2.7956    3.2242   -1.6693 H   0  0  0  0  0  0  0  0  0  0  0  0
   -1.1585    3.0992   -0.9247 H   0  0  0  0  0  0  0  0  0  0  0  0
   -0.6089    2.0797   -2.2491 H   0  0  0  0  0  0  0  0  0  0  0  0
   -1.0700    1.3766    0.6461 H   0  0  0  0  0  0  0  0  0  0  0  0
   -2.0706   -0.1267   -1.7815 H   0  0  0  0  0  0  0  0  0  0  0  0
   -3.5386    1.6745    0.1775 H   0  0  0  0  0  0  0  0  0  0  0  0
   -3.3009    1.9486   -1.5377 H   0  0  0  0  0  0  0  0  0  0  0  0
   -4.6971    0.0779   -2.1591 H   0  0  0  0  0  0  0  0  0  0  0  0
   -5.5687    1.0841   -1.0254 H   0  0  0  0  0  0  0  0  0  0  0  0
   -6.8150   -0.2167    0.5081 H   0  0  0  0  0  0  0  0  0  0  0  0
   -5.2764   -3.9316    2.1537 H   0  0  0  0  0  0  0  0  0  0  0  0
   -3.2387   -3.7238    0.8372 H   0  0  0  0  0  0  0  0  0  0  0  0
   -3.0613   -3.3889   -1.5989 H   0  0  0  0  0  0  0  0  0  0  0  0
   -3.2536   -1.8160   -2.3805 H   0  0  0  0  0  0  0  0  0  0  0  0
   -4.6649   -2.7768   -1.9362 H   0  0  0  0  0  0  0  0  0  0  0  0
   -1.1959   -2.6205    1.0562 H   0  0  0  0  0  0  0  0  0  0  0  0
   -0.2129   -3.2798   -0.7757 H   0  0  0  0  0  0  0  0  0  0  0  0
    1.0576   -1.7162    0.4460 H   0  0  0  0  0  0  0  0  0  0  0  0
    0.1633   -0.7158    1.5777 H   0  0  0  0  0  0  0  0  0  0  0  0
    1.0801    0.4075   -2.5078 H   0  0  0  0  0  0  0  0  0  0  0  0
    1.4515   -1.1509   -1.8247 H   0  0  0  0  0  0  0  0  0  0  0  0
   -0.1695   -0.7964   -2.3592 H   0  0  0  0  0  0  0  0  0  0  0  0
  1  2  1  0
  2  3  1  0
  3  4  2  0
  3  5  1  0
  5  6  1  0
  6  7  1  0
  7  8  2  0
  7  9  1  0
  9 10  1  1
 10 11  1  0
 11 12  2  0
 11 13  1  0
 13 14  1  0
  9 15  1  0
 15 16  1  0
 15 17  1  0
 17 18  1  0
 18 19  1  0
 19 20  1  0
 20 21  1  0
 21 22  1  0
 22 23  2  0
 23 24  1  0
 24 25  2  0
 24 26  1  0
 26 27  2  0
 27 28  1  0
 28 29  1  6
 28 30  1  0
 30 31  1  1
 30 32  1  0
 32 33  1  0
 32 34  1  0
 34 35  1  0
 35 36  1  6
 35  9  1  0
 35 18  1  0
 30 19  1  0
 28 22  1  0
  1 37  1  0
  1 38  1  0
  1 39  1  0
  2 40  1  0
  2 41  1  0
  6 42  1  0
  6 43  1  0
 13 44  1  0
 13 45  1  0
 14 46  1  0
 14 47  1  0
 14 48  1  0
 15 49  1  1
 16 50  1  0
 16 51  1  0
 16 52  1  0
 17 53  1  0
 17 54  1  0
 18 55  1  1
 19 56  1  6
 20 57  1  0
 20 58  1  0
 21 59  1  0
 21 60  1  0
 23 61  1  0
 26 62  1  0
 27 63  1  0
 29 64  1  0
 29 65  1  0
 29 66  1  0
 32 67  1  1
 33 68  1  0
 34 69  1  0
 34 70  1  0
 36 71  1  0
 36 72  1  0
 36 73  1  0
M  END
$$$$
