
     RDKit          3D

 52 54  0  0  0  0  0  0  0  0999 V2000
    7.8386    0.8881   -0.9106 N   0  0  0  0  0  0  0  0  0  0  0  0
    7.5630    0.1677    0.1882 C   0  0  0  0  0  0  0  0  0  0  0  0
    6.5459    0.4247    0.9739 N   0  0  0  0  0  0  0  0  0  0  0  0
    6.5160   -0.4789    2.0325 C   0  0  0  0  0  0  0  0  0  0  0  0
    5.4172   -0.3570    3.0358 C   0  0  0  0  0  0  0  0  0  0  0  0
    4.0766   -0.8274    2.4905 C   0  0  0  0  0  0  0  0  0  0  0  0
    3.3690   -1.5796    3.1577 O   0  0  0  0  0  0  0  0  0  0  0  0
    3.7577   -0.2788    1.2598 N   0  0  0  0  0  0  0  0  0  0  0  0
    2.5792   -0.4511    0.5100 C   0  0  0  0  0  0  0  0  0  0  0  0
    1.4671   -1.1648    0.9552 C   0  0  0  0  0  0  0  0  0  0  0  0
    0.3285   -1.2799    0.1495 C   0  0  0  0  0  0  0  0  0  0  0  0
    0.2849   -0.6834   -1.1159 C   0  0  0  0  0  0  0  0  0  0  0  0
   -0.9558   -0.7880   -1.9689 C   0  0  0  0  0  0  0  0  0  0  0  0
   -1.9594    0.3290   -1.6449 C   0  0  0  0  0  0  0  0  0  0  0  0
   -3.1525    0.3388   -2.4979 N   0  0  0  0  0  0  0  0  0  0  0  0
   -4.0234   -0.8366   -2.3524 C   0  0  0  0  0  0  0  0  0  0  0  0
   -4.5617   -1.1803   -0.9360 C   0  0  2  0  0  0  0  0  0  0  0  0
   -5.4117   -2.3307   -1.0572 O   0  0  0  0  0  0  0  0  0  0  0  0
   -5.3179   -0.0949   -0.1929 C   0  0  0  0  0  0  0  0  0  0  0  0
   -6.0808    0.8817   -0.8490 C   0  0  0  0  0  0  0  0  0  0  0  0
   -6.7918    1.8395   -0.1215 C   0  0  0  0  0  0  0  0  0  0  0  0
   -6.7589    1.8281    1.2710 C   0  0  0  0  0  0  0  0  0  0  0  0
   -6.0167    0.8577    1.9392 C   0  0  0  0  0  0  0  0  0  0  0  0
   -5.3051   -0.0989    1.2131 C   0  0  0  0  0  0  0  0  0  0  0  0
    1.3979    0.0377   -1.5599 C   0  0  0  0  0  0  0  0  0  0  0  0
    2.5345    0.1498   -0.7534 C   0  0  0  0  0  0  0  0  0  0  0  0
    7.5326   -1.4138    2.0204 C   0  0  0  0  0  0  0  0  0  0  0  0
    8.5460   -1.1555    0.6638 S   0  0  0  0  0  0  0  0  0  0  0  0
    8.7954    0.8680   -1.2439 H   0  0  0  0  0  0  0  0  0  0  0  0
    7.4240    1.8124   -0.9357 H   0  0  0  0  0  0  0  0  0  0  0  0
    5.3109    0.6863    3.3537 H   0  0  0  0  0  0  0  0  0  0  0  0
    5.6558   -0.9496    3.9266 H   0  0  0  0  0  0  0  0  0  0  0  0
    4.5018    0.2573    0.8135 H   0  0  0  0  0  0  0  0  0  0  0  0
    1.4489   -1.6417    1.9295 H   0  0  0  0  0  0  0  0  0  0  0  0
   -0.5254   -1.8402    0.5247 H   0  0  0  0  0  0  0  0  0  0  0  0
   -1.4062   -1.7758   -1.8128 H   0  0  0  0  0  0  0  0  0  0  0  0
   -0.6739   -0.7468   -3.0288 H   0  0  0  0  0  0  0  0  0  0  0  0
   -2.2450    0.3000   -0.5870 H   0  0  0  0  0  0  0  0  0  0  0  0
   -1.4640    1.2989   -1.7798 H   0  0  0  0  0  0  0  0  0  0  0  0
   -2.8695    0.4192   -3.4739 H   0  0  0  0  0  0  0  0  0  0  0  0
   -3.5154   -1.7225   -2.7551 H   0  0  0  0  0  0  0  0  0  0  0  0
   -4.8788   -0.6968   -3.0262 H   0  0  0  0  0  0  0  0  0  0  0  0
   -3.7098   -1.4959   -0.3213 H   0  0  0  0  0  0  0  0  0  0  0  0
   -6.2355   -2.1381   -0.5751 H   0  0  0  0  0  0  0  0  0  0  0  0
   -6.1252    0.9176   -1.9342 H   0  0  0  0  0  0  0  0  0  0  0  0
   -7.3693    2.5974   -0.6451 H   0  0  0  0  0  0  0  0  0  0  0  0
   -7.3105    2.5761    1.8345 H   0  0  0  0  0  0  0  0  0  0  0  0
   -5.9897    0.8456    3.0262 H   0  0  0  0  0  0  0  0  0  0  0  0
   -4.7346   -0.8529    1.7535 H   0  0  0  0  0  0  0  0  0  0  0  0
    1.3899    0.5190   -2.5354 H   0  0  0  0  0  0  0  0  0  0  0  0
    3.3854    0.7137   -1.1284 H   0  0  0  0  0  0  0  0  0  0  0  0
    7.7217   -2.2156    2.7203 H   0  0  0  0  0  0  0  0  0  0  0  0
  1  2  1  0
  2  3  2  0
  3  4  1  0
  4  5  1  0
  5  6  1  0
  6  7  2  0
  6  8  1  0
  8  9  1  0
  9 10  2  0
 10 11  1  0
 11 12  2  0
 12 13  1  0
 13 14  1  0
 14 15  1  0
 15 16  1  0
 16 17  1  0
 17 18  1  0
 17 19  1  0
 19 20  2  0
 20 21  1  0
 21 22  2  0
 22 23  1  0
 23 24  2  0
 12 25  1  0
 25 26  2  0
  4 27  2  0
 27 28  1  0
 28  2  1  0
 26  9  1  0
 24 19  1  0
  1 29  1  0
  1 30  1  0
  5 31  1  0
  5 32  1  0
  8 33  1  0
 10 34  1  0
 11 35  1  0
 13 36  1  0
 13 37  1  0
 14 38  1  0
 14 39  1  0
 15 40  1  0
 16 41  1  0
 16 42  1  0
 17 43  1  1
 18 44  1  0
 20 45  1  0
 21 46  1  0
 22 47  1  0
 23 48  1  0
 24 49  1  0
 25 50  1  0
 26 51  1  0
 27 52  1  0
M  END
$$$$
