
     RDKit          3D

 57 61  0  0  0  0  0  0  0  0999 V2000
   -6.5322   -1.2725    3.3374 C   0  0  0  0  0  0  0  0  0  0  0  0
   -5.5525   -1.5269    2.3378 O   0  0  0  0  0  0  0  0  0  0  0  0
   -5.6367   -0.7886    1.1900 C   0  0  0  0  0  0  0  0  0  0  0  0
   -6.5674    0.2177    0.9251 C   0  0  0  0  0  0  0  0  0  0  0  0
   -6.5522    0.9074   -0.2942 C   0  0  0  0  0  0  0  0  0  0  0  0
   -7.5264    1.8605   -0.4192 O   0  0  0  0  0  0  0  0  0  0  0  0
   -7.5698    2.5796   -1.6440 C   0  0  0  0  0  0  0  0  0  0  0  0
   -5.5911    0.5922   -1.2519 C   0  0  0  0  0  0  0  0  0  0  0  0
   -4.6462   -0.4026   -0.9809 C   0  0  0  0  0  0  0  0  0  0  0  0
   -3.6539   -0.7366   -2.0274 C   0  0  0  0  0  0  0  0  0  0  0  0
   -4.0708   -0.9387   -3.1664 O   0  0  0  0  0  0  0  0  0  0  0  0
   -2.3073   -0.8011   -1.6899 N   0  0  0  0  0  0  0  0  0  0  0  0
   -1.7185   -0.2348   -0.4698 C   0  0  0  0  0  0  0  0  0  0  0  0
   -0.2700    0.2477   -0.6686 C   0  0  0  0  0  0  0  0  0  0  0  0
    0.6018   -0.8305   -1.1892 N   0  0  0  0  0  0  0  0  0  0  0  0
    1.9644   -0.8648   -0.8566 C   0  0  0  0  0  0  0  0  0  0  0  0
    2.7293   -1.9278   -1.1840 C   0  0  0  0  0  0  0  0  0  0  0  0
    4.1665   -1.9813   -0.8436 C   0  0  0  0  0  0  0  0  0  0  0  0
    4.8299   -2.9628   -1.1674 O   0  0  0  0  0  0  0  0  0  0  0  0
    4.6115   -0.8717   -0.1727 N   0  0  0  0  0  0  0  0  0  0  0  0
    5.9162   -0.7293    0.2319 N   0  0  0  0  0  0  0  0  0  0  0  0
    6.0593    0.4117    0.8380 C   0  0  0  0  0  0  0  0  0  0  0  0
    7.3545    0.8728    1.3969 C   0  0  0  0  0  0  0  0  0  0  0  0
    8.4602    0.0130    1.3023 C   0  0  0  0  0  0  0  0  0  0  0  0
    9.7035    0.3945    1.8109 C   0  0  0  0  0  0  0  0  0  0  0  0
    9.8559    1.6390    2.4163 C   0  0  0  0  0  0  0  0  0  0  0  0
    8.7669    2.5026    2.5143 C   0  0  0  0  0  0  0  0  0  0  0  0
    7.5197    2.1232    2.0084 C   0  0  0  0  0  0  0  0  0  0  0  0
    4.6127    1.3975    0.9652 S   0  0  0  0  0  0  0  0  0  0  0  0
    3.7599    0.1496    0.1189 C   0  0  0  0  0  0  0  0  0  0  0  0
    2.5087    0.2078   -0.1755 N   0  0  0  0  0  0  0  0  0  0  0  0
   -0.0480   -1.7683   -2.1326 C   0  0  0  0  0  0  0  0  0  0  0  0
   -1.3566   -1.2163   -2.7196 C   0  0  0  0  0  0  0  0  0  0  0  0
   -4.6810   -1.1051    0.2259 C   0  0  0  0  0  0  0  0  0  0  0  0
   -7.5365   -1.5069    2.9717 H   0  0  0  0  0  0  0  0  0  0  0  0
   -6.4731   -0.2400    3.6970 H   0  0  0  0  0  0  0  0  0  0  0  0
   -6.3215   -1.9303    4.1854 H   0  0  0  0  0  0  0  0  0  0  0  0
   -7.3288    0.4911    1.6487 H   0  0  0  0  0  0  0  0  0  0  0  0
   -6.6487    3.1482   -1.7997 H   0  0  0  0  0  0  0  0  0  0  0  0
   -7.7694    1.9112   -2.4876 H   0  0  0  0  0  0  0  0  0  0  0  0
   -8.3956    3.2944   -1.5812 H   0  0  0  0  0  0  0  0  0  0  0  0
   -5.5509    1.0935   -2.2136 H   0  0  0  0  0  0  0  0  0  0  0  0
   -1.7323   -1.0275    0.2856 H   0  0  0  0  0  0  0  0  0  0  0  0
   -2.3330    0.5960   -0.1105 H   0  0  0  0  0  0  0  0  0  0  0  0
    0.0907    0.6138    0.2997 H   0  0  0  0  0  0  0  0  0  0  0  0
   -0.2466    1.0888   -1.3718 H   0  0  0  0  0  0  0  0  0  0  0  0
    2.3545   -2.8017   -1.6971 H   0  0  0  0  0  0  0  0  0  0  0  0
    8.3652   -0.9649    0.8329 H   0  0  0  0  0  0  0  0  0  0  0  0
   10.5518   -0.2817    1.7336 H   0  0  0  0  0  0  0  0  0  0  0  0
   10.8243    1.9362    2.8109 H   0  0  0  0  0  0  0  0  0  0  0  0
    8.8881    3.4750    2.9856 H   0  0  0  0  0  0  0  0  0  0  0  0
    6.6972    2.8260    2.1058 H   0  0  0  0  0  0  0  0  0  0  0  0
   -0.2539   -2.7043   -1.6005 H   0  0  0  0  0  0  0  0  0  0  0  0
    0.6224   -1.9927   -2.9700 H   0  0  0  0  0  0  0  0  0  0  0  0
   -1.8187   -1.9691   -3.3679 H   0  0  0  0  0  0  0  0  0  0  0  0
   -1.1493   -0.3342   -3.3384 H   0  0  0  0  0  0  0  0  0  0  0  0
   -3.9761   -1.9105    0.4156 H   0  0  0  0  0  0  0  0  0  0  0  0
  1  2  1  0
  2  3  1  0
  3  4  2  0
  4  5  1  0
  5  6  1  0
  6  7  1  0
  5  8  2  0
  8  9  1  0
  9 10  1  0
 10 11  2  0
 10 12  1  0
 12 13  1  0
 13 14  1  0
 14 15  1  0
 15 16  1  0
 16 17  2  0
 17 18  1  0
 18 19  2  0
 18 20  1  0
 20 21  1  0
 21 22  2  0
 22 23  1  0
 23 24  2  0
 24 25  1  0
 25 26  2  0
 26 27  1  0
 27 28  2  0
 22 29  1  0
 29 30  1  0
 30 31  2  0
 15 32  1  0
 32 33  1  0
  9 34  2  0
 34  3  1  0
 33 12  1  0
 31 16  1  0
 30 20  1  0
 28 23  1  0
  1 35  1  0
  1 36  1  0
  1 37  1  0
  4 38  1  0
  7 39  1  0
  7 40  1  0
  7 41  1  0
  8 42  1  0
 13 43  1  0
 13 44  1  0
 14 45  1  0
 14 46  1  0
 17 47  1  0
 24 48  1  0
 25 49  1  0
 26 50  1  0
 27 51  1  0
 28 52  1  0
 32 53  1  0
 32 54  1  0
 33 55  1  0
 33 56  1  0
 34 57  1  0
M  END
$$$$
