
     RDKit          3D

 62 65  0  0  0  0  0  0  0  0999 V2000
    9.5073    0.8080    1.1927 C   0  0  0  0  0  0  0  0  0  0  0  0
    9.1548   -0.4628    0.4375 C   0  0  0  0  0  0  0  0  0  0  0  0
    8.2733   -0.1846   -0.6504 O   0  0  0  0  0  0  0  0  0  0  0  0
    6.9369   -0.0527   -0.4039 C   0  0  0  0  0  0  0  0  0  0  0  0
    6.2863   -0.2889    0.8044 C   0  0  0  0  0  0  0  0  0  0  0  0
    4.8996   -0.1038    0.9124 C   0  0  0  0  0  0  0  0  0  0  0  0
    4.1502    0.3362   -0.1784 C   0  0  0  0  0  0  0  0  0  0  0  0
    2.7501    0.5166   -0.1588 N   0  0  0  0  0  0  0  0  0  0  0  0
    1.8697    0.7678    0.8904 C   0  0  0  0  0  0  0  0  0  0  0  0
    2.3047    1.4379    2.3710 S   0  0  0  0  0  0  0  0  0  0  0  0
    0.5307    0.4494    0.5315 N   0  0  0  0  0  0  0  0  0  0  0  0
   -0.6050    0.8085    1.3906 C   0  0  0  0  0  0  0  0  0  0  0  0
   -1.9050    1.0250    0.6130 C   0  0  0  0  0  0  0  0  0  0  0  0
   -2.1696   -0.0268   -0.4847 C   0  0  0  0  0  0  0  0  0  0  0  0
   -3.6627   -0.5023   -0.6389 C   0  0  0  0  0  0  0  0  0  0  0  0
   -3.7013   -1.3186   -1.8368 O   0  0  0  0  0  0  0  0  0  0  0  0
   -4.2432   -1.4383    0.4383 C   0  0  0  0  0  0  0  0  0  0  0  0
   -5.4241   -2.1586    0.1480 C   0  0  0  0  0  0  0  0  0  0  0  0
   -6.0288   -2.9963    1.0882 C   0  0  0  0  0  0  0  0  0  0  0  0
   -5.4666   -3.1382    2.3501 C   0  0  0  0  0  0  0  0  0  0  0  0
   -4.3047   -2.4420    2.6677 C   0  0  0  0  0  0  0  0  0  0  0  0
   -3.7053   -1.5979    1.7246 C   0  0  0  0  0  0  0  0  0  0  0  0
   -4.5657    0.7272   -0.9012 C   0  0  0  0  0  0  0  0  0  0  0  0
   -5.3330    1.3082    0.1273 C   0  0  0  0  0  0  0  0  0  0  0  0
   -6.1225    2.4380   -0.1043 C   0  0  0  0  0  0  0  0  0  0  0  0
   -6.1569    3.0199   -1.3673 C   0  0  0  0  0  0  0  0  0  0  0  0
   -5.4031    2.4720   -2.3993 C   0  0  0  0  0  0  0  0  0  0  0  0
   -4.6153    1.3398   -2.1693 C   0  0  0  0  0  0  0  0  0  0  0  0
   -1.1402   -1.1688   -0.4284 C   0  0  0  0  0  0  0  0  0  0  0  0
    0.2760   -0.5978   -0.4688 C   0  0  0  0  0  0  0  0  0  0  0  0
    4.8024    0.5384   -1.3989 C   0  0  0  0  0  0  0  0  0  0  0  0
    6.1834    0.3507   -1.5065 C   0  0  0  0  0  0  0  0  0  0  0  0
   10.2771    0.6120    1.9463 H   0  0  0  0  0  0  0  0  0  0  0  0
    9.8761    1.5746    0.5012 H   0  0  0  0  0  0  0  0  0  0  0  0
    8.6310    1.2291    1.6950 H   0  0  0  0  0  0  0  0  0  0  0  0
   10.0735   -0.8626   -0.0074 H   0  0  0  0  0  0  0  0  0  0  0  0
    8.7733   -1.2518    1.0949 H   0  0  0  0  0  0  0  0  0  0  0  0
    6.8170   -0.6268    1.6871 H   0  0  0  0  0  0  0  0  0  0  0  0
    4.4305   -0.3451    1.8610 H   0  0  0  0  0  0  0  0  0  0  0  0
    2.3400    0.7107   -1.0609 H   0  0  0  0  0  0  0  0  0  0  0  0
   -0.3946    1.7255    1.9478 H   0  0  0  0  0  0  0  0  0  0  0  0
   -0.7217    0.0035    2.1255 H   0  0  0  0  0  0  0  0  0  0  0  0
   -1.8568    2.0103    0.1296 H   0  0  0  0  0  0  0  0  0  0  0  0
   -2.7280    1.0930    1.3307 H   0  0  0  0  0  0  0  0  0  0  0  0
   -1.9305    0.4952   -1.4270 H   0  0  0  0  0  0  0  0  0  0  0  0
   -3.0952   -0.9363   -2.4874 H   0  0  0  0  0  0  0  0  0  0  0  0
   -5.8877   -2.0595   -0.8335 H   0  0  0  0  0  0  0  0  0  0  0  0
   -6.9422   -3.5274    0.8293 H   0  0  0  0  0  0  0  0  0  0  0  0
   -5.9329   -3.7886    3.0852 H   0  0  0  0  0  0  0  0  0  0  0  0
   -3.8638   -2.5491    3.6557 H   0  0  0  0  0  0  0  0  0  0  0  0
   -2.8105   -1.0753    2.0377 H   0  0  0  0  0  0  0  0  0  0  0  0
   -5.3324    0.8853    1.1305 H   0  0  0  0  0  0  0  0  0  0  0  0
   -6.7127    2.8593    0.7054 H   0  0  0  0  0  0  0  0  0  0  0  0
   -6.7733    3.8963   -1.5477 H   0  0  0  0  0  0  0  0  0  0  0  0
   -5.4298    2.9226   -3.3886 H   0  0  0  0  0  0  0  0  0  0  0  0
   -4.0436    0.9438   -3.0032 H   0  0  0  0  0  0  0  0  0  0  0  0
   -1.2590   -1.7686    0.4794 H   0  0  0  0  0  0  0  0  0  0  0  0
   -1.2661   -1.8529   -1.2751 H   0  0  0  0  0  0  0  0  0  0  0  0
    0.9999   -1.4095   -0.3269 H   0  0  0  0  0  0  0  0  0  0  0  0
    0.4586   -0.1574   -1.4564 H   0  0  0  0  0  0  0  0  0  0  0  0
    4.2534    0.8580   -2.2805 H   0  0  0  0  0  0  0  0  0  0  0  0
    6.6780    0.5267   -2.4587 H   0  0  0  0  0  0  0  0  0  0  0  0
  1  2  1  0
  2  3  1  0
  3  4  1  0
  4  5  2  0
  5  6  1  0
  6  7  2  0
  7  8  1  0
  8  9  1  0
  9 10  2  0
  9 11  1  0
 11 12  1  0
 12 13  1  0
 13 14  1  0
 14 15  1  0
 15 16  1  0
 15 17  1  0
 17 18  2  0
 18 19  1  0
 19 20  2  0
 20 21  1  0
 21 22  2  0
 15 23  1  0
 23 24  2  0
 24 25  1  0
 25 26  2  0
 26 27  1  0
 27 28  2  0
 14 29  1  0
 29 30  1  0
  7 31  1  0
 31 32  2  0
 32  4  1  0
 30 11  1  0
 22 17  1  0
 28 23  1  0
  1 33  1  0
  1 34  1  0
  1 35  1  0
  2 36  1  0
  2 37  1  0
  5 38  1  0
  6 39  1  0
  8 40  1  0
 12 41  1  0
 12 42  1  0
 13 43  1  0
 13 44  1  0
 14 45  1  0
 16 46  1  0
 18 47  1  0
 19 48  1  0
 20 49  1  0
 21 50  1  0
 22 51  1  0
 24 52  1  0
 25 53  1  0
 26 54  1  0
 27 55  1  0
 28 56  1  0
 29 57  1  0
 29 58  1  0
 30 59  1  0
 30 60  1  0
 31 61  1  0
 32 62  1  0
M  END
$$$$
