
     RDKit          3D

 45 47  0  0  0  0  0  0  0  0999 V2000
   -1.6569    2.6402   -0.0861 C   0  0  0  0  0  0  0  0  0  0  0  0
   -1.4622    1.2915   -1.2876 S   0  0  0  0  0  0  0  0  0  0  0  0
   -3.0099    0.4251   -1.0195 C   0  0  0  0  0  0  0  0  0  0  0  0
   -4.1916    1.1312   -1.3189 C   0  0  0  0  0  0  0  0  0  0  0  0
   -5.4478    0.5366   -1.1873 C   0  0  0  0  0  0  0  0  0  0  0  0
   -5.5463   -0.7832   -0.7695 C   0  0  0  0  0  0  0  0  0  0  0  0
   -4.3870   -1.5047   -0.4873 C   0  0  0  0  0  0  0  0  0  0  0  0
   -3.1100   -0.9169   -0.6043 C   0  0  0  0  0  0  0  0  0  0  0  0
   -1.9649   -1.8248   -0.2741 C   0  0  0  0  0  0  0  0  0  0  0  0
   -2.0958   -3.0196   -0.5261 O   0  0  0  0  0  0  0  0  0  0  0  0
   -0.8667   -1.2463    0.3305 N   0  0  0  0  0  0  0  0  0  0  0  0
    0.2705   -1.8980    0.8734 C   0  0  0  0  0  0  0  0  0  0  0  0
    0.3513   -3.2894    1.0060 C   0  0  0  0  0  0  0  0  0  0  0  0
    1.4642   -3.8975    1.6014 C   0  0  0  0  0  0  0  0  0  0  0  0
    2.5159   -3.1257    2.0850 C   0  0  0  0  0  0  0  0  0  0  0  0
    2.4641   -1.7416    1.9565 C   0  0  0  0  0  0  0  0  0  0  0  0
    1.3619   -1.1345    1.3310 C   0  0  0  0  0  0  0  0  0  0  0  0
    1.3769    0.3393    1.1997 C   0  0  0  0  0  0  0  0  0  0  0  0
    0.5067    0.9756    1.7895 O   0  0  0  0  0  0  0  0  0  0  0  0
    2.3617    0.9253    0.4086 N   0  0  0  0  0  0  0  0  0  0  0  0
    3.1255    0.2002   -0.6181 C   0  0  0  0  0  0  0  0  0  0  0  0
    4.2221    1.0805   -1.2271 C   0  0  0  0  0  0  0  0  0  0  0  0
    3.7265    2.2926   -1.8106 O   0  0  0  0  0  0  0  0  0  0  0  0
    2.5466    2.8074   -1.1747 C   0  0  0  0  0  0  0  0  0  0  0  0
    2.4086    2.3849    0.2907 C   0  0  0  0  0  0  0  0  0  0  0  0
   -2.4701    3.3095   -0.3782 H   0  0  0  0  0  0  0  0  0  0  0  0
   -0.7337    3.2235   -0.0529 H   0  0  0  0  0  0  0  0  0  0  0  0
   -1.8563    2.2410    0.9121 H   0  0  0  0  0  0  0  0  0  0  0  0
   -4.1468    2.1571   -1.6799 H   0  0  0  0  0  0  0  0  0  0  0  0
   -6.3457    1.1020   -1.4247 H   0  0  0  0  0  0  0  0  0  0  0  0
   -6.5197   -1.2577   -0.6725 H   0  0  0  0  0  0  0  0  0  0  0  0
   -4.4801   -2.5438   -0.1720 H   0  0  0  0  0  0  0  0  0  0  0  0
   -0.8713   -0.2311    0.4079 H   0  0  0  0  0  0  0  0  0  0  0  0
   -0.4521   -3.9406    0.6753 H   0  0  0  0  0  0  0  0  0  0  0  0
    1.4935   -4.9806    1.6984 H   0  0  0  0  0  0  0  0  0  0  0  0
    3.3678   -3.6020    2.5631 H   0  0  0  0  0  0  0  0  0  0  0  0
    3.2791   -1.1332    2.3410 H   0  0  0  0  0  0  0  0  0  0  0  0
    3.5686   -0.7044   -0.1975 H   0  0  0  0  0  0  0  0  0  0  0  0
    2.4078   -0.0971   -1.3920 H   0  0  0  0  0  0  0  0  0  0  0  0
    4.7566    0.5322   -2.0091 H   0  0  0  0  0  0  0  0  0  0  0  0
    4.9567    1.3564   -0.4611 H   0  0  0  0  0  0  0  0  0  0  0  0
    1.6836    2.4619   -1.7546 H   0  0  0  0  0  0  0  0  0  0  0  0
    2.5807    3.8985   -1.2534 H   0  0  0  0  0  0  0  0  0  0  0  0
    3.2893    2.7102    0.8569 H   0  0  0  0  0  0  0  0  0  0  0  0
    1.5287    2.8495    0.7435 H   0  0  0  0  0  0  0  0  0  0  0  0
  1  2  1  0
  2  3  1  0
  3  4  2  0
  4  5  1  0
  5  6  2  0
  6  7  1  0
  7  8  2  0
  8  9  1  0
  9 10  2  0
  9 11  1  0
 11 12  1  0
 12 13  2  0
 13 14  1  0
 14 15  2  0
 15 16  1  0
 16 17  2  0
 17 18  1  0
 18 19  2  0
 18 20  1  0
 20 21  1  0
 21 22  1  0
 22 23  1  0
 23 24  1  0
 24 25  1  0
  8  3  1  0
 17 12  1  0
 25 20  1  0
  1 26  1  0
  1 27  1  0
  1 28  1  0
  4 29  1  0
  5 30  1  0
  6 31  1  0
  7 32  1  0
 11 33  1  0
 13 34  1  0
 14 35  1  0
 15 36  1  0
 16 37  1  0
 21 38  1  0
 21 39  1  0
 22 40  1  0
 22 41  1  0
 24 42  1  0
 24 43  1  0
 25 44  1  0
 25 45  1  0
M  END
$$$$
