
     RDKit          3D

 56 58  0  0  0  0  0  0  0  0999 V2000
    4.7838    3.6254    1.2969 N   0  0  0  0  0  0  0  0  0  0  0  0
    5.2336    3.0353    0.1598 C   0  0  0  0  0  0  0  0  0  0  0  0
    5.9065    3.6526   -0.6563 O   0  0  0  0  0  0  0  0  0  0  0  0
    4.8522    1.6233   -0.0928 C   0  0  0  0  0  0  0  0  0  0  0  0
    4.4405    0.7663    0.9199 C   0  0  0  0  0  0  0  0  0  0  0  0
    4.0815   -0.5380    0.5994 C   0  0  0  0  0  0  0  0  0  0  0  0
    4.1293   -0.9821   -0.6783 N   0  0  0  0  0  4  0  0  0  0  0  0
    3.6878   -2.3751   -0.9964 C   0  0  0  0  0  0  0  0  0  0  0  0
    2.1844   -2.4778   -0.8836 C   0  0  0  0  0  0  0  0  0  0  0  0
    1.5836   -3.1840    0.1042 C   0  0  0  0  0  0  0  0  0  0  0  0
    2.5210   -3.9660    1.0750 C   0  0  0  0  0  0  0  0  0  0  0  0
    2.7209   -5.1666    0.7378 O   0  0  0  0  0  0  0  0  0  0  0  0
    3.1641   -3.2315    1.8745 O   0  0  0  0  0  1  0  0  0  0  0  0
    0.2195   -3.1949    0.2618 N   0  0  0  0  0  0  0  0  0  0  0  0
   -0.5187   -3.1368    1.4022 C   0  0  0  0  0  0  0  0  0  0  0  0
   -0.2713   -3.4098    2.5533 O   0  0  0  0  0  0  0  0  0  0  0  0
   -1.7141   -2.5051    0.6233 C   0  0  1  0  0  0  0  0  0  0  0  0
   -2.2260   -1.1867    1.0935 N   0  0  0  0  0  0  0  0  0  0  0  0
   -3.1450   -0.4836    0.3201 C   0  0  0  0  0  0  0  0  0  0  0  0
   -3.4683   -0.9251   -0.7881 O   0  0  0  0  0  0  0  0  0  0  0  0
   -3.5472    0.8780    0.8700 C   0  0  1  0  0  0  0  0  0  0  0  0
   -4.3220    1.7824   -0.0834 C   0  0  0  0  0  0  0  0  0  0  0  0
   -3.9239    3.1212   -0.2356 C   0  0  0  0  0  0  0  0  0  0  0  0
   -4.6040    3.9765   -1.1080 C   0  0  0  0  0  0  0  0  0  0  0  0
   -5.6903    3.5069   -1.8450 C   0  0  0  0  0  0  0  0  0  0  0  0
   -6.1122    2.1902   -1.6917 C   0  0  0  0  0  0  0  0  0  0  0  0
   -5.4397    1.3373   -0.8108 C   0  0  0  0  0  0  0  0  0  0  0  0
   -4.4149    0.6757    2.4181 S   0  0  0  0  0  6  0  0  0  0  0  0
   -3.4904   -0.1495    3.2046 O   0  0  0  0  0  0  0  0  0  0  0  0
   -5.6688    0.0022    2.0841 O   0  0  0  0  0  0  0  0  0  0  0  0
   -4.5563    2.0347    2.9378 O   0  0  0  0  0  1  0  0  0  0  0  0
   -0.7366   -2.4975   -0.5906 C   0  0  1  0  0  0  0  0  0  0  0  0
   -0.0268   -0.8950   -1.1345 S   0  0  0  0  0  0  0  0  0  0  0  0
    1.3951   -1.7038   -1.9027 C   0  0  0  0  0  0  0  0  0  0  0  0
    4.5706   -0.1719   -1.6672 C   0  0  0  0  0  0  0  0  0  0  0  0
    4.9350    1.1405   -1.4013 C   0  0  0  0  0  0  0  0  0  0  0  0
    0.0000    0.0000    0.0000 Na  0  0  0  0  0 15  0  0  0  0  0  0
    4.0609    3.2444    1.8927 H   0  0  0  0  0  0  0  0  0  0  0  0
    4.9932    4.6129    1.4094 H   0  0  0  0  0  0  0  0  0  0  0  0
    4.3997    1.0755    1.9639 H   0  0  0  0  0  0  0  0  0  0  0  0
    3.7396   -1.2192    1.3721 H   0  0  0  0  0  0  0  0  0  0  0  0
    4.2782   -3.0360   -0.3585 H   0  0  0  0  0  0  0  0  0  0  0  0
    3.9906   -2.6061   -2.0249 H   0  0  0  0  0  0  0  0  0  0  0  0
   -2.5422   -3.2189    0.5171 H   0  0  0  0  0  0  0  0  0  0  0  0
   -2.3456   -1.0396    2.1099 H   0  0  0  0  0  0  0  0  0  0  0  0
   -2.6023    1.3831    1.1248 H   0  0  0  0  0  0  0  0  0  0  0  0
   -3.0950    3.5095    0.3534 H   0  0  0  0  0  0  0  0  0  0  0  0
   -4.2893    5.0113   -1.2048 H   0  0  0  0  0  0  0  0  0  0  0  0
   -6.2142    4.1713   -2.5275 H   0  0  0  0  0  0  0  0  0  0  0  0
   -6.9684    1.8211   -2.2510 H   0  0  0  0  0  0  0  0  0  0  0  0
   -5.7967    0.3161   -0.6890 H   0  0  0  0  0  0  0  0  0  0  0  0
   -1.0808   -3.1253   -1.4241 H   0  0  0  0  0  0  0  0  0  0  0  0
    1.0748   -2.3678   -2.7158 H   0  0  0  0  0  0  0  0  0  0  0  0
    1.9892   -0.9107   -2.3535 H   0  0  0  0  0  0  0  0  0  0  0  0
    4.6068   -0.5772   -2.6697 H   0  0  0  0  0  0  0  0  0  0  0  0
    5.2689    1.7880   -2.2102 H   0  0  0  0  0  0  0  0  0  0  0  0
  1  2  1  0
  2  3  2  0
  2  4  1  0
  4  5  2  0
  5  6  1  0
  6  7  2  0
  7  8  1  0
  8  9  1  0
  9 10  2  0
 10 11  1  0
 11 12  2  0
 11 13  1  0
 10 14  1  0
 14 15  1  0
 15 16  2  0
 15 17  1  0
 17 18  1  0
 18 19  1  0
 19 20  2  0
 19 21  1  0
 21 22  1  0
 22 23  2  0
 23 24  1  0
 24 25  2  0
 25 26  1  0
 26 27  2  0
 21 28  1  0
 28 29  2  0
 28 30  2  0
 28 31  1  0
 17 32  1  0
 32 33  1  0
 33 34  1  0
  7 35  1  0
 35 36  2  0
 36  4  1  0
 34  9  1  0
 32 14  1  0
 27 22  1  0
  1 38  1  0
  1 39  1  0
  5 40  1  0
  6 41  1  0
  8 42  1  0
  8 43  1  0
 17 44  1  6
 18 45  1  0
 21 46  1  1
 23 47  1  0
 24 48  1  0
 25 49  1  0
 26 50  1  0
 27 51  1  0
 32 52  1  6
 34 53  1  0
 34 54  1  0
 35 55  1  0
 36 56  1  0
M  CHG  4   7   1  13  -1  31  -1  37   1
M  END
$$$$
