
     RDKit          3D

 53 57  0  0  0  0  0  0  0  0999 V2000
   -8.1840    0.1116    1.4523 C   0  0  0  0  0  0  0  0  0  0  0  0
   -6.7623    0.2157    0.9873 C   0  0  0  0  0  0  0  0  0  0  0  0
   -5.9050   -0.8823    1.0921 C   0  0  0  0  0  0  0  0  0  0  0  0
   -4.5908   -0.7986    0.6268 C   0  0  0  0  0  0  0  0  0  0  0  0
   -4.1035    0.3804    0.0385 C   0  0  0  0  0  0  0  0  0  0  0  0
   -2.7852    0.4787   -0.4432 N   0  0  0  0  0  0  0  0  0  0  0  0
   -2.4865   -0.4553   -1.5446 C   0  0  0  0  0  0  0  0  0  0  0  0
   -1.0899   -0.1609   -2.1244 C   0  0  0  0  0  0  0  0  0  0  0  0
   -0.0490    0.0266   -1.1037 N   0  0  0  0  0  0  0  0  0  0  0  0
    1.2650    0.1720   -1.5458 C   0  0  0  0  0  0  0  0  0  0  0  0
    1.5528   -0.0742   -2.7189 O   0  0  0  0  0  0  0  0  0  0  0  0
    2.2968    0.5825   -0.6230 C   0  0  0  0  0  0  0  0  0  0  0  0
    2.1365    1.9425    0.4033 S   0  0  0  0  0  0  0  0  0  0  0  0
    3.6471    1.8356    1.0861 N   0  0  0  0  0  0  0  0  0  0  0  0
    4.3192    0.8590    0.4708 C   0  0  0  0  0  0  0  0  0  0  0  0
    5.7177    0.5347    0.7400 C   0  0  0  0  0  0  0  0  0  0  0  0
    6.3957    1.1587    1.5561 O   0  0  0  0  0  0  0  0  0  0  0  0
    6.2205   -0.5406   -0.0301 N   0  0  0  0  0  0  0  0  0  0  0  0
    7.6159   -0.9035    0.1662 C   0  0  0  0  0  0  0  0  0  0  0  0
    8.0456   -2.3322    0.4168 C   0  0  0  0  0  0  0  0  0  0  0  0
    8.1477   -1.3224    1.5173 C   0  0  0  0  0  0  0  0  0  0  0  0
    5.5325   -1.1686   -1.0826 C   0  0  0  0  0  0  0  0  0  0  0  0
    6.0435   -1.9869   -1.8484 O   0  0  0  0  0  0  0  0  0  0  0  0
    4.2110   -0.8368   -1.2622 N   0  0  0  0  0  0  0  0  0  0  0  0
    3.5993    0.1449   -0.5187 C   0  0  0  0  0  0  0  0  0  0  0  0
   -0.4795   -0.2205    0.2790 C   0  0  0  0  0  0  0  0  0  0  0  0
   -1.7680    0.5498    0.6330 C   0  0  0  0  0  0  0  0  0  0  0  0
   -4.9669    1.4876   -0.0766 C   0  0  0  0  0  0  0  0  0  0  0  0
   -4.4956    2.7739   -0.7029 C   0  0  0  0  0  0  0  0  0  0  0  0
   -6.2880    1.3925    0.3944 C   0  0  0  0  0  0  0  0  0  0  0  0
   -8.7845   -0.4111    0.7019 H   0  0  0  0  0  0  0  0  0  0  0  0
   -8.2423   -0.4349    2.3989 H   0  0  0  0  0  0  0  0  0  0  0  0
   -8.6209    1.1017    1.6209 H   0  0  0  0  0  0  0  0  0  0  0  0
   -6.2545   -1.8120    1.5356 H   0  0  0  0  0  0  0  0  0  0  0  0
   -3.9459   -1.6666    0.7309 H   0  0  0  0  0  0  0  0  0  0  0  0
   -2.5166   -1.4938   -1.1894 H   0  0  0  0  0  0  0  0  0  0  0  0
   -3.2306   -0.3576   -2.3450 H   0  0  0  0  0  0  0  0  0  0  0  0
   -0.7923   -0.9743   -2.7960 H   0  0  0  0  0  0  0  0  0  0  0  0
   -1.1180    0.7622   -2.7163 H   0  0  0  0  0  0  0  0  0  0  0  0
    8.2782   -0.2961   -0.4491 H   0  0  0  0  0  0  0  0  0  0  0  0
    8.9594   -2.6701   -0.0612 H   0  0  0  0  0  0  0  0  0  0  0  0
    7.2815   -3.0985    0.4977 H   0  0  0  0  0  0  0  0  0  0  0  0
    7.4584   -1.4105    2.3511 H   0  0  0  0  0  0  0  0  0  0  0  0
    9.1320   -0.9656    1.7982 H   0  0  0  0  0  0  0  0  0  0  0  0
    3.7200   -1.2721   -2.0383 H   0  0  0  0  0  0  0  0  0  0  0  0
   -0.6688   -1.2993    0.3494 H   0  0  0  0  0  0  0  0  0  0  0  0
    0.3043   -0.0155    1.0080 H   0  0  0  0  0  0  0  0  0  0  0  0
   -1.5186    1.6088    0.7761 H   0  0  0  0  0  0  0  0  0  0  0  0
   -2.1450    0.1736    1.5929 H   0  0  0  0  0  0  0  0  0  0  0  0
   -4.1520    2.5973   -1.7289 H   0  0  0  0  0  0  0  0  0  0  0  0
   -3.6808    3.2071   -0.1147 H   0  0  0  0  0  0  0  0  0  0  0  0
   -5.3009    3.5144   -0.7489 H   0  0  0  0  0  0  0  0  0  0  0  0
   -6.9550    2.2489    0.2938 H   0  0  0  0  0  0  0  0  0  0  0  0
  1  2  1  0
  2  3  2  0
  3  4  1  0
  4  5  2  0
  5  6  1  0
  6  7  1  0
  7  8  1  0
  8  9  1  0
  9 10  1  0
 10 11  2  0
 10 12  1  0
 12 13  1  0
 13 14  1  0
 14 15  2  0
 15 16  1  0
 16 17  2  0
 16 18  1  0
 18 19  1  0
 19 20  1  0
 20 21  1  0
 18 22  1  0
 22 23  2  0
 22 24  1  0
 24 25  1  0
  9 26  1  0
 26 27  1  0
  5 28  1  0
 28 29  1  0
 28 30  2  0
 30  2  1  0
 27  6  1  0
 25 12  2  0
 25 15  1  0
 21 19  1  0
  1 31  1  0
  1 32  1  0
  1 33  1  0
  3 34  1  0
  4 35  1  0
  7 36  1  0
  7 37  1  0
  8 38  1  0
  8 39  1  0
 19 40  1  0
 20 41  1  0
 20 42  1  0
 21 43  1  0
 21 44  1  0
 24 45  1  0
 26 46  1  0
 26 47  1  0
 27 48  1  0
 27 49  1  0
 29 50  1  0
 29 51  1  0
 29 52  1  0
 30 53  1  0
M  END
$$$$
