
     RDKit          3D

 12 11  0  0  0  0  0  0  0  0999 V2000
    0.7087   -1.5628    0.5313 O   0  0  0  0  0  0  0  0  0  0  0  0
    1.2630   -0.5377    0.1896 C   0  0  0  0  0  0  0  0  0  0  0  0
    2.5385   -0.5195   -0.2296 O   0  0  0  0  0  0  0  0  0  0  0  0
    0.7295    0.8308    0.1998 C   0  0  0  0  0  0  0  0  0  0  0  0
   -0.5763    1.1293    0.1791 C   0  0  0  0  0  0  0  0  0  0  0  0
   -1.6564    0.1493    0.0442 C   0  0  0  0  0  0  0  0  0  0  0  0
   -2.6623    0.1218    0.7273 O   0  0  0  0  0  0  0  0  0  0  0  0
   -1.4750   -0.6526   -1.0146 O   0  0  0  0  0  0  0  0  0  0  0  0
    2.8048   -1.4624   -0.2024 H   0  0  0  0  0  0  0  0  0  0  0  0
    1.4668    1.6222    0.2688 H   0  0  0  0  0  0  0  0  0  0  0  0
   -0.9099    2.1547    0.2823 H   0  0  0  0  0  0  0  0  0  0  0  0
   -2.2313   -1.2732   -0.9759 H   0  0  0  0  0  0  0  0  0  0  0  0
  1  2  2  0
  2  3  1  0
  2  4  1  0
  4  5  2  0
  5  6  1  0
  6  7  2  0
  6  8  1  0
  3  9  1  0
  4 10  1  0
  5 11  1  0
  8 12  1  0
M  END
$$$$
