
     RDKit          3D

 40 41  0  0  0  0  0  0  0  0999 V2000
    0.9835    3.5210    0.2364 C   0  0  0  0  0  0  0  0  0  0  0  0
    0.4970    2.1258   -0.1259 C   0  0  0  0  0  0  0  0  0  0  0  0
    0.0229    1.3651    1.1103 C   0  0  0  0  0  0  0  0  0  0  0  0
   -0.2825   -0.0634    0.8462 N   0  0  0  0  0  0  0  0  0  0  0  0
   -1.2000   -0.3870   -0.2752 C   0  0  0  0  0  0  0  0  0  0  0  0
   -2.6285    0.0891    0.0309 C   0  0  0  0  0  0  0  0  0  0  0  0
   -3.2648   -0.6650    1.1847 C   0  0  0  0  0  0  0  0  0  0  0  0
   -3.7742   -1.9303    0.5250 C   0  0  0  0  0  0  0  0  0  0  0  0
   -4.0453   -1.6040   -0.8469 O   0  0  0  0  0  0  0  0  0  0  0  0
   -3.5737   -0.2751   -1.1035 C   0  0  0  0  0  0  0  0  0  0  0  0
    0.8549   -1.2342    1.3203 S   0  0  0  0  0  6  0  0  0  0  0  0
    1.3829   -0.8272    2.6076 O   0  0  0  0  0  0  0  0  0  0  0  0
    0.2808   -2.5515    1.1578 O   0  0  0  0  0  0  0  0  0  0  0  0
    2.1628   -1.0558    0.1502 C   0  0  0  0  0  0  0  0  0  0  0  0
    3.3655   -0.4559    0.5394 C   0  0  0  0  0  0  0  0  0  0  0  0
    4.3965   -0.3482   -0.3863 C   0  0  0  0  0  0  0  0  0  0  0  0
    5.5465    0.2338   -0.0253 F   0  0  0  0  0  0  0  0  0  0  0  0
    4.2542   -0.8343   -1.6826 C   0  0  0  0  0  0  0  0  0  0  0  0
    3.0571   -1.4421   -2.0606 C   0  0  0  0  0  0  0  0  0  0  0  0
    2.0159   -1.5542   -1.1396 C   0  0  0  0  0  0  0  0  0  0  0  0
    0.8760   -2.1260   -1.5450 F   0  0  0  0  0  0  0  0  0  0  0  0
    0.1881    4.1017    0.7143 H   0  0  0  0  0  0  0  0  0  0  0  0
    1.3021    4.0565   -0.6633 H   0  0  0  0  0  0  0  0  0  0  0  0
    1.8356    3.4735    0.9221 H   0  0  0  0  0  0  0  0  0  0  0  0
   -0.3204    2.2220   -0.8491 H   0  0  0  0  0  0  0  0  0  0  0  0
    1.3060    1.5869   -0.6283 H   0  0  0  0  0  0  0  0  0  0  0  0
   -0.8740    1.8408    1.5237 H   0  0  0  0  0  0  0  0  0  0  0  0
    0.7781    1.4478    1.8994 H   0  0  0  0  0  0  0  0  0  0  0  0
   -0.8338    0.0692   -1.2007 H   0  0  0  0  0  0  0  0  0  0  0  0
   -1.2129   -1.4651   -0.4613 H   0  0  0  0  0  0  0  0  0  0  0  0
   -2.6320    1.1705    0.2002 H   0  0  0  0  0  0  0  0  0  0  0  0
   -2.6014   -0.8669    2.0299 H   0  0  0  0  0  0  0  0  0  0  0  0
   -4.1174   -0.0883    1.5650 H   0  0  0  0  0  0  0  0  0  0  0  0
   -3.0206   -2.7244    0.5400 H   0  0  0  0  0  0  0  0  0  0  0  0
   -4.6849   -2.3090    0.9978 H   0  0  0  0  0  0  0  0  0  0  0  0
   -3.1110   -0.2343   -2.0941 H   0  0  0  0  0  0  0  0  0  0  0  0
   -4.4476    0.3862   -1.1075 H   0  0  0  0  0  0  0  0  0  0  0  0
    3.5143   -0.0759    1.5463 H   0  0  0  0  0  0  0  0  0  0  0  0
    5.0765   -0.7403   -2.3858 H   0  0  0  0  0  0  0  0  0  0  0  0
    2.9279   -1.8317   -3.0665 H   0  0  0  0  0  0  0  0  0  0  0  0
  1  2  1  0
  2  3  1  0
  3  4  1  0
  4  5  1  0
  5  6  1  0
  6  7  1  0
  7  8  1  0
  8  9  1  0
  9 10  1  0
  4 11  1  0
 11 12  2  0
 11 13  2  0
 11 14  1  0
 14 15  2  0
 15 16  1  0
 16 17  1  0
 16 18  2  0
 18 19  1  0
 19 20  2  0
 20 21  1  0
 10  6  1  0
 20 14  1  0
  1 22  1  0
  1 23  1  0
  1 24  1  0
  2 25  1  0
  2 26  1  0
  3 27  1  0
  3 28  1  0
  5 29  1  0
  5 30  1  0
  6 31  1  0
  7 32  1  0
  7 33  1  0
  8 34  1  0
  8 35  1  0
 10 36  1  0
 10 37  1  0
 15 38  1  0
 18 39  1  0
 19 40  1  0
M  END
$$$$
