
     RDKit          3D

 31 32  0  0  0  0  0  0  0  0999 V2000
    4.6771    0.3535    0.4848 C   0  0  0  0  0  0  0  0  0  0  0  0
    3.3089   -0.1987    0.2551 C   0  0  0  0  0  0  0  0  0  0  0  0
    2.1964    0.5409    0.1713 C   0  0  0  0  0  0  0  0  0  0  0  0
    0.9424   -0.0074   -0.0401 N   0  0  0  0  0  0  0  0  0  0  0  0
   -0.2174    0.8826   -0.0665 C   0  0  1  0  0  0  0  0  0  0  0  0
   -1.1670    0.7368   -1.2564 C   0  0  0  0  0  0  0  0  0  0  0  0
   -2.4391    0.2015   -0.6383 C   0  0  2  0  0  0  0  0  0  0  0  0
   -3.6082    0.6328   -1.3223 O   0  0  0  0  0  0  0  0  0  0  0  0
   -2.3589    0.7242    0.7921 C   0  0  1  0  0  0  0  0  0  0  0  0
   -3.1938   -0.1019    1.7675 C   0  0  0  0  0  0  0  0  0  0  0  0
   -4.5863    0.0285    1.4972 O   0  0  0  0  0  0  0  0  0  0  0  0
   -0.9693    0.7069    1.1437 O   0  0  0  0  0  0  0  0  0  0  0  0
    0.7674   -1.3812   -0.1344 C   0  0  0  0  0  0  0  0  0  0  0  0
   -0.3133   -1.9437   -0.2906 O   0  0  0  0  0  0  0  0  0  0  0  0
    1.9096   -2.1334   -0.0580 N   0  0  0  0  0  0  0  0  0  0  0  0
    3.1778   -1.6666    0.1216 C   0  0  0  0  0  0  0  0  0  0  0  0
    4.1490   -2.4128    0.1708 O   0  0  0  0  0  0  0  0  0  0  0  0
    5.1061   -0.0534    1.4063 H   0  0  0  0  0  0  0  0  0  0  0  0
    4.6642    1.4446    0.5781 H   0  0  0  0  0  0  0  0  0  0  0  0
    5.3388    0.0994   -0.3498 H   0  0  0  0  0  0  0  0  0  0  0  0
    2.2489    1.6215    0.2770 H   0  0  0  0  0  0  0  0  0  0  0  0
    0.1414    1.9198   -0.0593 H   0  0  0  0  0  0  0  0  0  0  0  0
   -1.3476    1.7193   -1.7108 H   0  0  0  0  0  0  0  0  0  0  0  0
   -0.7823    0.0991   -2.0586 H   0  0  0  0  0  0  0  0  0  0  0  0
   -2.4403   -0.8917   -0.6572 H   0  0  0  0  0  0  0  0  0  0  0  0
   -3.6298    1.6059   -1.3294 H   0  0  0  0  0  0  0  0  0  0  0  0
   -2.7080    1.7648    0.8265 H   0  0  0  0  0  0  0  0  0  0  0  0
   -2.9198   -1.1620    1.7307 H   0  0  0  0  0  0  0  0  0  0  0  0
   -3.0131    0.2336    2.7941 H   0  0  0  0  0  0  0  0  0  0  0  0
   -4.7301   -0.2313    0.5663 H   0  0  0  0  0  0  0  0  0  0  0  0
    1.7961   -3.1318   -0.1336 H   0  0  0  0  0  0  0  0  0  0  0  0
  1  2  1  0
  2  3  2  0
  3  4  1  0
  4  5  1  0
  5  6  1  0
  6  7  1  0
  7  8  1  0
  7  9  1  0
  9 10  1  0
 10 11  1  0
  9 12  1  0
  4 13  1  0
 13 14  2  0
 13 15  1  0
 15 16  1  0
 16 17  2  0
 16  2  1  0
 12  5  1  0
  1 18  1  0
  1 19  1  0
  1 20  1  0
  3 21  1  0
  5 22  1  1
  6 23  1  0
  6 24  1  0
  7 25  1  1
  8 26  1  0
  9 27  1  6
 10 28  1  0
 10 29  1  0
 11 30  1  0
 15 31  1  0
M  END
$$$$
