
     RDKit          3D

 84 86  0  0  0  0  0  0  0  0999 V2000
   -2.9087    4.1859   -1.4670 C   0  0  0  0  0  0  0  0  0  0  0  0
   -3.7476    4.0903   -0.2012 C   0  0  0  0  0  0  0  0  0  0  0  0
   -3.4633    2.8289    0.6188 C   0  0  0  0  0  0  0  0  0  0  0  0
   -3.8759    1.5565   -0.0405 C   0  0  0  0  0  0  0  0  0  0  0  0
   -5.1064    1.4099   -0.5694 N   0  0  0  0  0  0  0  0  0  0  0  0
   -5.1144    0.1412   -1.0454 N   0  0  0  0  0  0  0  0  0  0  0  0
   -6.2954   -0.3770   -1.6926 C   0  0  0  0  0  0  0  0  0  0  0  0
   -3.9492   -0.5189   -0.8180 C   0  0  0  0  0  0  0  0  0  0  0  0
   -3.5507   -1.8441   -1.1151 C   0  0  0  0  0  0  0  0  0  0  0  0
   -4.2234   -2.6826   -1.7030 O   0  0  0  0  0  0  0  0  0  0  0  0
   -2.2789   -2.0956   -0.6549 N   0  0  0  0  0  0  0  0  0  0  0  0
   -1.4756   -1.1659   -0.0040 C   0  0  0  0  0  0  0  0  0  0  0  0
   -0.1113   -1.6374    0.4328 C   0  0  0  0  0  0  0  0  0  0  0  0
    0.6114   -0.7714    1.2754 C   0  0  0  0  0  0  0  0  0  0  0  0
    1.8866   -1.1201    1.7206 C   0  0  0  0  0  0  0  0  0  0  0  0
    2.7757   -0.0266    2.8107 S   0  0  0  0  0  6  0  0  0  0  0  0
    3.7876   -0.8207    3.4759 O   0  0  0  0  0  0  0  0  0  0  0  0
    1.7922    0.7168    3.5668 O   0  0  0  0  0  0  0  0  0  0  0  0
    3.5575    1.0370    1.7528 N   0  0  0  0  0  0  0  0  0  0  0  0
    2.7119    2.0310    1.0371 C   0  0  0  0  0  0  0  0  0  0  0  0
    3.5939    3.1241    0.3957 C   0  0  0  0  0  0  0  0  0  0  0  0
    4.6771    2.6221   -0.4771 N   0  0  0  0  0  0  0  0  0  0  0  0
    4.1656    2.1111   -1.7461 C   0  0  0  0  0  0  0  0  0  0  0  0
    5.4622    1.6076    0.2558 C   0  0  0  0  0  0  0  0  0  0  0  0
    4.6326    0.4733    0.8935 C   0  0  0  0  0  0  0  0  0  0  0  0
    2.4391   -2.3518    1.3774 C   0  0  0  0  0  0  0  0  0  0  0  0
    1.7269   -3.2239    0.5515 C   0  0  0  0  0  0  0  0  0  0  0  0
    0.4594   -2.8788    0.0593 C   0  0  0  0  0  0  0  0  0  0  0  0
   -0.2772   -3.6897   -0.7657 O   0  0  0  0  0  0  0  0  0  0  0  0
    0.2555   -4.9345   -1.2219 C   0  0  0  0  0  0  0  0  0  0  0  0
   -0.0698   -6.0479   -0.2423 C   0  0  0  0  0  0  0  0  0  0  0  0
   -1.8444    0.0620    0.2478 N   0  0  0  0  0  0  0  0  0  0  0  0
   -3.1379    0.3690   -0.1790 C   0  0  0  0  0  0  0  0  0  0  0  0
   -3.4067   -0.7693   -0.0708 O   0  0  0  0  0  0  0  0  0  0  0  0
   -2.3767   -0.6582   -0.7124 C   0  0  0  0  0  0  0  0  0  0  0  0
   -1.9780   -1.6454   -1.5380 O   0  0  0  0  0  0  0  0  0  0  0  0
   -1.4584    0.5277   -0.7446 C   0  0  0  0  0  0  0  0  0  0  0  0
   -0.2087    0.3600    0.1295 C   0  0  0  0  0  0  0  0  0  0  0  0
   -0.6509    0.2610    1.4898 O   0  0  0  0  0  0  0  0  0  0  0  0
    0.6237   -0.8748   -0.2338 C   0  0  0  0  0  0  0  0  0  0  0  0
    1.9956   -0.8443    0.3780 C   0  0  0  0  0  0  0  0  0  0  0  0
    3.0532   -0.8355   -0.2269 O   0  0  0  0  0  0  0  0  0  0  0  0
    1.9736   -0.8435    1.7245 O   0  0  0  0  0  0  0  0  0  0  0  0
    0.6451    1.6231   -0.0810 C   0  0  0  0  0  0  0  0  0  0  0  0
    0.8900    2.1692   -1.1431 O   0  0  0  0  0  0  0  0  0  0  0  0
    1.1788    2.0957    1.0662 O   0  0  0  0  0  0  0  0  0  0  0  0
   -3.1337    5.1229   -1.9924 H   0  0  0  0  0  0  0  0  0  0  0  0
   -3.1190    3.3586   -2.1522 H   0  0  0  0  0  0  0  0  0  0  0  0
   -1.8384    4.1780   -1.2322 H   0  0  0  0  0  0  0  0  0  0  0  0
   -3.5313    4.9656    0.4224 H   0  0  0  0  0  0  0  0  0  0  0  0
   -4.8094    4.1465   -0.4673 H   0  0  0  0  0  0  0  0  0  0  0  0
   -2.3940    2.7931    0.8643 H   0  0  0  0  0  0  0  0  0  0  0  0
   -3.9988    2.9054    1.5749 H   0  0  0  0  0  0  0  0  0  0  0  0
   -7.0547    0.4076   -1.7455 H   0  0  0  0  0  0  0  0  0  0  0  0
   -6.6715   -1.2162   -1.1027 H   0  0  0  0  0  0  0  0  0  0  0  0
   -6.0258   -0.6981   -2.7018 H   0  0  0  0  0  0  0  0  0  0  0  0
   -1.9207   -3.0240   -0.8374 H   0  0  0  0  0  0  0  0  0  0  0  0
    0.1753    0.1754    1.5923 H   0  0  0  0  0  0  0  0  0  0  0  0
    2.1157    1.5313    0.2672 H   0  0  0  0  0  0  0  0  0  0  0  0
    2.0281    2.5176    1.7399 H   0  0  0  0  0  0  0  0  0  0  0  0
    2.9587    3.8280   -0.1578 H   0  0  0  0  0  0  0  0  0  0  0  0
    4.0586    3.7128    1.1989 H   0  0  0  0  0  0  0  0  0  0  0  0
    4.9921    1.7851   -2.3865 H   0  0  0  0  0  0  0  0  0  0  0  0
    3.4742    1.2714   -1.6302 H   0  0  0  0  0  0  0  0  0  0  0  0
    3.6480    2.9068   -2.2932 H   0  0  0  0  0  0  0  0  0  0  0  0
    6.0110    2.1252    1.0532 H   0  0  0  0  0  0  0  0  0  0  0  0
    6.2291    1.1787   -0.4015 H   0  0  0  0  0  0  0  0  0  0  0  0
    5.3069   -0.1459    1.4939 H   0  0  0  0  0  0  0  0  0  0  0  0
    4.1950   -0.1569    0.1130 H   0  0  0  0  0  0  0  0  0  0  0  0
    3.4157   -2.6482    1.7559 H   0  0  0  0  0  0  0  0  0  0  0  0
    2.1926   -4.1779    0.3257 H   0  0  0  0  0  0  0  0  0  0  0  0
   -0.2468   -5.1556   -2.1703 H   0  0  0  0  0  0  0  0  0  0  0  0
    1.3220   -4.8783   -1.4593 H   0  0  0  0  0  0  0  0  0  0  0  0
   -1.1548   -6.1302   -0.1039 H   0  0  0  0  0  0  0  0  0  0  0  0
    0.3122   -7.0076   -0.6049 H   0  0  0  0  0  0  0  0  0  0  0  0
    0.3589   -5.8507    0.7454 H   0  0  0  0  0  0  0  0  0  0  0  0
   -2.6818   -2.3246   -1.4425 H   0  0  0  0  0  0  0  0  0  0  0  0
   -2.0453    1.3922   -0.4044 H   0  0  0  0  0  0  0  0  0  0  0  0
   -1.2046    0.7302   -1.7936 H   0  0  0  0  0  0  0  0  0  0  0  0
    0.1472    0.3510    2.0498 H   0  0  0  0  0  0  0  0  0  0  0  0
    0.7604   -0.9400   -1.3196 H   0  0  0  0  0  0  0  0  0  0  0  0
    0.1459   -1.8034    0.1000 H   0  0  0  0  0  0  0  0  0  0  0  0
    2.9193   -0.8648    1.9852 H   0  0  0  0  0  0  0  0  0  0  0  0
    1.6783    2.8937    0.7876 H   0  0  0  0  0  0  0  0  0  0  0  0
  1  2  1  0
  2  3  1  0
  3  4  1  0
  4  5  2  0
  5  6  1  0
  6  7  1  0
  6  8  1  0
  8  9  1  0
  9 10  2  0
  9 11  1  0
 11 12  1  0
 12 13  1  0
 13 14  2  0
 14 15  1  0
 15 16  1  0
 16 17  2  0
 16 18  2  0
 16 19  1  0
 19 20  1  0
 20 21  1  0
 21 22  1  0
 22 23  1  0
 22 24  1  0
 24 25  1  0
 15 26  2  0
 26 27  1  0
 27 28  2  0
 28 29  1  0
 29 30  1  0
 30 31  1  0
 12 32  2  0
 32 33  1  0
 34 35  2  0
 35 36  1  0
 35 37  1  0
 37 38  1  0
 38 39  1  0
 38 40  1  0
 40 41  1  0
 41 42  2  0
 41 43  1  0
 38 44  1  0
 44 45  2  0
 44 46  1  0
 33  4  1  0
 33  8  2  0
 28 13  1  0
 25 19  1  0
  1 47  1  0
  1 48  1  0
  1 49  1  0
  2 50  1  0
  2 51  1  0
  3 52  1  0
  3 53  1  0
  7 54  1  0
  7 55  1  0
  7 56  1  0
 11 57  1  0
 14 58  1  0
 20 59  1  0
 20 60  1  0
 21 61  1  0
 21 62  1  0
 23 63  1  0
 23 64  1  0
 23 65  1  0
 24 66  1  0
 24 67  1  0
 25 68  1  0
 25 69  1  0
 26 70  1  0
 27 71  1  0
 30 72  1  0
 30 73  1  0
 31 74  1  0
 31 75  1  0
 31 76  1  0
 36 77  1  0
 37 78  1  0
 37 79  1  0
 39 80  1  0
 40 81  1  0
 40 82  1  0
 43 83  1  0
 46 84  1  0
M  END
$$$$
