
     RDKit          3D

 44 46  0  0  0  0  0  0  0  0999 V2000
    4.9193    2.7389    0.0436 C   0  0  0  0  0  0  0  0  0  0  0  0
    5.1044    1.5379    0.9562 C   0  0  0  0  0  0  0  0  0  0  0  0
    4.2449    0.4273    0.5640 N   0  0  0  0  0  0  0  0  0  0  0  0
    4.7858   -0.4620   -0.3679 N   0  0  0  0  0  0  0  0  0  0  0  0
    4.0525   -1.4508   -0.7817 C   0  0  0  0  0  0  0  0  0  0  0  0
    2.7547   -1.6246   -0.3260 N   0  0  0  0  0  0  0  0  0  0  0  0
    1.8555   -2.6010   -0.6705 C   0  0  0  0  0  0  0  0  0  0  0  0
    0.6934   -2.3702    0.0444 C   0  0  0  0  0  0  0  0  0  0  0  0
   -0.7617   -3.3012   -0.0289 S   0  0  0  0  0  6  0  0  0  0  0  0
   -0.3324   -4.6088   -0.4752 O   0  0  0  0  0  0  0  0  0  0  0  0
   -1.4010   -3.1125    1.2540 O   0  0  0  0  0  0  0  0  0  0  0  0
   -1.7574   -2.6668   -1.2509 N   0  0  0  0  0  0  0  0  0  0  0  0
   -2.2340   -1.3360   -1.0369 C   0  0  0  0  0  0  0  0  0  0  0  0
   -1.5423   -0.2767   -1.6165 C   0  0  0  0  0  0  0  0  0  0  0  0
   -1.9604    1.0360   -1.3899 C   0  0  0  0  0  0  0  0  0  0  0  0
   -3.0650    1.2929   -0.5705 C   0  0  0  0  0  0  0  0  0  0  0  0
   -3.5488    2.5466   -0.2927 O   0  0  0  0  0  0  0  0  0  0  0  0
   -2.7987    3.6600   -0.7568 C   0  0  0  0  0  0  0  0  0  0  0  0
   -3.7521    0.2166    0.0287 C   0  0  0  0  0  0  0  0  0  0  0  0
   -4.8257    0.5469    0.8194 O   0  0  0  0  0  0  0  0  0  0  0  0
   -5.3044   -0.4501    1.7125 C   0  0  0  0  0  0  0  0  0  0  0  0
   -3.3340   -1.0967   -0.2133 C   0  0  0  0  0  0  0  0  0  0  0  0
    0.8991   -1.2084    0.8338 C   0  0  0  0  0  0  0  0  0  0  0  0
    2.1823   -0.7683    0.5736 C   0  0  0  0  0  0  0  0  0  0  0  0
    2.9314    0.3567    1.0673 C   0  0  0  0  0  0  0  0  0  0  0  0
    2.4590    1.1780    1.8479 O   0  0  0  0  0  0  0  0  0  0  0  0
    3.8861    3.1002    0.0709 H   0  0  0  0  0  0  0  0  0  0  0  0
    5.5768    3.5571    0.3527 H   0  0  0  0  0  0  0  0  0  0  0  0
    5.1553    2.4824   -0.9945 H   0  0  0  0  0  0  0  0  0  0  0  0
    4.8762    1.8225    1.9892 H   0  0  0  0  0  0  0  0  0  0  0  0
    6.1460    1.1983    0.9303 H   0  0  0  0  0  0  0  0  0  0  0  0
    4.4518   -2.1731   -1.5114 H   0  0  0  0  0  0  0  0  0  0  0  0
    2.1056   -3.3809   -1.3789 H   0  0  0  0  0  0  0  0  0  0  0  0
   -2.5083   -3.3400   -1.4109 H   0  0  0  0  0  0  0  0  0  0  0  0
   -0.6827   -0.4633   -2.2545 H   0  0  0  0  0  0  0  0  0  0  0  0
   -1.4047    1.8359   -1.8674 H   0  0  0  0  0  0  0  0  0  0  0  0
   -1.7796    3.6476   -0.3562 H   0  0  0  0  0  0  0  0  0  0  0  0
   -2.7941    3.7018   -1.8508 H   0  0  0  0  0  0  0  0  0  0  0  0
   -3.2880    4.5684   -0.3922 H   0  0  0  0  0  0  0  0  0  0  0  0
   -5.8204   -1.2463    1.1665 H   0  0  0  0  0  0  0  0  0  0  0  0
   -4.4975   -0.8543    2.3331 H   0  0  0  0  0  0  0  0  0  0  0  0
   -6.0332    0.0208    2.3793 H   0  0  0  0  0  0  0  0  0  0  0  0
   -3.8464   -1.9393    0.2370 H   0  0  0  0  0  0  0  0  0  0  0  0
    0.1926   -0.7413    1.5115 H   0  0  0  0  0  0  0  0  0  0  0  0
  1  2  1  0
  2  3  1  0
  3  4  1  0
  4  5  2  0
  5  6  1  0
  6  7  1  0
  7  8  2  0
  8  9  1  0
  9 10  2  0
  9 11  2  0
  9 12  1  0
 12 13  1  0
 13 14  2  0
 14 15  1  0
 15 16  2  0
 16 17  1  0
 17 18  1  0
 16 19  1  0
 19 20  1  0
 20 21  1  0
 19 22  2  0
  8 23  1  0
 23 24  2  0
 24 25  1  0
 25 26  2  0
 25  3  1  0
 24  6  1  0
 22 13  1  0
  1 27  1  0
  1 28  1  0
  1 29  1  0
  2 30  1  0
  2 31  1  0
  5 32  1  0
  7 33  1  0
 12 34  1  0
 14 35  1  0
 15 36  1  0
 18 37  1  0
 18 38  1  0
 18 39  1  0
 21 40  1  0
 21 41  1  0
 21 42  1  0
 22 43  1  0
 23 44  1  0
M  END
$$$$
