
     RDKit          3D

 53 55  0  0  0  0  0  0  0  0999 V2000
   -4.6176   -2.2472    2.6772 C   0  0  0  0  0  0  0  0  0  0  0  0
   -4.0136   -1.4700    1.6536 O   0  0  0  0  0  0  0  0  0  0  0  0
   -4.8214   -0.6403    0.9127 C   0  0  0  0  0  0  0  0  0  0  0  0
   -6.2038   -0.5323    1.0982 C   0  0  0  0  0  0  0  0  0  0  0  0
   -6.9541    0.3406    0.3129 C   0  0  0  0  0  0  0  0  0  0  0  0
   -6.3348    1.1141   -0.6666 C   0  0  0  0  0  0  0  0  0  0  0  0
   -4.9545    1.0205   -0.8737 C   0  0  0  0  0  0  0  0  0  0  0  0
   -4.2740    1.7457   -1.8224 O   0  0  0  0  0  0  0  0  0  0  0  0
   -5.0286    2.5690   -2.6996 C   0  0  0  0  0  0  0  0  0  0  0  0
   -4.1762    0.1387   -0.0814 C   0  0  0  0  0  0  0  0  0  0  0  0
   -2.7156    0.0315   -0.2899 C   0  0  0  0  0  0  0  0  0  0  0  0
   -1.8538    1.0658    0.1044 C   0  0  0  0  0  0  0  0  0  0  0  0
   -0.4735    0.9644   -0.0908 C   0  0  0  0  0  0  0  0  0  0  0  0
    0.0789   -0.1774   -0.6859 C   0  0  0  0  0  0  0  0  0  0  0  0
    1.5773   -0.2904   -0.8733 C   0  0  0  0  0  0  0  0  0  0  0  0
    2.3037   -0.6895    0.4241 C   0  0  2  0  0  0  0  0  0  0  0  0
    3.6132   -0.0370    0.5843 N   0  0  0  0  0  0  0  0  0  0  0  0
    4.5779   -0.0974   -0.3977 C   0  0  0  0  0  0  0  0  0  0  0  0
    4.4071   -0.5527   -1.5196 O   0  0  0  0  0  0  0  0  0  0  0  0
    5.9020    0.4142   -0.0082 C   0  0  0  0  0  0  0  0  0  0  0  0
    6.9651   -0.4763    0.1854 C   0  0  0  0  0  0  0  0  0  0  0  0
    6.7832   -2.1888    0.0476 Cl  0  0  0  0  0  0  0  0  0  0  0  0
    8.2290    0.0112    0.5352 C   0  0  0  0  0  0  0  0  0  0  0  0
    8.4364    1.3819    0.6873 C   0  0  0  0  0  0  0  0  0  0  0  0
    7.3797    2.2703    0.4896 C   0  0  0  0  0  0  0  0  0  0  0  0
    6.1128    1.7910    0.1396 C   0  0  0  0  0  0  0  0  0  0  0  0
    4.8598    2.9566   -0.1039 Cl  0  0  0  0  0  0  0  0  0  0  0  0
    2.5116   -2.1941    0.6325 C   0  0  0  0  0  0  0  0  0  0  0  0
    3.2736   -2.6864    1.4570 O   0  0  0  0  0  0  0  0  0  0  0  0
    1.7486   -3.0023   -0.1228 O   0  0  0  0  0  0  0  0  0  0  0  0
   -0.7747   -1.2105   -1.0861 C   0  0  0  0  0  0  0  0  0  0  0  0
   -2.1550   -1.1064   -0.8894 C   0  0  0  0  0  0  0  0  0  0  0  0
   -5.3445   -2.9520    2.2608 H   0  0  0  0  0  0  0  0  0  0  0  0
   -5.0748   -1.6092    3.4407 H   0  0  0  0  0  0  0  0  0  0  0  0
   -3.8296   -2.8315    3.1619 H   0  0  0  0  0  0  0  0  0  0  0  0
   -6.7287   -1.1138    1.8485 H   0  0  0  0  0  0  0  0  0  0  0  0
   -8.0278    0.4190    0.4657 H   0  0  0  0  0  0  0  0  0  0  0  0
   -6.9580    1.7815   -1.2520 H   0  0  0  0  0  0  0  0  0  0  0  0
   -4.3326    3.0276   -3.4087 H   0  0  0  0  0  0  0  0  0  0  0  0
   -5.7491    1.9794   -3.2760 H   0  0  0  0  0  0  0  0  0  0  0  0
   -5.5239    3.3771   -2.1518 H   0  0  0  0  0  0  0  0  0  0  0  0
   -2.2623    1.9627    0.5642 H   0  0  0  0  0  0  0  0  0  0  0  0
    0.1658    1.7872    0.2211 H   0  0  0  0  0  0  0  0  0  0  0  0
    1.7968   -0.9885   -1.6905 H   0  0  0  0  0  0  0  0  0  0  0  0
    1.9300    0.6900   -1.2216 H   0  0  0  0  0  0  0  0  0  0  0  0
    1.7195   -0.3530    1.2902 H   0  0  0  0  0  0  0  0  0  0  0  0
    3.9186    0.1206    1.5368 H   0  0  0  0  0  0  0  0  0  0  0  0
    9.0583   -0.6762    0.6909 H   0  0  0  0  0  0  0  0  0  0  0  0
    9.4216    1.7571    0.9561 H   0  0  0  0  0  0  0  0  0  0  0  0
    7.5514    3.3389    0.6033 H   0  0  0  0  0  0  0  0  0  0  0  0
    2.0337   -3.9033    0.1354 H   0  0  0  0  0  0  0  0  0  0  0  0
   -0.3738   -2.1070   -1.5538 H   0  0  0  0  0  0  0  0  0  0  0  0
   -2.7994   -1.9231   -1.2063 H   0  0  0  0  0  0  0  0  0  0  0  0
  1  2  1  0
  2  3  1  0
  3  4  2  0
  4  5  1  0
  5  6  2  0
  6  7  1  0
  7  8  1  0
  8  9  1  0
  7 10  2  0
 10 11  1  0
 11 12  2  0
 12 13  1  0
 13 14  2  0
 14 15  1  0
 15 16  1  0
 16 17  1  0
 17 18  1  0
 18 19  2  0
 18 20  1  0
 20 21  2  0
 21 22  1  0
 21 23  1  0
 23 24  2  0
 24 25  1  0
 25 26  2  0
 26 27  1  0
 16 28  1  0
 28 29  2  0
 28 30  1  0
 14 31  1  0
 31 32  2  0
 10  3  1  0
 32 11  1  0
 26 20  1  0
  1 33  1  0
  1 34  1  0
  1 35  1  0
  4 36  1  0
  5 37  1  0
  6 38  1  0
  9 39  1  0
  9 40  1  0
  9 41  1  0
 12 42  1  0
 13 43  1  0
 15 44  1  0
 15 45  1  0
 16 46  1  1
 17 47  1  0
 23 48  1  0
 24 49  1  0
 25 50  1  0
 30 51  1  0
 31 52  1  0
 32 53  1  0
M  END
$$$$
