
     RDKit          3D

 55 59  0  0  0  0  0  0  0  0999 V2000
    9.7386    1.1891    1.5026 C   0  0  0  0  0  0  0  0  0  0  0  0
    9.2068    1.9572    0.3053 C   0  0  0  0  0  0  0  0  0  0  0  0
    8.5617    1.0797   -0.6153 O   0  0  0  0  0  0  0  0  0  0  0  0
    7.2323    0.8123   -0.4562 C   0  0  0  0  0  0  0  0  0  0  0  0
    6.4185    1.2402    0.5891 C   0  0  0  0  0  0  0  0  0  0  0  0
    5.0642    0.8804    0.6208 C   0  0  0  0  0  0  0  0  0  0  0  0
    4.5068    0.0819   -0.3851 C   0  0  0  0  0  0  0  0  0  0  0  0
    3.1340   -0.2224   -0.2846 N   0  0  0  0  0  0  0  0  0  0  0  0
    2.4191   -1.1313   -1.0329 C   0  0  0  0  0  0  0  0  0  0  0  0
    2.9089   -1.9283   -1.8281 O   0  0  0  0  0  0  0  0  0  0  0  0
    1.0479   -1.0979   -0.8045 N   0  0  0  0  0  0  0  0  0  0  0  0
    0.2096   -2.1051   -1.4545 C   0  0  0  0  0  0  0  0  0  0  0  0
   -1.0790   -2.3977   -0.6681 C   0  0  0  0  0  0  0  0  0  0  0  0
   -1.8667   -1.1787   -0.3698 N   0  0  0  0  0  0  0  0  0  0  0  0
   -3.2420   -1.1838   -0.0932 C   0  0  0  0  0  0  0  0  0  0  0  0
   -3.8763   -2.3290    0.2348 C   0  0  0  0  0  0  0  0  0  0  0  0
   -5.3254   -2.3551    0.5263 C   0  0  0  0  0  0  0  0  0  0  0  0
   -5.8655   -3.4175    0.8193 O   0  0  0  0  0  0  0  0  0  0  0  0
   -5.9246   -1.1253    0.4294 N   0  0  0  0  0  0  0  0  0  0  0  0
   -7.2667   -0.9362    0.6579 N   0  0  0  0  0  0  0  0  0  0  0  0
   -7.5450    0.3202    0.4973 C   0  0  0  0  0  0  0  0  0  0  0  0
   -8.8517    0.8944    0.6493 C   0  0  0  0  0  0  0  0  0  0  0  0
   -9.3491    2.1813    0.5162 C   0  0  0  0  0  0  0  0  0  0  0  0
  -10.7370    2.1217    0.7949 C   0  0  0  0  0  0  0  0  0  0  0  0
  -11.0105    0.8079    1.0835 C   0  0  0  0  0  0  0  0  0  0  0  0
   -9.8829    0.0600    0.9985 O   0  0  0  0  0  0  0  0  0  0  0  0
   -6.2198    1.3758    0.0643 S   0  0  0  0  0  0  0  0  0  0  0  0
   -5.1962   -0.0223    0.1003 C   0  0  0  0  0  0  0  0  0  0  0  0
   -3.9347    0.0107   -0.1513 N   0  0  0  0  0  0  0  0  0  0  0  0
   -1.1471    0.0997   -0.5615 C   0  0  0  0  0  0  0  0  0  0  0  0
    0.3281   -0.0073   -0.1377 C   0  0  0  0  0  0  0  0  0  0  0  0
    5.3234   -0.3405   -1.4318 C   0  0  0  0  0  0  0  0  0  0  0  0
    6.6757    0.0202   -1.4618 C   0  0  0  0  0  0  0  0  0  0  0  0
   10.3996    0.3800    1.1753 H   0  0  0  0  0  0  0  0  0  0  0  0
   10.2977    1.8521    2.1691 H   0  0  0  0  0  0  0  0  0  0  0  0
    8.9287    0.7251    2.0732 H   0  0  0  0  0  0  0  0  0  0  0  0
    8.5724    2.8011    0.5971 H   0  0  0  0  0  0  0  0  0  0  0  0
   10.0579    2.3940   -0.2292 H   0  0  0  0  0  0  0  0  0  0  0  0
    6.8002    1.8476    1.4018 H   0  0  0  0  0  0  0  0  0  0  0  0
    4.4566    1.2314    1.4506 H   0  0  0  0  0  0  0  0  0  0  0  0
    2.6672    0.1219    0.5380 H   0  0  0  0  0  0  0  0  0  0  0  0
   -0.0351   -1.7222   -2.4530 H   0  0  0  0  0  0  0  0  0  0  0  0
    0.7734   -3.0348   -1.5892 H   0  0  0  0  0  0  0  0  0  0  0  0
   -0.8221   -2.8817    0.2819 H   0  0  0  0  0  0  0  0  0  0  0  0
   -1.6762   -3.1022   -1.2587 H   0  0  0  0  0  0  0  0  0  0  0  0
   -3.3811   -3.2860    0.3166 H   0  0  0  0  0  0  0  0  0  0  0  0
   -8.7827    3.0635    0.2489 H   0  0  0  0  0  0  0  0  0  0  0  0
  -11.4491    2.9353    0.7869 H   0  0  0  0  0  0  0  0  0  0  0  0
  -11.9085    0.2695    1.3542 H   0  0  0  0  0  0  0  0  0  0  0  0
   -1.2158    0.3889   -1.6174 H   0  0  0  0  0  0  0  0  0  0  0  0
   -1.6024    0.9009    0.0329 H   0  0  0  0  0  0  0  0  0  0  0  0
    0.3911   -0.2034    0.9394 H   0  0  0  0  0  0  0  0  0  0  0  0
    0.8335    0.9430   -0.3403 H   0  0  0  0  0  0  0  0  0  0  0  0
    4.9406   -0.9471   -2.2467 H   0  0  0  0  0  0  0  0  0  0  0  0
    7.2989   -0.3226   -2.2847 H   0  0  0  0  0  0  0  0  0  0  0  0
  1  2  1  0
  2  3  1  0
  3  4  1  0
  4  5  2  0
  5  6  1  0
  6  7  2  0
  7  8  1  0
  8  9  1  0
  9 10  2  0
  9 11  1  0
 11 12  1  0
 12 13  1  0
 13 14  1  0
 14 15  1  0
 15 16  2  0
 16 17  1  0
 17 18  2  0
 17 19  1  0
 19 20  1  0
 20 21  2  0
 21 22  1  0
 22 23  2  0
 23 24  1  0
 24 25  2  0
 25 26  1  0
 21 27  1  0
 27 28  1  0
 28 29  2  0
 14 30  1  0
 30 31  1  0
  7 32  1  0
 32 33  2  0
 33  4  1  0
 31 11  1  0
 29 15  1  0
 28 19  1  0
 26 22  1  0
  1 34  1  0
  1 35  1  0
  1 36  1  0
  2 37  1  0
  2 38  1  0
  5 39  1  0
  6 40  1  0
  8 41  1  0
 12 42  1  0
 12 43  1  0
 13 44  1  0
 13 45  1  0
 16 46  1  0
 23 47  1  0
 24 48  1  0
 25 49  1  0
 30 50  1  0
 30 51  1  0
 31 52  1  0
 31 53  1  0
 32 54  1  0
 33 55  1  0
M  END
$$$$
