
     RDKit          3D

 83 90  0  0  0  0  0  0  0  0999 V2000
    4.7843    2.2774    2.3578 C   0  0  0  0  0  0  0  0  0  0  0  0
    5.9024    1.7494    1.7133 C   0  0  0  0  0  0  0  0  0  0  0  0
    5.9917    0.3767    1.4812 C   0  0  0  0  0  0  0  0  0  0  0  0
    4.9562   -0.4837    1.8838 C   0  0  0  0  0  0  0  0  0  0  0  0
    5.0304   -1.9671    1.6069 C   0  0  0  0  0  0  0  0  0  0  0  0
    5.0948   -2.2623    0.1816 N   0  0  0  0  0  0  0  0  0  0  0  0
    4.0848   -2.0576   -0.7418 C   0  0  0  0  0  0  0  0  0  0  0  0
    2.7709   -1.4989   -0.4397 C   0  0  0  0  0  0  0  0  0  0  0  0
    2.4635   -0.2074   -0.8824 C   0  0  0  0  0  0  0  0  0  0  0  0
    1.2179    0.3598   -0.6009 C   0  0  0  0  0  0  0  0  0  0  0  0
    0.2549   -0.3725    0.0937 C   0  0  0  0  0  0  0  0  0  0  0  0
   -0.9941    0.0930    0.4164 O   0  0  0  0  0  0  0  0  0  0  0  0
   -1.5516    0.9987   -0.5353 C   0  0  0  0  0  0  0  0  0  0  0  0
   -3.0500    1.2614   -0.2842 C   0  0  2  0  0  0  0  0  0  0  0  0
   -3.4392    2.0669    0.9991 C   0  0  0  0  0  0  0  0  0  0  0  0
   -2.3633    2.2016    2.0868 C   0  0  0  0  0  0  0  0  0  0  0  0
   -2.9301    2.9015    3.3320 C   0  0  0  0  0  0  0  0  0  0  0  0
   -3.9443    3.9217    3.0498 N   0  0  0  0  0  0  0  0  0  0  0  0
   -3.7440    4.5274    1.7395 C   0  0  0  0  0  0  0  0  0  0  0  0
   -3.8987    3.5039    0.6082 C   0  0  0  0  0  0  0  0  0  0  0  0
   -3.8603    0.0525   -0.5021 N   0  0  0  0  0  0  0  0  0  0  0  0
   -4.5198   -0.2524   -1.6913 C   0  0  0  0  0  0  0  0  0  0  0  0
   -4.4702    0.5499   -2.9114 C   0  0  0  0  0  0  0  0  0  0  0  0
   -3.6332    0.1472   -3.9601 C   0  0  0  0  0  0  0  0  0  0  0  0
   -3.5412    0.9136   -5.1219 C   0  0  0  0  0  0  0  0  0  0  0  0
   -4.3022    2.0772   -5.2490 C   0  0  0  0  0  0  0  0  0  0  0  0
   -5.1650    2.4652   -4.2230 C   0  0  0  0  0  0  0  0  0  0  0  0
   -5.2503    1.7029   -3.0556 C   0  0  0  0  0  0  0  0  0  0  0  0
   -5.1418   -1.4091   -1.5970 N   0  0  0  0  0  0  0  0  0  0  0  0
   -4.8799   -1.8794   -0.3383 C   0  0  0  0  0  0  0  0  0  0  0  0
   -5.3034   -3.0793    0.2571 C   0  0  0  0  0  0  0  0  0  0  0  0
   -4.9036   -3.3679    1.5658 C   0  0  0  0  0  0  0  0  0  0  0  0
   -4.0907   -2.4770    2.2639 C   0  0  0  0  0  0  0  0  0  0  0  0
   -3.6549   -1.2790    1.6841 C   0  0  0  0  0  0  0  0  0  0  0  0
   -4.0719   -0.9955    0.3748 C   0  0  0  0  0  0  0  0  0  0  0  0
    0.5547   -1.6639    0.5335 C   0  0  0  0  0  0  0  0  0  0  0  0
    1.8064   -2.2294    0.2628 C   0  0  0  0  0  0  0  0  0  0  0  0
    4.5007   -2.3561   -1.9586 N   0  0  0  0  0  0  0  0  0  0  0  0
    5.7892   -2.7928   -1.8195 C   0  0  0  0  0  0  0  0  0  0  0  0
    6.6855   -3.2352   -2.8044 C   0  0  0  0  0  0  0  0  0  0  0  0
    7.9679   -3.6417   -2.4183 C   0  0  0  0  0  0  0  0  0  0  0  0
    8.3524   -3.6073   -1.0762 C   0  0  0  0  0  0  0  0  0  0  0  0
    7.4703   -3.1680   -0.0810 C   0  0  0  0  0  0  0  0  0  0  0  0
    6.1914   -2.7639   -0.4881 C   0  0  0  0  0  0  0  0  0  0  0  0
    3.8429    0.0584    2.5456 C   0  0  0  0  0  0  0  0  0  0  0  0
    3.7560    1.4321    2.7742 C   0  0  0  0  0  0  0  0  0  0  0  0
    4.7097    3.3474    2.5282 H   0  0  0  0  0  0  0  0  0  0  0  0
    6.7027    2.4090    1.3848 H   0  0  0  0  0  0  0  0  0  0  0  0
    6.8704   -0.0151    0.9699 H   0  0  0  0  0  0  0  0  0  0  0  0
    4.1695   -2.5103    2.0111 H   0  0  0  0  0  0  0  0  0  0  0  0
    5.9192   -2.3808    2.0939 H   0  0  0  0  0  0  0  0  0  0  0  0
    3.2053    0.3664   -1.4357 H   0  0  0  0  0  0  0  0  0  0  0  0
    1.0346    1.3764   -0.9350 H   0  0  0  0  0  0  0  0  0  0  0  0
   -1.0267    1.9579   -0.4829 H   0  0  0  0  0  0  0  0  0  0  0  0
   -1.4289    0.5943   -1.5481 H   0  0  0  0  0  0  0  0  0  0  0  0
   -3.3328    1.9136   -1.1170 H   0  0  0  0  0  0  0  0  0  0  0  0
   -4.3200    1.5912    1.4590 H   0  0  0  0  0  0  0  0  0  0  0  0
   -1.5125    2.7840    1.7059 H   0  0  0  0  0  0  0  0  0  0  0  0
   -1.9697    1.2309    2.3960 H   0  0  0  0  0  0  0  0  0  0  0  0
   -3.3764    2.1553    4.0004 H   0  0  0  0  0  0  0  0  0  0  0  0
   -2.1021    3.3549    3.8910 H   0  0  0  0  0  0  0  0  0  0  0  0
   -4.8723    3.4942    3.0804 H   0  0  0  0  0  0  0  0  0  0  0  0
   -4.4687    5.3352    1.5993 H   0  0  0  0  0  0  0  0  0  0  0  0
   -2.7569    4.9984    1.6985 H   0  0  0  0  0  0  0  0  0  0  0  0
   -3.3258    3.8758   -0.2526 H   0  0  0  0  0  0  0  0  0  0  0  0
   -4.9507    3.4601    0.2924 H   0  0  0  0  0  0  0  0  0  0  0  0
   -3.0574   -0.7719   -3.8739 H   0  0  0  0  0  0  0  0  0  0  0  0
   -2.8844    0.6011   -5.9274 H   0  0  0  0  0  0  0  0  0  0  0  0
   -4.2399    2.6712   -6.1578 H   0  0  0  0  0  0  0  0  0  0  0  0
   -5.7732    3.3604   -4.3359 H   0  0  0  0  0  0  0  0  0  0  0  0
   -5.9256    2.0100   -2.2589 H   0  0  0  0  0  0  0  0  0  0  0  0
   -5.9341   -3.7642   -0.3008 H   0  0  0  0  0  0  0  0  0  0  0  0
   -5.2257   -4.2954    2.0327 H   0  0  0  0  0  0  0  0  0  0  0  0
   -3.7840   -2.7205    3.2801 H   0  0  0  0  0  0  0  0  0  0  0  0
   -3.0060   -0.6170    2.2406 H   0  0  0  0  0  0  0  0  0  0  0  0
   -0.1973   -2.2408    1.0690 H   0  0  0  0  0  0  0  0  0  0  0  0
    2.0142   -3.2458    0.5896 H   0  0  0  0  0  0  0  0  0  0  0  0
    6.3748   -3.2600   -3.8450 H   0  0  0  0  0  0  0  0  0  0  0  0
    8.6708   -3.9809   -3.1754 H   0  0  0  0  0  0  0  0  0  0  0  0
    9.3537   -3.9295   -0.7985 H   0  0  0  0  0  0  0  0  0  0  0  0
    7.7811   -3.1448    0.9574 H   0  0  0  0  0  0  0  0  0  0  0  0
    3.0199   -0.5795    2.8641 H   0  0  0  0  0  0  0  0  0  0  0  0
    2.8801    1.8447    3.2689 H   0  0  0  0  0  0  0  0  0  0  0  0
  1  2  2  0
  2  3  1  0
  3  4  2  0
  4  5  1  0
  5  6  1  0
  6  7  1  0
  7  8  1  0
  8  9  2  0
  9 10  1  0
 10 11  2  0
 11 12  1  0
 12 13  1  0
 13 14  1  0
 14 15  1  0
 15 16  1  0
 16 17  1  0
 17 18  1  0
 18 19  1  0
 19 20  1  0
 14 21  1  0
 21 22  1  0
 22 23  1  0
 23 24  2  0
 24 25  1  0
 25 26  2  0
 26 27  1  0
 27 28  2  0
 22 29  2  0
 29 30  1  0
 30 31  2  0
 31 32  1  0
 32 33  2  0
 33 34  1  0
 34 35  2  0
 11 36  1  0
 36 37  2  0
  7 38  2  0
 38 39  1  0
 39 40  2  0
 40 41  1  0
 41 42  2  0
 42 43  1  0
 43 44  2  0
  4 45  1  0
 45 46  2  0
 46  1  1  0
 44  6  1  0
 37  8  1  0
 44 39  1  0
 20 15  1  0
 35 21  1  0
 28 23  1  0
 35 30  1  0
  1 47  1  0
  2 48  1  0
  3 49  1  0
  5 50  1  0
  5 51  1  0
  9 52  1  0
 10 53  1  0
 13 54  1  0
 13 55  1  0
 14 56  1  6
 15 57  1  0
 16 58  1  0
 16 59  1  0
 17 60  1  0
 17 61  1  0
 18 62  1  0
 19 63  1  0
 19 64  1  0
 20 65  1  0
 20 66  1  0
 24 67  1  0
 25 68  1  0
 26 69  1  0
 27 70  1  0
 28 71  1  0
 31 72  1  0
 32 73  1  0
 33 74  1  0
 34 75  1  0
 36 76  1  0
 37 77  1  0
 40 78  1  0
 41 79  1  0
 42 80  1  0
 43 81  1  0
 45 82  1  0
 46 83  1  0
M  END
$$$$
