
     RDKit          3D

 71 75  0  0  0  0  0  0  0  0999 V2000
   -1.0438    0.7247    4.1146 C   0  0  0  0  0  0  0  0  0  0  0  0
   -0.9846    1.0560    2.7318 O   0  0  0  0  0  0  0  0  0  0  0  0
   -0.3659    0.0610    1.8775 C   0  0  2  0  0  0  0  0  0  0  0  0
   -1.3597   -1.1328    1.7519 C   0  0  0  0  0  0  0  0  0  0  0  0
   -1.0355   -2.3122    1.8493 O   0  0  0  0  0  0  0  0  0  0  0  0
   -2.6608   -0.7366    1.5060 N   0  0  0  0  0  0  0  0  0  0  0  0
   -3.7650   -1.6773    1.4705 C   0  0  1  0  0  0  0  0  0  0  0  0
   -4.1815   -2.0714    2.8912 C   0  0  0  0  0  0  0  0  0  0  0  0
   -4.8743   -1.1050    0.6163 C   0  0  0  0  0  0  0  0  0  0  0  0
   -4.7840   -1.1749   -0.7789 C   0  0  0  0  0  0  0  0  0  0  0  0
   -5.7871   -0.6313   -1.5845 C   0  0  0  0  0  0  0  0  0  0  0  0
   -6.8738   -0.0115   -0.9738 C   0  0  0  0  0  0  0  0  0  0  0  0
   -7.9237    0.5599   -1.7704 N   0  0  0  0  0  0  0  0  0  0  0  0
   -8.0270    0.5870   -3.1498 C   0  0  0  0  0  0  0  0  0  0  0  0
   -9.1945    1.2393   -3.4262 C   0  0  0  0  0  0  0  0  0  0  0  0
   -9.6890    1.4919   -4.6395 F   0  0  0  0  0  0  0  0  0  0  0  0
   -9.7572    1.5834   -2.2024 C   0  0  0  0  0  0  0  0  0  0  0  0
   -8.9973    1.1768   -1.1838 N   0  0  0  0  0  0  0  0  0  0  0  0
   -6.9760    0.0778    0.3789 N   0  0  0  0  0  0  0  0  0  0  0  0
   -5.9891   -0.4584    1.1324 C   0  0  0  0  0  0  0  0  0  0  0  0
    1.0161   -0.3724    2.4032 C   0  0  0  0  0  0  0  0  0  0  0  0
    1.8588   -1.1609    1.3970 C   0  0  0  0  0  0  0  0  0  0  0  0
    1.9660   -0.5050    0.0161 C   0  0  2  0  0  0  0  0  0  0  0  0
    3.0100    0.5940   -0.0042 C   0  0  0  0  0  0  0  0  0  0  0  0
    2.7551    1.7431    0.6438 N   0  0  0  0  0  0  0  0  0  0  0  0
    3.7225    2.6764    0.6351 C   0  0  0  0  0  0  0  0  0  0  0  0
    3.4513    3.9550    1.3671 C   0  0  0  0  0  0  0  0  0  0  0  0
    4.9295    2.4786   -0.0037 C   0  0  0  0  0  0  0  0  0  0  0  0
    5.1154    1.2703   -0.6526 C   0  0  0  0  0  0  0  0  0  0  0  0
    6.3561    1.0535   -1.2962 N   0  0  0  0  0  0  0  0  0  0  0  0
    6.9051   -0.1306   -1.6535 C   0  0  0  0  0  0  0  0  0  0  0  0
    7.8800   -0.2180   -2.6805 C   0  0  0  0  0  0  0  0  0  0  0  0
    8.2266   -1.5488   -2.7557 C   0  0  0  0  0  0  0  0  0  0  0  0
    9.1706   -2.2856   -3.6214 C   0  0  0  0  0  0  0  0  0  0  0  0
    7.4743   -2.1654   -1.7969 N   0  0  0  0  0  0  0  0  0  0  0  0
    6.6945   -1.3285   -1.1042 N   0  0  0  0  0  0  0  0  0  0  0  0
    4.1545    0.3330   -0.6566 N   0  0  0  0  0  0  0  0  0  0  0  0
    0.5966   -0.0507   -0.5068 C   0  0  0  0  0  0  0  0  0  0  0  0
   -0.2256    0.7494    0.5036 C   0  0  0  0  0  0  0  0  0  0  0  0
   -1.4718   -0.2689    4.2752 H   0  0  0  0  0  0  0  0  0  0  0  0
   -1.6865    1.4588    4.6085 H   0  0  0  0  0  0  0  0  0  0  0  0
   -0.0517    0.7910    4.5695 H   0  0  0  0  0  0  0  0  0  0  0  0
   -2.8593    0.2463    1.6707 H   0  0  0  0  0  0  0  0  0  0  0  0
   -3.4099   -2.5963    0.9848 H   0  0  0  0  0  0  0  0  0  0  0  0
   -4.4365   -1.1953    3.4982 H   0  0  0  0  0  0  0  0  0  0  0  0
   -3.3636   -2.5865    3.4070 H   0  0  0  0  0  0  0  0  0  0  0  0
   -5.0446   -2.7454    2.8782 H   0  0  0  0  0  0  0  0  0  0  0  0
   -3.9242   -1.6528   -1.2459 H   0  0  0  0  0  0  0  0  0  0  0  0
   -5.6804   -0.7090   -2.6595 H   0  0  0  0  0  0  0  0  0  0  0  0
   -7.2880    0.1560   -3.8044 H   0  0  0  0  0  0  0  0  0  0  0  0
  -10.6805    2.1086   -2.0000 H   0  0  0  0  0  0  0  0  0  0  0  0
   -6.1421   -0.3324    2.2004 H   0  0  0  0  0  0  0  0  0  0  0  0
    1.5737    0.5149    2.7286 H   0  0  0  0  0  0  0  0  0  0  0  0
    0.9022   -0.9891    3.3039 H   0  0  0  0  0  0  0  0  0  0  0  0
    1.4150   -2.1557    1.2700 H   0  0  0  0  0  0  0  0  0  0  0  0
    2.8569   -1.3319    1.8203 H   0  0  0  0  0  0  0  0  0  0  0  0
    2.3269   -1.2769   -0.6787 H   0  0  0  0  0  0  0  0  0  0  0  0
    2.4336    3.9655    1.7697 H   0  0  0  0  0  0  0  0  0  0  0  0
    3.5568    4.8088    0.6905 H   0  0  0  0  0  0  0  0  0  0  0  0
    4.1513    4.0692    2.2008 H   0  0  0  0  0  0  0  0  0  0  0  0
    5.7056    3.2321    0.0199 H   0  0  0  0  0  0  0  0  0  0  0  0
    6.6131    1.8661   -1.8391 H   0  0  0  0  0  0  0  0  0  0  0  0
    8.2728    0.5827   -3.2899 H   0  0  0  0  0  0  0  0  0  0  0  0
    8.6284   -2.9469   -4.3052 H   0  0  0  0  0  0  0  0  0  0  0  0
    9.7719   -1.5950   -4.2218 H   0  0  0  0  0  0  0  0  0  0  0  0
    9.8547   -2.8938   -3.0208 H   0  0  0  0  0  0  0  0  0  0  0  0
    7.4496   -3.1495   -1.5525 H   0  0  0  0  0  0  0  0  0  0  0  0
    0.7146    0.5380   -1.4251 H   0  0  0  0  0  0  0  0  0  0  0  0
    0.0207   -0.9427   -0.7864 H   0  0  0  0  0  0  0  0  0  0  0  0
    0.2160    1.7439    0.6415 H   0  0  0  0  0  0  0  0  0  0  0  0
   -1.2128    0.9525    0.0690 H   0  0  0  0  0  0  0  0  0  0  0  0
  1  2  1  0
  3  2  1  1
  3  4  1  0
  4  5  2  0
  4  6  1  0
  6  7  1  0
  7  8  1  0
  7  9  1  0
  9 10  2  0
 10 11  1  0
 11 12  2  0
 12 13  1  0
 13 14  1  0
 14 15  2  0
 15 16  1  0
 15 17  1  0
 17 18  2  0
 12 19  1  0
 19 20  2  0
  3 21  1  0
 21 22  1  0
 22 23  1  0
 23 24  1  0
 24 25  2  0
 25 26  1  0
 26 27  1  0
 26 28  2  0
 28 29  1  0
 29 30  1  0
 30 31  1  0
 31 32  1  0
 32 33  2  0
 33 34  1  0
 33 35  1  0
 35 36  1  0
 29 37  2  0
 23 38  1  0
 38 39  1  0
 39  3  1  0
 20  9  1  0
 37 24  1  0
 18 13  1  0
 36 31  2  0
  1 40  1  0
  1 41  1  0
  1 42  1  0
  6 43  1  0
  7 44  1  6
  8 45  1  0
  8 46  1  0
  8 47  1  0
 10 48  1  0
 11 49  1  0
 14 50  1  0
 17 51  1  0
 20 52  1  0
 21 53  1  0
 21 54  1  0
 22 55  1  0
 22 56  1  0
 23 57  1  6
 27 58  1  0
 27 59  1  0
 27 60  1  0
 28 61  1  0
 30 62  1  0
 32 63  1  0
 34 64  1  0
 34 65  1  0
 34 66  1  0
 35 67  1  0
 38 68  1  0
 38 69  1  0
 39 70  1  0
 39 71  1  0
M  END
$$$$
