
     RDKit          3D

 58 60  0  0  0  0  0  0  0  0999 V2000
   -2.4539   -3.9828   -1.0290 C   0  0  0  0  0  0  0  0  0  0  0  0
   -2.5384   -3.2179   -0.1079 C   0  0  0  0  0  0  0  0  0  0  0  0
   -2.6348   -2.2879    1.0313 C   0  0  0  0  0  0  0  0  0  0  0  0
   -1.9812   -0.9187    0.7286 C   0  0  0  0  0  0  0  0  0  0  0  0
   -2.2381    0.0996    1.8666 C   0  0  0  0  0  0  0  0  0  0  0  0
   -3.6546    0.5981    1.9891 C   0  0  0  0  0  0  0  0  0  0  0  0
   -4.0324    1.3708    3.0713 C   0  0  0  0  0  0  0  0  0  0  0  0
   -5.2772    1.8834    3.2142 N   0  0  0  0  0  0  0  0  0  0  0  0
   -6.1739    1.6398    2.2528 C   0  0  0  0  0  0  0  0  0  0  0  0
   -7.3903    2.1557    2.4022 N   0  0  0  0  0  0  0  0  0  0  0  0
   -8.2851    1.9094    1.4539 C   0  0  0  0  0  0  0  0  0  0  0  0
   -9.5412    2.4566    1.6052 N   0  0  0  0  0  0  0  0  0  0  0  0
   -8.0495    1.2066    0.3504 N   0  0  0  0  0  0  0  0  0  0  0  0
   -6.8161    0.6937    0.2192 C   0  0  0  0  0  0  0  0  0  0  0  0
   -6.5729    0.0101   -0.9841 N   0  0  0  0  0  0  0  0  0  0  0  0
   -5.7962    0.8695    1.1479 C   0  0  0  0  0  0  0  0  0  0  0  0
   -4.5411    0.3384    1.0079 N   0  0  0  0  0  0  0  0  0  0  0  0
   -0.4740   -1.0181    0.4844 C   0  0  0  0  0  0  0  0  0  0  0  0
    0.3886   -1.6360    1.4019 C   0  0  0  0  0  0  0  0  0  0  0  0
    1.7619   -1.7009    1.1527 C   0  0  0  0  0  0  0  0  0  0  0  0
    2.2971   -1.1353   -0.0076 C   0  0  0  0  0  0  0  0  0  0  0  0
    3.7668   -1.2277   -0.2285 C   0  0  0  0  0  0  0  0  0  0  0  0
    4.4191   -2.1254    0.2923 O   0  0  0  0  0  0  0  0  0  0  0  0
    4.3339   -0.2317   -1.0003 N   0  0  0  0  0  0  0  0  0  0  0  0
    5.7922   -0.0930   -1.0613 C   0  0  1  0  0  0  0  0  0  0  0  0
    6.2016    0.5132   -2.4056 C   0  0  0  0  0  0  0  0  0  0  0  0
    7.7100    0.4728   -2.6348 C   0  0  0  0  0  0  0  0  0  0  0  0
    8.0711    0.9285   -4.0201 C   0  0  0  0  0  0  0  0  0  0  0  0
    8.7023    0.2939   -4.8473 O   0  0  0  0  0  0  0  0  0  0  0  0
    7.6587    2.1799   -4.2830 O   0  0  0  0  0  0  0  0  0  0  0  0
    6.2077    0.8132    0.0990 C   0  0  0  0  0  0  0  0  0  0  0  0
    5.5298    1.6997    0.6028 O   0  0  0  0  0  0  0  0  0  0  0  0
    7.4666    0.5888    0.5277 O   0  0  0  0  0  0  0  0  0  0  0  0
    1.4463   -0.5224   -0.9318 C   0  0  0  0  0  0  0  0  0  0  0  0
    0.0717   -0.4624   -0.6835 C   0  0  0  0  0  0  0  0  0  0  0  0
   -2.3670   -4.6632   -1.8436 H   0  0  0  0  0  0  0  0  0  0  0  0
   -2.1827   -2.7505    1.9165 H   0  0  0  0  0  0  0  0  0  0  0  0
   -3.6955   -2.1565    1.2689 H   0  0  0  0  0  0  0  0  0  0  0  0
   -2.4361   -0.5329   -0.1952 H   0  0  0  0  0  0  0  0  0  0  0  0
   -1.9383   -0.3392    2.8263 H   0  0  0  0  0  0  0  0  0  0  0  0
   -1.6088    0.9865    1.7124 H   0  0  0  0  0  0  0  0  0  0  0  0
   -3.3391    1.6139    3.8692 H   0  0  0  0  0  0  0  0  0  0  0  0
   -9.5106    3.2467    2.2328 H   0  0  0  0  0  0  0  0  0  0  0  0
   -9.9816    2.5888    0.7062 H   0  0  0  0  0  0  0  0  0  0  0  0
   -6.0368   -0.8384   -0.8304 H   0  0  0  0  0  0  0  0  0  0  0  0
   -7.4485   -0.1266   -1.4781 H   0  0  0  0  0  0  0  0  0  0  0  0
    0.0071   -2.0801    2.3179 H   0  0  0  0  0  0  0  0  0  0  0  0
    2.4164   -2.1929    1.8690 H   0  0  0  0  0  0  0  0  0  0  0  0
    3.8106    0.6331   -1.0597 H   0  0  0  0  0  0  0  0  0  0  0  0
    6.2436   -1.0813   -0.9218 H   0  0  0  0  0  0  0  0  0  0  0  0
    5.8388    1.5473   -2.4783 H   0  0  0  0  0  0  0  0  0  0  0  0
    5.7067   -0.0400   -3.2154 H   0  0  0  0  0  0  0  0  0  0  0  0
    8.0819   -0.5499   -2.5097 H   0  0  0  0  0  0  0  0  0  0  0  0
    8.2473    1.1085   -1.9237 H   0  0  0  0  0  0  0  0  0  0  0  0
    7.9833    2.3518   -5.1932 H   0  0  0  0  0  0  0  0  0  0  0  0
    7.5800    1.2115    1.2757 H   0  0  0  0  0  0  0  0  0  0  0  0
    1.8293   -0.1118   -1.8611 H   0  0  0  0  0  0  0  0  0  0  0  0
   -0.5747    0.0139   -1.4179 H   0  0  0  0  0  0  0  0  0  0  0  0
  1  2  3  0
  2  3  1  0
  3  4  1  0
  4  5  1  0
  5  6  1  0
  6  7  2  0
  7  8  1  0
  8  9  2  0
  9 10  1  0
 10 11  2  0
 11 12  1  0
 11 13  1  0
 13 14  2  0
 14 15  1  0
 14 16  1  0
 16 17  2  0
  4 18  1  0
 18 19  2  0
 19 20  1  0
 20 21  2  0
 21 22  1  0
 22 23  2  0
 22 24  1  0
 24 25  1  0
 25 26  1  0
 26 27  1  0
 27 28  1  0
 28 29  2  0
 28 30  1  0
 25 31  1  0
 31 32  2  0
 31 33  1  0
 21 34  1  0
 34 35  2  0
 17  6  1  0
 35 18  1  0
 16  9  1  0
  1 36  1  0
  3 37  1  0
  3 38  1  0
  4 39  1  0
  5 40  1  0
  5 41  1  0
  7 42  1  0
 12 43  1  0
 12 44  1  0
 15 45  1  0
 15 46  1  0
 19 47  1  0
 20 48  1  0
 24 49  1  0
 25 50  1  1
 26 51  1  0
 26 52  1  0
 27 53  1  0
 27 54  1  0
 30 55  1  0
 33 56  1  0
 34 57  1  0
 35 58  1  0
M  END
$$$$
