
     RDKit          3D

 57 60  0  0  0  0  0  0  0  0999 V2000
   -8.3134    2.4687   -0.0583 C   0  0  0  0  0  0  0  0  0  0  0  0
   -7.9659    1.5434    1.1019 C   0  0  0  0  0  0  0  0  0  0  0  0
   -6.9477    0.5519    0.7421 N   0  0  0  0  0  0  0  0  0  0  0  0
   -5.6399    1.1561    0.4081 C   0  0  0  0  0  0  0  0  0  0  0  0
   -4.3982    0.3261    0.8064 C   0  0  0  0  0  0  0  0  0  0  0  0
   -4.6296   -1.1126    0.6813 N   0  0  0  0  0  0  0  0  0  0  0  0
   -3.6884   -2.0528    0.2840 C   0  0  0  0  0  0  0  0  0  0  0  0
   -3.7990   -3.2563    0.5080 O   0  0  0  0  0  0  0  0  0  0  0  0
   -2.4966   -1.6030   -0.4653 C   0  0  0  0  0  0  0  0  0  0  0  0
   -1.2278   -1.9450    0.0111 C   0  0  0  0  0  0  0  0  0  0  0  0
   -0.0904   -1.5624   -0.7043 C   0  0  0  0  0  0  0  0  0  0  0  0
   -0.2291   -0.8671   -1.9081 C   0  0  0  0  0  0  0  0  0  0  0  0
    0.8309   -0.4353   -2.6573 O   0  0  0  0  0  0  0  0  0  0  0  0
    1.8317   -1.4336   -2.9047 C   0  0  0  0  0  0  0  0  0  0  0  0
    3.0709   -1.0578   -2.1610 C   0  0  0  0  0  0  0  0  0  0  0  0
    3.5408   -1.7012   -1.1103 N   0  0  0  0  0  0  0  0  0  0  0  0
    4.7118   -1.1432   -0.6382 N   0  0  0  0  0  0  0  0  0  0  0  0
    5.0859   -0.1018   -1.3553 C   0  0  0  0  0  0  0  0  0  0  0  0
    6.2939    0.6651   -1.0762 C   0  0  0  0  0  0  0  0  0  0  0  0
    6.6473    1.6333   -1.7440 O   0  0  0  0  0  0  0  0  0  0  0  0
    6.9886    0.1738    0.0180 N   0  0  0  0  0  0  0  0  0  0  0  0
    8.1911    0.6449    0.5828 C   0  0  0  0  0  0  0  0  0  0  0  0
    8.9130    1.7399    0.1087 C   0  0  0  0  0  0  0  0  0  0  0  0
   10.0989    2.1299    0.7445 C   0  0  0  0  0  0  0  0  0  0  0  0
   10.5731    1.4307    1.8553 C   0  0  0  0  0  0  0  0  0  0  0  0
    9.8616    0.3360    2.3353 C   0  0  0  0  0  0  0  0  0  0  0  0
    8.6840   -0.0450    1.6989 C   0  0  0  0  0  0  0  0  0  0  0  0
    8.0067   -1.1027    2.1736 F   0  0  0  0  0  0  0  0  0  0  0  0
    4.0428    0.2754   -2.6587 S   0  0  0  0  0  0  0  0  0  0  0  0
   -1.4973   -0.5231   -2.3801 C   0  0  0  0  0  0  0  0  0  0  0  0
   -2.6370   -0.9072   -1.6710 C   0  0  0  0  0  0  0  0  0  0  0  0
   -5.8483   -1.6083    1.3200 C   0  0  0  0  0  0  0  0  0  0  0  0
   -6.8090   -0.4894    1.7725 C   0  0  0  0  0  0  0  0  0  0  0  0
   -7.4631    3.0904   -0.3551 H   0  0  0  0  0  0  0  0  0  0  0  0
   -9.1271    3.1410    0.2338 H   0  0  0  0  0  0  0  0  0  0  0  0
   -8.6440    1.8976   -0.9302 H   0  0  0  0  0  0  0  0  0  0  0  0
   -8.8895    1.0266    1.3906 H   0  0  0  0  0  0  0  0  0  0  0  0
   -7.6481    2.1364    1.9688 H   0  0  0  0  0  0  0  0  0  0  0  0
   -5.6201    1.3004   -0.6783 H   0  0  0  0  0  0  0  0  0  0  0  0
   -5.5270    2.1476    0.8643 H   0  0  0  0  0  0  0  0  0  0  0  0
   -4.1614    0.5054    1.8632 H   0  0  0  0  0  0  0  0  0  0  0  0
   -3.5279    0.6600    0.2392 H   0  0  0  0  0  0  0  0  0  0  0  0
   -1.1268   -2.5080    0.9366 H   0  0  0  0  0  0  0  0  0  0  0  0
    0.8883   -1.8088   -0.3015 H   0  0  0  0  0  0  0  0  0  0  0  0
    1.5040   -2.4496   -2.6474 H   0  0  0  0  0  0  0  0  0  0  0  0
    2.0289   -1.4360   -3.9843 H   0  0  0  0  0  0  0  0  0  0  0  0
    6.5740   -0.6372    0.4782 H   0  0  0  0  0  0  0  0  0  0  0  0
    8.5860    2.3149   -0.7525 H   0  0  0  0  0  0  0  0  0  0  0  0
   10.6530    2.9863    0.3677 H   0  0  0  0  0  0  0  0  0  0  0  0
   11.4944    1.7397    2.3422 H   0  0  0  0  0  0  0  0  0  0  0  0
   10.2138   -0.2210    3.1978 H   0  0  0  0  0  0  0  0  0  0  0  0
   -1.5991    0.0275   -3.3120 H   0  0  0  0  0  0  0  0  0  0  0  0
   -3.6245   -0.6742   -2.0606 H   0  0  0  0  0  0  0  0  0  0  0  0
   -5.5660   -2.2225    2.1822 H   0  0  0  0  0  0  0  0  0  0  0  0
   -6.3479   -2.2647    0.5974 H   0  0  0  0  0  0  0  0  0  0  0  0
   -7.7813   -0.9465    1.9920 H   0  0  0  0  0  0  0  0  0  0  0  0
   -6.4440   -0.0444    2.7081 H   0  0  0  0  0  0  0  0  0  0  0  0
  1  2  1  0
  2  3  1  0
  3  4  1  0
  4  5  1  0
  5  6  1  0
  6  7  1  0
  7  8  2  0
  7  9  1  0
  9 10  2  0
 10 11  1  0
 11 12  2  0
 12 13  1  0
 13 14  1  0
 14 15  1  0
 15 16  2  0
 16 17  1  0
 17 18  2  0
 18 19  1  0
 19 20  2  0
 19 21  1  0
 21 22  1  0
 22 23  2  0
 23 24  1  0
 24 25  2  0
 25 26  1  0
 26 27  2  0
 27 28  1  0
 18 29  1  0
 12 30  1  0
 30 31  2  0
  6 32  1  0
 32 33  1  0
 33  3  1  0
 31  9  1  0
 29 15  1  0
 27 22  1  0
  1 34  1  0
  1 35  1  0
  1 36  1  0
  2 37  1  0
  2 38  1  0
  4 39  1  0
  4 40  1  0
  5 41  1  0
  5 42  1  0
 10 43  1  0
 11 44  1  0
 14 45  1  0
 14 46  1  0
 21 47  1  0
 23 48  1  0
 24 49  1  0
 25 50  1  0
 26 51  1  0
 30 52  1  0
 31 53  1  0
 32 54  1  0
 32 55  1  0
 33 56  1  0
 33 57  1  0
M  END
$$$$
