
     RDKit          3D

 82 82  0  0  0  0  0  0  0  0999 V2000
    2.8433   -2.1780    0.2098 C   0  0  0  0  0  0  0  0  0  0  0  0
    2.5710   -0.6624    1.1375 S   0  0  0  0  0  3  0  0  0  0  0  0
    2.7621    0.5313   -0.2075 C   0  0  0  0  0  0  0  0  0  0  0  0
    4.2168    0.7047   -0.6384 C   0  0  0  0  0  0  0  0  0  0  0  0
    5.1490    1.3285    0.4122 C   0  0  2  0  0  0  0  0  0  0  0  0
    4.8575    2.7563    0.6593 N   0  0  0  0  0  0  0  0  0  0  0  0
    6.5932    1.1685   -0.0777 C   0  0  0  0  0  0  0  0  0  0  0  0
    7.3474    0.2439    0.1786 O   0  0  0  0  0  0  0  0  0  0  0  0
    6.9794    2.1398   -0.9348 O   0  0  0  0  0  0  0  0  0  0  0  0
    0.7666   -0.6525    1.2963 C   0  0  0  0  0  0  0  0  0  0  0  0
   -0.1334   -1.4621    0.3569 C   0  0  1  0  0  0  0  0  0  0  0  0
   -1.3934   -1.6622    1.0563 O   0  0  0  0  0  0  0  0  0  0  0  0
   -2.4814   -1.6007    0.1020 C   0  0  1  0  0  0  0  0  0  0  0  0
   -3.3557   -0.4950    0.4527 N   0  0  0  0  0  0  0  0  0  0  0  0
   -3.1787    0.4404    1.4372 C   0  0  0  0  0  0  0  0  0  0  0  0
   -4.1490    1.3322    1.4551 N   0  0  0  0  0  0  0  0  0  0  0  0
   -5.0153    0.9257    0.4618 C   0  0  0  0  0  0  0  0  0  0  0  0
   -6.2399    1.4362    0.0004 C   0  0  0  0  0  0  0  0  0  0  0  0
   -6.8390    2.5720    0.5286 N   0  0  0  0  0  0  0  0  0  0  0  0
   -6.8799    0.7805   -0.9959 N   0  0  0  0  0  0  0  0  0  0  0  0
   -6.2954   -0.3199   -1.5176 C   0  0  0  0  0  0  0  0  0  0  0  0
   -5.1225   -0.8888   -1.1718 N   0  0  0  0  0  0  0  0  0  0  0  0
   -4.5440   -0.2143   -0.1660 C   0  0  0  0  0  0  0  0  0  0  0  0
   -1.8445   -1.4516   -1.2795 C   0  0  2  0  0  0  0  0  0  0  0  0
   -1.5960   -2.7442   -1.8659 O   0  0  0  0  0  0  0  0  0  0  0  0
   -0.5184   -0.7800   -0.9565 C   0  0  2  0  0  0  0  0  0  0  0  0
    0.3963   -1.0177   -2.0205 O   0  0  0  0  0  0  0  0  0  0  0  0
   -3.1702   -0.2422   -0.1788 C   0  0  0  0  0  0  0  0  0  0  0  0
   -1.6789   -0.1174   -0.2961 C   0  0  0  0  0  0  0  0  0  0  0  0
   -0.8557   -1.2157   -0.0148 C   0  0  0  0  0  0  0  0  0  0  0  0
    0.5328   -1.1017   -0.1053 C   0  0  0  0  0  0  0  0  0  0  0  0
    1.1008    0.1204   -0.4686 C   0  0  0  0  0  0  0  0  0  0  0  0
    2.8624    0.2710   -0.5407 S   0  0  0  0  0  6  0  0  0  0  0  0
    3.2104    1.6454   -0.2417 O   0  0  0  0  0  0  0  0  0  0  0  0
    3.3122   -0.3930   -1.7417 O   0  0  0  0  0  0  0  0  0  0  0  0
    3.3957   -0.5706    0.7281 O   0  0  0  0  0  0  0  0  0  0  0  0
    0.2953    1.2304   -0.7304 C   0  0  0  0  0  0  0  0  0  0  0  0
   -1.0921    1.1089   -0.6401 C   0  0  0  0  0  0  0  0  0  0  0  0
   -1.2127    1.2414   -0.0890 O   0  0  0  0  0  0  0  0  0  0  0  0
   -0.1443    0.3243    0.2203 S   0  0  0  0  0  6  0  0  0  0  0  0
    0.2595    0.0150    1.5697 O   0  0  0  0  0  0  0  0  0  0  0  0
    1.1751    0.7494   -0.5900 O   0  0  0  0  0  0  0  0  0  0  0  0
   -0.5146   -1.0724   -0.4788 O   0  0  0  0  0  0  0  0  0  0  0  0
   -0.8646   -0.3503   -1.3972 O   0  0  0  0  0  0  0  0  0  0  0  0
   -0.4307    0.0933   -0.0840 S   0  0  0  0  0  6  0  0  0  0  0  0
   -1.3135   -0.2211    1.0262 O   0  0  0  0  0  0  0  0  0  0  0  0
    0.1845    1.4138   -0.0409 O   0  0  0  0  0  1  0  0  0  0  0  0
    0.8657   -0.8098    0.2030 O   0  0  0  0  0  0  0  0  0  0  0  0
    2.3401   -2.1664   -0.7572 H   0  0  0  0  0  0  0  0  0  0  0  0
    2.4997   -3.0309    0.7998 H   0  0  0  0  0  0  0  0  0  0  0  0
    3.9160   -2.2937    0.0395 H   0  0  0  0  0  0  0  0  0  0  0  0
    2.1785    0.2112   -1.0679 H   0  0  0  0  0  0  0  0  0  0  0  0
    2.3459    1.4829    0.1315 H   0  0  0  0  0  0  0  0  0  0  0  0
    4.6217   -0.2623   -0.9591 H   0  0  0  0  0  0  0  0  0  0  0  0
    4.2278    1.3348   -1.5388 H   0  0  0  0  0  0  0  0  0  0  0  0
    5.0855    0.8048    1.3701 H   0  0  0  0  0  0  0  0  0  0  0  0
    3.8700    2.8878    0.8588 H   0  0  0  0  0  0  0  0  0  0  0  0
    5.0683    3.2799   -0.1928 H   0  0  0  0  0  0  0  0  0  0  0  0
    7.9088    1.9026   -1.1378 H   0  0  0  0  0  0  0  0  0  0  0  0
    0.6017   -1.0385    2.3109 H   0  0  0  0  0  0  0  0  0  0  0  0
    0.4360    0.3903    1.3456 H   0  0  0  0  0  0  0  0  0  0  0  0
    0.2744   -2.4609    0.1786 H   0  0  0  0  0  0  0  0  0  0  0  0
   -3.0653   -2.5208    0.1986 H   0  0  0  0  0  0  0  0  0  0  0  0
   -2.3299    0.4309    2.1116 H   0  0  0  0  0  0  0  0  0  0  0  0
   -7.8367    2.5851    0.3618 H   0  0  0  0  0  0  0  0  0  0  0  0
   -6.5152    2.7973    1.4634 H   0  0  0  0  0  0  0  0  0  0  0  0
   -6.8415   -0.8060   -2.3202 H   0  0  0  0  0  0  0  0  0  0  0  0
   -2.4326   -0.8868   -2.0086 H   0  0  0  0  0  0  0  0  0  0  0  0
   -0.7081   -2.7013   -2.2744 H   0  0  0  0  0  0  0  0  0  0  0  0
   -0.6540    0.2978   -0.8113 H   0  0  0  0  0  0  0  0  0  0  0  0
    0.1126   -0.4684   -2.7748 H   0  0  0  0  0  0  0  0  0  0  0  0
   -3.6770    0.5287   -0.7703 H   0  0  0  0  0  0  0  0  0  0  0  0
   -3.5086   -1.2138   -0.5559 H   0  0  0  0  0  0  0  0  0  0  0  0
   -3.4738   -0.1376    0.8689 H   0  0  0  0  0  0  0  0  0  0  0  0
   -1.2940   -2.1704    0.2691 H   0  0  0  0  0  0  0  0  0  0  0  0
    1.1596   -1.9654    0.1025 H   0  0  0  0  0  0  0  0  0  0  0  0
    3.8579    0.0592    1.3201 H   0  0  0  0  0  0  0  0  0  0  0  0
    0.7363    2.1872   -0.9999 H   0  0  0  0  0  0  0  0  0  0  0  0
   -1.7132    1.9766   -0.8448 H   0  0  0  0  0  0  0  0  0  0  0  0
    1.8548    0.0612   -0.4465 H   0  0  0  0  0  0  0  0  0  0  0  0
   -1.4177   -1.3190   -0.1857 H   0  0  0  0  0  0  0  0  0  0  0  0
    1.5586   -0.1259    0.2928 H   0  0  0  0  0  0  0  0  0  0  0  0
  1  2  1  0
  2  3  1  0
  3  4  1  0
  4  5  1  0
  5  6  1  0
  5  7  1  0
  7  8  2  0
  7  9  1  0
  2 10  1  0
 10 11  1  0
 11 12  1  0
 12 13  1  0
 13 14  1  0
 14 15  1  0
 15 16  2  0
 16 17  1  0
 17 18  2  0
 18 19  1  0
 18 20  1  0
 20 21  2  0
 21 22  1  0
 22 23  2  0
 13 24  1  0
 24 25  1  0
 24 26  1  0
 26 27  1  0
 28 29  1  0
 29 30  2  0
 30 31  1  0
 31 32  2  0
 32 33  1  0
 33 34  2  0
 33 35  2  0
 33 36  1  0
 32 37  1  0
 37 38  2  0
 39 40  2  0
 40 41  2  0
 40 42  1  0
 40 43  1  0
 44 45  2  0
 45 46  2  0
 45 47  1  0
 45 48  1  0
 26 11  1  0
 38 29  1  0
 23 14  1  0
 23 17  1  0
  1 49  1  0
  1 50  1  0
  1 51  1  0
  3 52  1  0
  3 53  1  0
  4 54  1  0
  4 55  1  0
  5 56  1  1
  6 57  1  0
  6 58  1  0
  9 59  1  0
 10 60  1  0
 10 61  1  0
 11 62  1  6
 13 63  1  6
 15 64  1  0
 19 65  1  0
 19 66  1  0
 21 67  1  0
 24 68  1  6
 25 69  1  0
 26 70  1  1
 27 71  1  0
 28 72  1  0
 28 73  1  0
 28 74  1  0
 30 75  1  0
 31 76  1  0
 36 77  1  0
 37 78  1  0
 38 79  1  0
 42 80  1  0
 43 81  1  0
 48 82  1  0
M  CHG  2   2   1  47  -1
M  END
$$$$
