
     RDKit          3D

 72 75  0  0  0  0  0  0  0  0999 V2000
    1.3852   -0.3115   -2.7714 C   0  0  0  0  0  0  0  0  0  0  0  0
    2.0034    0.4175   -1.6750 N   0  0  0  0  0  0  0  0  0  0  0  0
    1.1002    1.1460   -0.7726 C   0  0  0  0  0  0  0  0  0  0  0  0
    0.3842    0.2390    0.2549 C   0  0  0  0  0  0  0  0  0  0  0  0
   -0.7736   -0.5210   -0.2680 N   0  0  0  0  0  0  0  0  0  0  0  0
   -0.9714   -1.7782    0.5044 C   0  0  0  0  0  0  0  0  0  0  0  0
   -1.7965   -2.8201   -0.2815 C   0  0  0  0  0  0  0  0  0  0  0  0
   -2.4457   -3.8418    0.6466 C   0  0  0  0  0  0  0  0  0  0  0  0
   -1.6234   -4.0708    1.7836 O   0  0  0  0  0  0  0  0  0  0  0  0
   -1.5703   -2.9413    2.6575 C   0  0  0  0  0  0  0  0  0  0  0  0
   -1.5328   -1.6006    1.9217 C   0  0  0  0  0  0  0  0  0  0  0  0
   -2.0296    0.2511   -0.4638 C   0  0  0  0  0  0  0  0  0  0  0  0
   -2.2401    0.5169   -1.9756 C   0  0  0  0  0  0  0  0  0  0  0  0
   -3.5781    1.2214   -2.2443 C   0  0  0  0  0  0  0  0  0  0  0  0
   -3.7255    2.4840   -1.3946 C   0  0  0  0  0  0  0  0  0  0  0  0
   -3.5207    2.1604    0.0139 N   0  0  0  0  0  0  0  0  0  0  0  0
   -4.5465    1.9911    0.9384 C   0  0  0  0  0  0  0  0  0  0  0  0
   -4.3854    1.4756    2.0401 O   0  0  0  0  0  0  0  0  0  0  0  0
   -5.8996    2.4749    0.5492 C   0  0  0  0  0  0  0  0  0  0  0  0
   -6.8436    1.5592   -0.1967 C   0  0  0  0  0  0  0  0  0  0  0  0
   -7.1346    1.9244    1.2270 C   0  0  0  0  0  0  0  0  0  0  0  0
   -2.2145    1.5787    0.3171 C   0  0  0  0  0  0  0  0  0  0  0  0
    3.3304    0.0980   -1.3626 C   0  0  0  0  0  0  0  0  0  0  0  0
    3.9793   -0.6984   -2.0423 O   0  0  0  0  0  0  0  0  0  0  0  0
    3.9419    0.8116   -0.1445 C   0  0  0  0  0  0  0  0  0  0  0  0
    5.3438    0.3600    0.1992 C   0  0  0  0  0  0  0  0  0  0  0  0
    6.4187    1.1393   -0.0208 C   0  0  0  0  0  0  0  0  0  0  0  0
    7.8214    0.7491    0.3457 C   0  0  0  0  0  0  0  0  0  0  0  0
    7.8867   -0.4547    1.2853 C   0  0  0  0  0  0  0  0  0  0  0  0
    6.9068   -1.5398    0.8573 C   0  0  0  0  0  0  0  0  0  0  0  0
    5.4704   -1.0104    0.8270 C   0  0  0  0  0  0  0  0  0  0  0  0
    0.6282    0.3151   -3.2486 H   0  0  0  0  0  0  0  0  0  0  0  0
    2.1254   -0.5868   -3.5284 H   0  0  0  0  0  0  0  0  0  0  0  0
    0.9286   -1.2254   -2.3831 H   0  0  0  0  0  0  0  0  0  0  0  0
    0.3975    1.7225   -1.3790 H   0  0  0  0  0  0  0  0  0  0  0  0
    1.6792    1.8922   -0.2195 H   0  0  0  0  0  0  0  0  0  0  0  0
    0.0953    0.8358    1.1274 H   0  0  0  0  0  0  0  0  0  0  0  0
    1.1437   -0.4602    0.6284 H   0  0  0  0  0  0  0  0  0  0  0  0
    0.0191   -2.2442    0.6145 H   0  0  0  0  0  0  0  0  0  0  0  0
   -1.1200   -3.3313   -0.9784 H   0  0  0  0  0  0  0  0  0  0  0  0
   -2.5805   -2.3797   -0.9048 H   0  0  0  0  0  0  0  0  0  0  0  0
   -3.4368   -3.5042    0.9746 H   0  0  0  0  0  0  0  0  0  0  0  0
   -2.5858   -4.7922    0.1208 H   0  0  0  0  0  0  0  0  0  0  0  0
   -0.6668   -3.0573    3.2657 H   0  0  0  0  0  0  0  0  0  0  0  0
   -2.4250   -2.9797    3.3418 H   0  0  0  0  0  0  0  0  0  0  0  0
   -2.5547   -1.2037    1.8797 H   0  0  0  0  0  0  0  0  0  0  0  0
   -0.9496   -0.8822    2.5091 H   0  0  0  0  0  0  0  0  0  0  0  0
   -2.8832   -0.3755   -0.1739 H   0  0  0  0  0  0  0  0  0  0  0  0
   -2.2132   -0.4263   -2.5357 H   0  0  0  0  0  0  0  0  0  0  0  0
   -1.4372    1.1462   -2.3725 H   0  0  0  0  0  0  0  0  0  0  0  0
   -4.3970    0.5279   -2.0173 H   0  0  0  0  0  0  0  0  0  0  0  0
   -3.6544    1.4764   -3.3071 H   0  0  0  0  0  0  0  0  0  0  0  0
   -2.9679    3.2245   -1.6781 H   0  0  0  0  0  0  0  0  0  0  0  0
   -4.7036    2.9385   -1.5681 H   0  0  0  0  0  0  0  0  0  0  0  0
   -5.9362    3.5355    0.3207 H   0  0  0  0  0  0  0  0  0  0  0  0
   -6.5308    0.5403   -0.3949 H   0  0  0  0  0  0  0  0  0  0  0  0
   -7.4676    1.9935   -0.9695 H   0  0  0  0  0  0  0  0  0  0  0  0
   -7.0068    1.1627    1.9890 H   0  0  0  0  0  0  0  0  0  0  0  0
   -7.9465    2.6132    1.4252 H   0  0  0  0  0  0  0  0  0  0  0  0
   -1.4622    2.3220    0.0306 H   0  0  0  0  0  0  0  0  0  0  0  0
   -2.1176    1.4050    1.3934 H   0  0  0  0  0  0  0  0  0  0  0  0
    3.3096    0.6428    0.7332 H   0  0  0  0  0  0  0  0  0  0  0  0
    3.9386    1.8872   -0.3595 H   0  0  0  0  0  0  0  0  0  0  0  0
    6.3031    2.1119   -0.4936 H   0  0  0  0  0  0  0  0  0  0  0  0
    8.3224    1.6000    0.8235 H   0  0  0  0  0  0  0  0  0  0  0  0
    8.3710    0.5299   -0.5783 H   0  0  0  0  0  0  0  0  0  0  0  0
    8.9076   -0.8533    1.3043 H   0  0  0  0  0  0  0  0  0  0  0  0
    7.6502   -0.1350    2.3090 H   0  0  0  0  0  0  0  0  0  0  0  0
    7.1833   -1.9090   -0.1383 H   0  0  0  0  0  0  0  0  0  0  0  0
    6.9697   -2.3932    1.5413 H   0  0  0  0  0  0  0  0  0  0  0  0
    5.0807   -0.9572    1.8523 H   0  0  0  0  0  0  0  0  0  0  0  0
    4.8498   -1.7363    0.2891 H   0  0  0  0  0  0  0  0  0  0  0  0
  1  2  1  0
  2  3  1  0
  3  4  1  0
  4  5  1  0
  5  6  1  0
  6  7  1  0
  7  8  1  0
  8  9  1  0
  9 10  1  0
 10 11  1  0
  5 12  1  0
 12 13  1  0
 13 14  1  0
 14 15  1  0
 15 16  1  0
 16 17  1  0
 17 18  2  0
 17 19  1  0
 19 20  1  0
 20 21  1  0
 16 22  1  0
  2 23  1  0
 23 24  2  0
 23 25  1  0
 25 26  1  0
 26 27  2  0
 27 28  1  0
 28 29  1  0
 29 30  1  0
 30 31  1  0
 11  6  1  0
 22 12  1  0
 31 26  1  0
 21 19  1  0
  1 32  1  0
  1 33  1  0
  1 34  1  0
  3 35  1  0
  3 36  1  0
  4 37  1  0
  4 38  1  0
  6 39  1  0
  7 40  1  0
  7 41  1  0
  8 42  1  0
  8 43  1  0
 10 44  1  0
 10 45  1  0
 11 46  1  0
 11 47  1  0
 12 48  1  0
 13 49  1  0
 13 50  1  0
 14 51  1  0
 14 52  1  0
 15 53  1  0
 15 54  1  0
 19 55  1  0
 20 56  1  0
 20 57  1  0
 21 58  1  0
 21 59  1  0
 22 60  1  0
 22 61  1  0
 25 62  1  0
 25 63  1  0
 27 64  1  0
 28 65  1  0
 28 66  1  0
 29 67  1  0
 29 68  1  0
 30 69  1  0
 30 70  1  0
 31 71  1  0
 31 72  1  0
M  END
$$$$
