
     RDKit          3D

 42 43  0  0  0  0  0  0  0  0999 V2000
   -1.9887    1.0177    2.9773 C   0  0  0  0  0  0  0  0  0  0  0  0
   -1.8411    0.2114    1.8129 O   0  0  0  0  0  0  0  0  0  0  0  0
   -2.6554    0.7432    0.8026 N   0  0  0  0  0  0  0  0  0  0  0  0
   -2.5939    0.0276   -0.2836 C   0  0  0  0  0  0  0  0  0  0  0  0
   -3.4521    0.4507   -1.4572 C   0  0  0  0  0  0  0  0  0  0  0  0
   -4.5506   -0.0265   -1.6744 O   0  0  0  0  0  0  0  0  0  0  0  0
   -2.7819    1.3762   -2.1729 O   0  0  0  0  0  0  0  0  0  0  0  0
   -3.4948    1.8551   -3.3113 C   0  0  0  0  0  0  0  0  0  0  0  0
   -1.7687   -1.1774   -0.4975 C   0  0  0  0  0  0  0  0  0  0  0  0
   -2.4270   -2.4130   -0.4734 C   0  0  0  0  0  0  0  0  0  0  0  0
   -1.7088   -3.5839   -0.7007 C   0  0  0  0  0  0  0  0  0  0  0  0
   -0.3427   -3.5188   -0.9621 C   0  0  0  0  0  0  0  0  0  0  0  0
    0.3118   -2.2850   -0.9883 C   0  0  0  0  0  0  0  0  0  0  0  0
   -0.3847   -1.0895   -0.7417 C   0  0  0  0  0  0  0  0  0  0  0  0
    0.3200    0.2518   -0.7948 C   0  0  0  0  0  0  0  0  0  0  0  0
    1.7494    0.1463   -0.7706 O   0  0  0  0  0  0  0  0  0  0  0  0
    2.3626    0.3503    0.4395 C   0  0  0  0  0  0  0  0  0  0  0  0
    1.7996   -0.0115    1.6668 C   0  0  0  0  0  0  0  0  0  0  0  0
    2.5007    0.1989    2.8551 C   0  0  0  0  0  0  0  0  0  0  0  0
    3.7761    0.7563    2.8216 C   0  0  0  0  0  0  0  0  0  0  0  0
    4.3539    1.0998    1.5997 C   0  0  0  0  0  0  0  0  0  0  0  0
    3.6563    0.8977    0.3995 C   0  0  0  0  0  0  0  0  0  0  0  0
    4.3009    1.2528   -0.9111 C   0  0  0  0  0  0  0  0  0  0  0  0
   -1.6714    2.0438    2.7709 H   0  0  0  0  0  0  0  0  0  0  0  0
   -1.3550    0.6033    3.7657 H   0  0  0  0  0  0  0  0  0  0  0  0
   -3.0289    1.0033    3.3142 H   0  0  0  0  0  0  0  0  0  0  0  0
   -3.9280    1.0334   -3.8916 H   0  0  0  0  0  0  0  0  0  0  0  0
   -4.2723    2.5565   -2.9945 H   0  0  0  0  0  0  0  0  0  0  0  0
   -2.7878    2.3870   -3.9545 H   0  0  0  0  0  0  0  0  0  0  0  0
   -3.4957   -2.4667   -0.2741 H   0  0  0  0  0  0  0  0  0  0  0  0
   -2.2132   -4.5458   -0.6764 H   0  0  0  0  0  0  0  0  0  0  0  0
    0.2198   -4.4317   -1.1456 H   0  0  0  0  0  0  0  0  0  0  0  0
    1.3796   -2.2672   -1.2010 H   0  0  0  0  0  0  0  0  0  0  0  0
   -0.0306    0.9419   -0.0204 H   0  0  0  0  0  0  0  0  0  0  0  0
    0.0702    0.7122   -1.7573 H   0  0  0  0  0  0  0  0  0  0  0  0
    0.8260   -0.4848    1.7219 H   0  0  0  0  0  0  0  0  0  0  0  0
    2.0565   -0.0880    3.8042 H   0  0  0  0  0  0  0  0  0  0  0  0
    4.3285    0.9120    3.7451 H   0  0  0  0  0  0  0  0  0  0  0  0
    5.3550    1.5236    1.5890 H   0  0  0  0  0  0  0  0  0  0  0  0
    5.2669    1.7491   -0.7645 H   0  0  0  0  0  0  0  0  0  0  0  0
    4.4761    0.3487   -1.5019 H   0  0  0  0  0  0  0  0  0  0  0  0
    3.6634    1.9390   -1.4773 H   0  0  0  0  0  0  0  0  0  0  0  0
  1  2  1  0
  2  3  1  0
  3  4  2  0
  4  5  1  0
  5  6  2  0
  5  7  1  0
  7  8  1  0
  4  9  1  0
  9 10  2  0
 10 11  1  0
 11 12  2  0
 12 13  1  0
 13 14  2  0
 14 15  1  0
 15 16  1  0
 16 17  1  0
 17 18  2  0
 18 19  1  0
 19 20  2  0
 20 21  1  0
 21 22  2  0
 22 23  1  0
 14  9  1  0
 22 17  1  0
  1 24  1  0
  1 25  1  0
  1 26  1  0
  8 27  1  0
  8 28  1  0
  8 29  1  0
 10 30  1  0
 11 31  1  0
 12 32  1  0
 13 33  1  0
 15 34  1  0
 15 35  1  0
 18 36  1  0
 19 37  1  0
 20 38  1  0
 21 39  1  0
 23 40  1  0
 23 41  1  0
 23 42  1  0
M  END
$$$$
