
     RDKit          3D

 46 47  0  0  0  0  0  0  0  0999 V2000
   -4.5742    1.1599   -1.6210 C   0  0  0  0  0  0  0  0  0  0  0  0
   -4.4678    1.3236   -0.1065 C   0  0  0  0  0  0  0  0  0  0  0  0
   -4.7913    2.7554    0.3074 C   0  0  0  0  0  0  0  0  0  0  0  0
   -3.1336    0.9590    0.3520 N   0  0  0  0  0  0  0  0  0  0  0  0
   -2.7778   -0.3548    0.5841 C   0  0  0  0  0  0  0  0  0  0  0  0
   -3.5643   -1.2904    0.4817 O   0  0  0  0  0  0  0  0  0  0  0  0
   -1.3063   -0.5401    0.9290 C   0  0  0  0  0  0  0  0  0  0  0  0
   -1.0512   -1.8567    1.6839 C   0  0  0  0  0  0  0  0  0  0  0  0
   -0.5038   -2.9361    0.7563 C   0  0  0  0  0  0  0  0  0  0  0  0
    0.8157   -2.4995    0.1137 C   0  0  0  0  0  0  0  0  0  0  0  0
    0.8229   -1.0631   -0.2333 N   0  0  0  0  0  0  0  0  0  0  0  0
    1.9969   -0.2970   -0.1252 C   0  0  0  0  0  0  0  0  0  0  0  0
    2.0074    0.8007    0.6452 C   0  0  0  0  0  0  0  0  0  0  0  0
    3.2096    1.6198    0.8153 C   0  0  0  0  0  0  0  0  0  0  0  0
    3.1216    2.6715    1.4452 O   0  0  0  0  0  0  0  0  0  0  0  0
    4.3590    1.1291    0.2497 N   0  0  0  0  0  0  0  0  0  0  0  0
    5.5886    1.8760    0.4253 C   0  0  0  0  0  0  0  0  0  0  0  0
    4.3787    0.0495   -0.6185 C   0  0  0  0  0  0  0  0  0  0  0  0
    5.4111   -0.2794   -1.2091 O   0  0  0  0  0  0  0  0  0  0  0  0
    3.1701   -0.6280   -0.7951 N   0  0  0  0  0  0  0  0  0  0  0  0
    3.1685   -1.7060   -1.7755 C   0  0  0  0  0  0  0  0  0  0  0  0
   -0.5128   -0.4616   -0.3812 C   0  0  0  0  0  0  0  0  0  0  0  0
   -4.3725    0.1257   -1.9199 H   0  0  0  0  0  0  0  0  0  0  0  0
   -5.5772    1.4227   -1.9728 H   0  0  0  0  0  0  0  0  0  0  0  0
   -3.8508    1.7987   -2.1399 H   0  0  0  0  0  0  0  0  0  0  0  0
   -5.1892    0.6485    0.3692 H   0  0  0  0  0  0  0  0  0  0  0  0
   -5.8040    3.0333   -0.0027 H   0  0  0  0  0  0  0  0  0  0  0  0
   -4.7268    2.8675    1.3952 H   0  0  0  0  0  0  0  0  0  0  0  0
   -4.0891    3.4679   -0.1396 H   0  0  0  0  0  0  0  0  0  0  0  0
   -2.4171    1.6738    0.3405 H   0  0  0  0  0  0  0  0  0  0  0  0
   -1.0206    0.2817    1.5979 H   0  0  0  0  0  0  0  0  0  0  0  0
   -1.9536   -2.2172    2.1903 H   0  0  0  0  0  0  0  0  0  0  0  0
   -0.3111   -1.6722    2.4739 H   0  0  0  0  0  0  0  0  0  0  0  0
   -0.3501   -3.8702    1.3084 H   0  0  0  0  0  0  0  0  0  0  0  0
   -1.2425   -3.1547   -0.0251 H   0  0  0  0  0  0  0  0  0  0  0  0
    1.6323   -2.7095    0.8160 H   0  0  0  0  0  0  0  0  0  0  0  0
    0.9871   -3.1036   -0.7835 H   0  0  0  0  0  0  0  0  0  0  0  0
    1.1457    1.1372    1.2028 H   0  0  0  0  0  0  0  0  0  0  0  0
    6.4357    1.1905    0.5281 H   0  0  0  0  0  0  0  0  0  0  0  0
    5.5466    2.5194    1.3087 H   0  0  0  0  0  0  0  0  0  0  0  0
    5.7459    2.4974   -0.4622 H   0  0  0  0  0  0  0  0  0  0  0  0
    3.3079   -2.6576   -1.2541 H   0  0  0  0  0  0  0  0  0  0  0  0
    3.9815   -1.5939   -2.4996 H   0  0  0  0  0  0  0  0  0  0  0  0
    2.2333   -1.7106   -2.3439 H   0  0  0  0  0  0  0  0  0  0  0  0
   -1.0389   -0.9865   -1.1904 H   0  0  0  0  0  0  0  0  0  0  0  0
   -0.4393    0.5798   -0.7208 H   0  0  0  0  0  0  0  0  0  0  0  0
  1  2  1  0
  2  3  1  0
  2  4  1  0
  4  5  1  0
  5  6  2  0
  5  7  1  0
  7  8  1  0
  8  9  1  0
  9 10  1  0
 10 11  1  0
 11 12  1  0
 12 13  2  0
 13 14  1  0
 14 15  2  0
 14 16  1  0
 16 17  1  0
 16 18  1  0
 18 19  2  0
 18 20  1  0
 20 21  1  0
 11 22  1  0
 22  7  1  0
 20 12  1  0
  1 23  1  0
  1 24  1  0
  1 25  1  0
  2 26  1  0
  3 27  1  0
  3 28  1  0
  3 29  1  0
  4 30  1  0
  7 31  1  0
  8 32  1  0
  8 33  1  0
  9 34  1  0
  9 35  1  0
 10 36  1  0
 10 37  1  0
 13 38  1  0
 17 39  1  0
 17 40  1  0
 17 41  1  0
 21 42  1  0
 21 43  1  0
 21 44  1  0
 22 45  1  0
 22 46  1  0
M  END
$$$$
