
     RDKit          3D

133141  0  0  0  0  0  0  0  0999 V2000
   -9.8957    0.3594    1.0055 C   0  0  0  0  0  0  0  0  0  0  0  0
   -9.0696   -0.8942    1.2737 C   0  0  2  0  0  0  0  0  0  0  0  0
   -9.0183   -1.6407    0.0477 O   0  0  0  0  0  0  0  0  0  0  0  0
   -8.2512   -2.8432    0.1479 C   0  0  1  0  0  0  0  0  0  0  0  0
   -6.8866   -2.5570    0.4342 O   0  0  0  0  0  0  0  0  0  0  0  0
   -6.0033   -2.7697   -0.6793 C   0  0  1  0  0  0  0  0  0  0  0  0
   -6.0430   -1.6007   -1.6820 C   0  0  2  0  0  0  0  0  0  0  0  0
   -5.7092   -2.1093   -2.9845 O   0  0  0  0  0  0  0  0  0  0  0  0
   -5.1157   -0.4304   -1.2910 C   0  0  1  0  0  0  0  0  0  0  0  0
   -5.7806    0.3139   -0.2522 O   0  0  0  0  0  0  0  0  0  0  0  0
   -5.3703    1.6833   -0.1534 C   0  0  2  0  0  0  0  0  0  0  0  0
   -4.1274    1.7684    0.5429 O   0  0  0  0  0  0  0  0  0  0  0  0
   -3.6278    3.1033    0.7105 C   0  0  1  0  0  0  0  0  0  0  0  0
   -2.8200    3.5316   -0.5107 C   0  0  0  0  0  0  0  0  0  0  0  0
   -4.7198    4.1339    1.0538 C   0  0  2  0  0  0  0  0  0  0  0  0
   -4.2582    5.0873    2.0221 O   0  0  0  0  0  0  0  0  0  0  0  0
   -5.9390    3.4160    1.6264 C   0  0  1  0  0  0  0  0  0  0  0  0
   -6.9503    4.3826    1.9688 O   0  0  0  0  0  0  0  0  0  0  0  0
   -6.4972    2.4441    0.5888 C   0  0  1  0  0  0  0  0  0  0  0  0
   -7.2690    3.1984   -0.3715 O   0  0  0  0  0  0  0  0  0  0  0  0
   -3.7143   -0.9178   -0.8313 C   0  0  2  0  0  0  0  0  0  0  0  0
   -2.7386   -0.3413   -1.7121 O   0  0  0  0  0  0  0  0  0  0  0  0
   -1.4423   -0.1567   -1.1310 C   0  0  1  0  0  0  0  0  0  0  0  0
   -0.7847   -1.4640   -0.6841 C   0  0  0  0  0  0  0  0  0  0  0  0
    0.6352   -1.2290   -0.1717 C   0  0  0  0  0  0  0  0  0  0  0  0
    1.5780   -0.5150   -1.1807 C   0  0  1  0  0  0  0  0  0  0  0  0
    1.8968   -1.4755   -2.3517 C   0  0  0  0  0  0  0  0  0  0  0  0
    0.8646    0.7156   -1.7557 C   0  0  0  0  0  0  0  0  0  0  0  0
    1.4645    1.9142   -1.8827 C   0  0  0  0  0  0  0  0  0  0  0  0
    2.8912    2.1993   -1.5168 C   0  0  0  0  0  0  0  0  0  0  0  0
    3.7235    0.9315   -1.2559 C   0  0  1  0  0  0  0  0  0  0  0  0
    5.0287    1.2696   -0.5284 C   0  0  2  0  0  0  0  0  0  0  0  0
    6.0423    2.1875   -1.2110 C   0  0  0  0  0  0  0  0  0  0  0  0
    7.2944    1.9977   -0.3432 C   0  0  2  0  0  0  0  0  0  0  0  0
    8.4790    1.7693   -1.1012 O   0  0  0  0  0  0  0  0  0  0  0  0
    9.3870    1.0524   -0.2201 C   0  0  1  0  0  0  0  0  0  0  0  0
   10.4382    0.3961   -1.1367 C   0  0  0  0  0  0  0  0  0  0  0  0
   11.8545    0.8876   -0.8797 C   0  0  0  0  0  0  0  0  0  0  0  0
   12.1117    0.8302    0.6160 C   0  0  1  0  0  0  0  0  0  0  0  0
   13.5636    1.1489    0.9630 C   0  0  0  0  0  0  0  0  0  0  0  0
   11.1441    1.7661    1.3413 C   0  0  0  0  0  0  0  0  0  0  0  0
    9.9160    2.0224    0.6771 O   0  0  0  0  0  0  0  0  0  0  0  0
    8.4523    0.0253    0.4656 C   0  0  1  0  0  0  0  0  0  0  0  0
    8.8614   -0.4570    1.8512 C   0  0  0  0  0  0  0  0  0  0  0  0
    7.0910    0.7251    0.4955 C   0  0  2  0  0  0  0  0  0  0  0  0
    5.8780    0.0264   -0.1798 C   0  0  2  0  0  0  0  0  0  0  0  0
    6.2753   -0.8032   -1.4317 C   0  0  0  0  0  0  0  0  0  0  0  0
    5.0544   -0.8467    0.7730 C   0  0  0  0  0  0  0  0  0  0  0  0
    3.7250   -1.2688    0.1323 C   0  0  0  0  0  0  0  0  0  0  0  0
    2.8903   -0.0791   -0.4134 C   0  0  2  0  0  0  0  0  0  0  0  0
   -0.5706    0.5270   -2.1961 C   0  0  0  0  0  0  0  0  0  0  0  0
   -3.5905   -2.3381   -0.8958 O   0  0  0  0  0  0  0  0  0  0  0  0
   -4.5878   -2.9829   -0.1036 C   0  0  2  0  0  0  0  0  0  0  0  0
   -4.2291   -4.4746   -0.0411 C   0  0  0  0  0  0  0  0  0  0  0  0
   -5.1706   -5.2200    0.7214 O   0  0  0  0  0  0  0  0  0  0  0  0
   -8.8216   -3.7825    1.2332 C   0  0  2  0  0  0  0  0  0  0  0  0
  -10.1512   -4.2501    0.9176 O   0  0  0  0  0  0  0  0  0  0  0  0
   -8.9024   -3.0428    2.5676 C   0  0  2  0  0  0  0  0  0  0  0  0
   -9.5819   -3.8565    3.5452 O   0  0  0  0  0  0  0  0  0  0  0  0
   -9.6763   -1.7282    2.4118 C   0  0  1  0  0  0  0  0  0  0  0  0
   -9.6495   -1.0174    3.6560 O   0  0  0  0  0  0  0  0  0  0  0  0
   -9.4616    0.9344    0.1796 H   0  0  0  0  0  0  0  0  0  0  0  0
   -9.9492    1.0064    1.8873 H   0  0  0  0  0  0  0  0  0  0  0  0
  -10.9153    0.0966    0.7015 H   0  0  0  0  0  0  0  0  0  0  0  0
   -8.0575   -0.5693    1.5429 H   0  0  0  0  0  0  0  0  0  0  0  0
   -8.3592   -3.3434   -0.8214 H   0  0  0  0  0  0  0  0  0  0  0  0
   -6.3054   -3.6884   -1.1992 H   0  0  0  0  0  0  0  0  0  0  0  0
   -7.0675   -1.2234   -1.7599 H   0  0  0  0  0  0  0  0  0  0  0  0
   -5.7414   -1.3678   -3.6124 H   0  0  0  0  0  0  0  0  0  0  0  0
   -5.0106    0.2200   -2.1687 H   0  0  0  0  0  0  0  0  0  0  0  0
   -5.2541    2.0938   -1.1633 H   0  0  0  0  0  0  0  0  0  0  0  0
   -2.9219    3.0479    1.5489 H   0  0  0  0  0  0  0  0  0  0  0  0
   -3.4233    3.5017   -1.4250 H   0  0  0  0  0  0  0  0  0  0  0  0
   -2.4190    4.5426   -0.3896 H   0  0  0  0  0  0  0  0  0  0  0  0
   -1.9799    2.8487   -0.6682 H   0  0  0  0  0  0  0  0  0  0  0  0
   -5.0155    4.7121    0.1692 H   0  0  0  0  0  0  0  0  0  0  0  0
   -3.4708    5.5268    1.6538 H   0  0  0  0  0  0  0  0  0  0  0  0
   -5.6699    2.8906    2.5505 H   0  0  0  0  0  0  0  0  0  0  0  0
   -6.4660    5.0754    2.4631 H   0  0  0  0  0  0  0  0  0  0  0  0
   -7.2041    1.7590    1.0627 H   0  0  0  0  0  0  0  0  0  0  0  0
   -7.7989    3.8162    0.1790 H   0  0  0  0  0  0  0  0  0  0  0  0
   -3.5122   -0.5964    0.1969 H   0  0  0  0  0  0  0  0  0  0  0  0
   -1.5417    0.5179   -0.2715 H   0  0  0  0  0  0  0  0  0  0  0  0
   -1.3615   -1.9266    0.1249 H   0  0  0  0  0  0  0  0  0  0  0  0
   -0.7884   -2.1896   -1.5079 H   0  0  0  0  0  0  0  0  0  0  0  0
    0.5657   -0.6354    0.7500 H   0  0  0  0  0  0  0  0  0  0  0  0
    1.0559   -2.2000    0.1178 H   0  0  0  0  0  0  0  0  0  0  0  0
    2.3008   -2.4291   -1.9971 H   0  0  0  0  0  0  0  0  0  0  0  0
    1.0060   -1.7240   -2.9388 H   0  0  0  0  0  0  0  0  0  0  0  0
    2.6206   -1.0436   -3.0506 H   0  0  0  0  0  0  0  0  0  0  0  0
    0.9088    2.7583   -2.2872 H   0  0  0  0  0  0  0  0  0  0  0  0
    3.3564    2.7738   -2.3267 H   0  0  0  0  0  0  0  0  0  0  0  0
    2.8862    2.8443   -0.6299 H   0  0  0  0  0  0  0  0  0  0  0  0
    3.9611    0.4920   -2.2309 H   0  0  0  0  0  0  0  0  0  0  0  0
    4.7411    1.7648    0.4142 H   0  0  0  0  0  0  0  0  0  0  0  0
    5.7075    3.2294   -1.1954 H   0  0  0  0  0  0  0  0  0  0  0  0
    6.2202    1.9123   -2.2558 H   0  0  0  0  0  0  0  0  0  0  0  0
    7.4487    2.8725    0.3011 H   0  0  0  0  0  0  0  0  0  0  0  0
   10.1907    0.5438   -2.1951 H   0  0  0  0  0  0  0  0  0  0  0  0
   10.4317   -0.6929   -0.9866 H   0  0  0  0  0  0  0  0  0  0  0  0
   12.5666    0.2554   -1.4226 H   0  0  0  0  0  0  0  0  0  0  0  0
   11.9746    1.9109   -1.2560 H   0  0  0  0  0  0  0  0  0  0  0  0
   11.9162   -0.1956    0.9590 H   0  0  0  0  0  0  0  0  0  0  0  0
   13.8458    2.1510    0.6201 H   0  0  0  0  0  0  0  0  0  0  0  0
   14.2398    0.4271    0.4915 H   0  0  0  0  0  0  0  0  0  0  0  0
   13.7224    1.0999    2.0464 H   0  0  0  0  0  0  0  0  0  0  0  0
   10.9395    1.3936    2.3522 H   0  0  0  0  0  0  0  0  0  0  0  0
   11.6143    2.7479    1.4816 H   0  0  0  0  0  0  0  0  0  0  0  0
    8.3971   -0.8672   -0.1628 H   0  0  0  0  0  0  0  0  0  0  0  0
    8.8800    0.3577    2.5816 H   0  0  0  0  0  0  0  0  0  0  0  0
    8.1471   -1.2037    2.2177 H   0  0  0  0  0  0  0  0  0  0  0  0
    9.8470   -0.9321    1.8305 H   0  0  0  0  0  0  0  0  0  0  0  0
    6.8136    1.0247    1.5160 H   0  0  0  0  0  0  0  0  0  0  0  0
    6.9862   -0.2774   -2.0770 H   0  0  0  0  0  0  0  0  0  0  0  0
    6.7354   -1.7543   -1.1387 H   0  0  0  0  0  0  0  0  0  0  0  0
    5.4187   -1.0633   -2.0597 H   0  0  0  0  0  0  0  0  0  0  0  0
    5.6237   -1.7374    1.0648 H   0  0  0  0  0  0  0  0  0  0  0  0
    4.8396   -0.3003    1.7008 H   0  0  0  0  0  0  0  0  0  0  0  0
    3.9358   -1.9909   -0.6614 H   0  0  0  0  0  0  0  0  0  0  0  0
    3.1444   -1.8101    0.8891 H   0  0  0  0  0  0  0  0  0  0  0  0
    2.5659    0.4754    0.4827 H   0  0  0  0  0  0  0  0  0  0  0  0
   -1.0327    1.4858   -2.4647 H   0  0  0  0  0  0  0  0  0  0  0  0
   -0.5941   -0.0617   -3.1221 H   0  0  0  0  0  0  0  0  0  0  0  0
   -4.5395   -2.5942    0.9235 H   0  0  0  0  0  0  0  0  0  0  0  0
   -4.1709   -4.9060   -1.0453 H   0  0  0  0  0  0  0  0  0  0  0  0
   -3.2395   -4.5938    0.4134 H   0  0  0  0  0  0  0  0  0  0  0  0
   -4.7478   -6.0665    0.9393 H   0  0  0  0  0  0  0  0  0  0  0  0
   -8.1918   -4.6726    1.3450 H   0  0  0  0  0  0  0  0  0  0  0  0
  -10.1851   -4.4148   -0.0406 H   0  0  0  0  0  0  0  0  0  0  0  0
   -7.9003   -2.8409    2.9683 H   0  0  0  0  0  0  0  0  0  0  0  0
  -10.3200   -4.2684    3.0532 H   0  0  0  0  0  0  0  0  0  0  0  0
  -10.7303   -1.9485    2.1997 H   0  0  0  0  0  0  0  0  0  0  0  0
   -9.7859   -1.7028    4.3437 H   0  0  0  0  0  0  0  0  0  0  0  0
  1  2  1  0
  2  3  1  0
  3  4  1  0
  4  5  1  0
  5  6  1  0
  6  7  1  0
  7  8  1  0
  7  9  1  0
  9 10  1  0
 10 11  1  0
 11 12  1  0
 12 13  1  0
 13 14  1  0
 13 15  1  0
 15 16  1  0
 15 17  1  0
 17 18  1  0
 17 19  1  0
 19 20  1  0
  9 21  1  0
 21 22  1  0
 22 23  1  0
 23 24  1  0
 24 25  1  0
 25 26  1  0
 26 27  1  6
 26 28  1  0
 28 29  2  0
 29 30  1  0
 30 31  1  0
 31 32  1  0
 32 33  1  0
 33 34  1  0
 34 35  1  0
 36 35  1  6
 36 37  1  0
 37 38  1  0
 38 39  1  0
 39 40  1  0
 39 41  1  0
 41 42  1  0
 36 43  1  0
 43 44  1  0
 43 45  1  0
 45 46  1  0
 46 47  1  6
 46 48  1  0
 48 49  1  0
 49 50  1  0
 28 51  1  0
 21 52  1  0
 52 53  1  0
 53 54  1  0
 54 55  1  0
  4 56  1  0
 56 57  1  0
 56 58  1  0
 58 59  1  0
 58 60  1  0
 60 61  1  0
 60  2  1  0
 53  6  1  0
 19 11  1  0
 51 23  1  0
 50 26  1  0
 50 31  1  0
 46 32  1  0
 45 34  1  0
 42 36  1  0
  1 62  1  0
  1 63  1  0
  1 64  1  0
  2 65  1  1
  4 66  1  6
  6 67  1  6
  7 68  1  6
  8 69  1  0
  9 70  1  6
 11 71  1  6
 13 72  1  1
 14 73  1  0
 14 74  1  0
 14 75  1  0
 15 76  1  6
 16 77  1  0
 17 78  1  1
 18 79  1  0
 19 80  1  1
 20 81  1  0
 21 82  1  1
 23 83  1  1
 24 84  1  0
 24 85  1  0
 25 86  1  0
 25 87  1  0
 27 88  1  0
 27 89  1  0
 27 90  1  0
 29 91  1  0
 30 92  1  0
 30 93  1  0
 31 94  1  6
 32 95  1  1
 33 96  1  0
 33 97  1  0
 34 98  1  1
 37 99  1  0
 37100  1  0
 38101  1  0
 38102  1  0
 39103  1  1
 40104  1  0
 40105  1  0
 40106  1  0
 41107  1  0
 41108  1  0
 43109  1  6
 44110  1  0
 44111  1  0
 44112  1  0
 45113  1  1
 47114  1  0
 47115  1  0
 47116  1  0
 48117  1  0
 48118  1  0
 49119  1  0
 49120  1  0
 50121  1  1
 51122  1  0
 51123  1  0
 53124  1  1
 54125  1  0
 54126  1  0
 55127  1  0
 56128  1  1
 57129  1  0
 58130  1  1
 59131  1  0
 60132  1  6
 61133  1  0
M  END
$$$$
