
     RDKit          3D

 59 62  0  0  0  0  0  0  0  0999 V2000
    4.1414    4.0612   -0.9634 C   0  0  0  0  0  0  0  0  0  0  0  0
    3.9858    2.9818    0.0389 C   0  0  0  0  0  0  0  0  0  0  0  0
    3.9495    3.0935    1.4449 C   0  0  0  0  0  0  0  0  0  0  0  0
    3.7933    1.8050    1.9107 C   0  0  0  0  0  0  0  0  0  0  0  0
    3.6985    1.2897    3.2975 C   0  0  0  0  0  0  0  0  0  0  0  0
    3.7556    1.0115    0.7888 N   0  0  0  0  0  0  0  0  0  0  0  0
    3.6918   -0.4408    0.7324 C   0  0  0  0  0  0  0  0  0  0  0  0
    2.2650   -0.9739    0.7858 C   0  0  0  0  0  0  0  0  0  0  0  0
    1.6820   -1.2603   -0.5853 C   0  0  0  0  0  0  0  0  0  0  0  0
    2.3491   -1.2148   -1.6163 O   0  0  0  0  0  0  0  0  0  0  0  0
    0.3578   -1.6467   -0.6088 N   0  0  0  0  0  0  0  0  0  0  0  0
   -0.5277   -1.8311    0.5256 C   0  0  0  0  0  0  0  0  0  0  0  0
   -1.7459   -2.5731   -0.0351 C   0  0  1  0  0  0  0  0  0  0  0  0
   -2.9928   -2.3234    0.8097 C   0  0  0  0  0  0  0  0  0  0  0  0
   -4.2753   -2.9202    0.2368 C   0  0  0  0  0  0  0  0  0  0  0  0
   -4.5947   -2.5662   -1.2117 C   0  0  0  0  0  0  0  0  0  0  0  0
   -4.1105   -1.1915   -1.6389 C   0  0  0  0  0  0  0  0  0  0  0  0
   -4.9246   -0.2925   -1.8470 O   0  0  0  0  0  0  0  0  0  0  0  0
   -2.7289   -1.0176   -1.7633 N   0  0  0  0  0  0  0  0  0  0  0  0
   -2.2529    0.3029   -2.1938 C   0  0  0  0  0  0  0  0  0  0  0  0
   -1.7314    1.1564   -1.0647 C   0  0  0  0  0  0  0  0  0  0  0  0
   -0.4026    1.6067   -1.0618 C   0  0  0  0  0  0  0  0  0  0  0  0
    0.0765    2.4063   -0.0211 C   0  0  0  0  0  0  0  0  0  0  0  0
   -0.7653    2.7714    1.0257 C   0  0  0  0  0  0  0  0  0  0  0  0
   -2.0856    2.3420    1.0174 C   0  0  0  0  0  0  0  0  0  0  0  0
   -2.8993    2.6942    2.0217 F   0  0  0  0  0  0  0  0  0  0  0  0
   -2.5758    1.5495   -0.0155 C   0  0  0  0  0  0  0  0  0  0  0  0
   -1.7959   -2.1381   -1.5190 C   0  0  1  0  0  0  0  0  0  0  0  0
   -0.3024   -1.9755   -1.8581 C   0  0  0  0  0  0  0  0  0  0  0  0
    3.8422    1.7130   -0.3553 N   0  0  0  0  0  0  0  0  0  0  0  0
    4.1656    5.0447   -0.4832 H   0  0  0  0  0  0  0  0  0  0  0  0
    5.0738    3.9334   -1.5225 H   0  0  0  0  0  0  0  0  0  0  0  0
    3.3073    4.0520   -1.6726 H   0  0  0  0  0  0  0  0  0  0  0  0
    4.0325    3.9928    2.0390 H   0  0  0  0  0  0  0  0  0  0  0  0
    3.6269    2.1135    4.0151 H   0  0  0  0  0  0  0  0  0  0  0  0
    2.8112    0.6618    3.4229 H   0  0  0  0  0  0  0  0  0  0  0  0
    4.5844    0.6993    3.5512 H   0  0  0  0  0  0  0  0  0  0  0  0
    4.2512   -0.8058    1.6017 H   0  0  0  0  0  0  0  0  0  0  0  0
    4.2484   -0.7660   -0.1532 H   0  0  0  0  0  0  0  0  0  0  0  0
    1.6050   -0.2886    1.3283 H   0  0  0  0  0  0  0  0  0  0  0  0
    2.2813   -1.9321    1.3194 H   0  0  0  0  0  0  0  0  0  0  0  0
   -0.0303   -2.4066    1.3122 H   0  0  0  0  0  0  0  0  0  0  0  0
   -0.7792   -0.8451    0.9265 H   0  0  0  0  0  0  0  0  0  0  0  0
   -1.5201   -3.6493   -0.0172 H   0  0  0  0  0  0  0  0  0  0  0  0
   -2.8324   -2.7408    1.8121 H   0  0  0  0  0  0  0  0  0  0  0  0
   -3.1395   -1.2476    0.9644 H   0  0  0  0  0  0  0  0  0  0  0  0
   -4.2444   -4.0129    0.3310 H   0  0  0  0  0  0  0  0  0  0  0  0
   -5.1087   -2.5885    0.8697 H   0  0  0  0  0  0  0  0  0  0  0  0
   -5.6820   -2.6045   -1.3570 H   0  0  0  0  0  0  0  0  0  0  0  0
   -4.1973   -3.3218   -1.8970 H   0  0  0  0  0  0  0  0  0  0  0  0
   -3.0685    0.8598   -2.6721 H   0  0  0  0  0  0  0  0  0  0  0  0
   -1.5110    0.1735   -2.9866 H   0  0  0  0  0  0  0  0  0  0  0  0
    0.2799    1.3336   -1.8662 H   0  0  0  0  0  0  0  0  0  0  0  0
    1.1094    2.7416   -0.0341 H   0  0  0  0  0  0  0  0  0  0  0  0
   -0.4030    3.3918    1.8383 H   0  0  0  0  0  0  0  0  0  0  0  0
   -3.6194    1.2466    0.0040 H   0  0  0  0  0  0  0  0  0  0  0  0
   -2.1657   -2.9646   -2.1360 H   0  0  0  0  0  0  0  0  0  0  0  0
    0.1101   -2.9421   -2.1749 H   0  0  0  0  0  0  0  0  0  0  0  0
   -0.0624   -1.2534   -2.6400 H   0  0  0  0  0  0  0  0  0  0  0  0
  1  2  1  0
  2  3  1  0
  3  4  2  0
  4  5  1  0
  4  6  1  0
  6  7  1  0
  7  8  1  0
  8  9  1  0
  9 10  2  0
  9 11  1  0
 11 12  1  0
 12 13  1  0
 13 14  1  0
 14 15  1  0
 15 16  1  0
 16 17  1  0
 17 18  2  0
 17 19  1  0
 19 20  1  0
 20 21  1  0
 21 22  2  0
 22 23  1  0
 23 24  2  0
 24 25  1  0
 25 26  1  0
 25 27  2  0
 19 28  1  0
 28 29  1  0
  6 30  1  0
 30  2  2  0
 29 11  1  0
 28 13  1  0
 27 21  1  0
  1 31  1  0
  1 32  1  0
  1 33  1  0
  3 34  1  0
  5 35  1  0
  5 36  1  0
  5 37  1  0
  7 38  1  0
  7 39  1  0
  8 40  1  0
  8 41  1  0
 12 42  1  0
 12 43  1  0
 13 44  1  6
 14 45  1  0
 14 46  1  0
 15 47  1  0
 15 48  1  0
 16 49  1  0
 16 50  1  0
 20 51  1  0
 20 52  1  0
 22 53  1  0
 23 54  1  0
 24 55  1  0
 27 56  1  0
 28 57  1  6
 29 58  1  0
 29 59  1  0
M  END
$$$$
