
     RDKit          3D

 24 22  0  0  0  0  0  0  0  0999 V2000
   -1.5872   -1.2955    0.6447 C   0  0  0  0  0  0  0  0  0  0  0  0
   -1.3902    0.1053    0.1597 C   0  0  0  0  0  0  0  0  0  0  0  0
   -2.2493    1.1176    0.3475 N   0  0  0  0  0  0  0  0  0  0  0  0
   -1.7633    2.2272   -0.2298 C   0  0  0  0  0  0  0  0  0  0  0  0
   -0.5859    1.8968   -0.7804 N   0  0  0  0  0  0  0  0  0  0  0  0
   -0.3142    0.5944   -0.5645 C   0  0  0  0  0  0  0  0  0  0  0  0
    0.8871   -0.1569   -0.9984 C   0  0  0  0  0  0  0  0  0  0  0  0
    1.8070   -0.2817    0.2046 C   0  0  0  0  0  0  0  0  0  0  0  0
    3.0210   -1.0127   -0.1208 N   0  0  0  0  0  0  0  0  0  0  0  0
    0.6832    0.0000    0.0000 Cl  0  0  0  0  0  0  0  0  0  0  0  0
    0.6921    0.0000    0.0000 Cl  0  0  0  0  0  0  0  0  0  0  0  0
   -1.4010   -2.0286   -0.1936 H   0  0  0  0  0  0  0  0  0  0  0  0
   -2.6705   -1.4254    0.9271 H   0  0  0  0  0  0  0  0  0  0  0  0
   -0.9724   -1.5049    1.5234 H   0  0  0  0  0  0  0  0  0  0  0  0
   -3.1476    1.0575    0.8589 H   0  0  0  0  0  0  0  0  0  0  0  0
   -2.2227    3.1950   -0.2484 H   0  0  0  0  0  0  0  0  0  0  0  0
    1.4358    0.3616   -1.8060 H   0  0  0  0  0  0  0  0  0  0  0  0
    0.6368   -1.1821   -1.3589 H   0  0  0  0  0  0  0  0  0  0  0  0
    2.1305    0.7675    0.4816 H   0  0  0  0  0  0  0  0  0  0  0  0
    1.2193   -0.7400    1.0174 H   0  0  0  0  0  0  0  0  0  0  0  0
    3.4705   -1.2866    0.7797 H   0  0  0  0  0  0  0  0  0  0  0  0
    3.6963   -0.4084   -0.6438 H   0  0  0  0  0  0  0  0  0  0  0  0
   -0.6832    0.0000    0.0000 H   0  0  0  0  0  0  0  0  0  0  0  0
   -0.6921    0.0000    0.0000 H   0  0  0  0  0  0  0  0  0  0  0  0
  1  2  1  0
  2  3  1  0
  3  4  1  0
  4  5  2  0
  5  6  1  0
  6  7  1  0
  7  8  1  0
  8  9  1  0
  6  2  2  0
  1 12  1  0
  1 13  1  0
  1 14  1  0
  3 15  1  0
  4 16  1  0
  7 17  1  0
  7 18  1  0
  8 19  1  0
  8 20  1  0
  9 21  1  0
  9 22  1  0
 10 23  1  0
 11 24  1  0
M  END
$$$$
