
     RDKit          3D

 52 56  0  0  0  0  0  0  0  0999 V2000
   -4.6052    2.8775    0.7055 O   0  0  0  0  0  0  0  0  0  0  0  0
   -3.7703    1.9896    0.8282 C   0  0  0  0  0  0  0  0  0  0  0  0
   -2.3939    2.2908    1.3333 C   0  0  0  0  0  0  0  0  0  0  0  0
   -1.5847    1.0468    1.0012 C   0  0  0  0  0  0  0  0  0  0  0  0
   -0.7956    1.2127   -0.2526 N   0  0  0  0  0  0  0  0  0  0  0  0
    0.3719    2.1147   -0.0310 C   0  0  0  0  0  0  0  0  0  0  0  0
    1.7200    1.4358    0.3529 C   0  0  0  0  0  0  0  0  0  0  0  0
    1.5153    0.1459    1.0095 N   0  0  0  0  0  0  0  0  0  0  0  0
    2.6989   -0.4319    1.6478 C   0  0  0  0  0  0  0  0  0  0  0  0
    3.8651   -0.7770    0.7439 C   0  0  0  0  0  0  0  0  0  0  0  0
    4.0052   -2.0865    0.2250 C   0  0  0  0  0  0  0  0  0  0  0  0
    5.0751   -2.4240   -0.6105 C   0  0  0  0  0  0  0  0  0  0  0  0
    5.9906   -1.4394   -0.9074 C   0  0  0  0  0  0  0  0  0  0  0  0
    5.8711   -0.1661   -0.4046 C   0  0  0  0  0  0  0  0  0  0  0  0
    4.8280    0.1953    0.4220 C   0  0  0  0  0  0  0  0  0  0  0  0
    6.8780    0.6509   -0.8147 O   0  0  0  0  0  0  0  0  0  0  0  0
    7.6458   -0.2564   -1.6329 C   0  0  0  0  0  0  0  0  0  0  0  0
    7.0873   -1.5849   -1.6977 O   0  0  0  0  0  0  0  0  0  0  0  0
    0.7695   -0.7825    0.1463 C   0  0  0  0  0  0  0  0  0  0  0  0
   -0.2637   -0.0715   -0.7697 C   0  0  0  0  0  0  0  0  0  0  0  0
   -2.6889    0.0043    0.8589 C   0  0  0  0  0  0  0  0  0  0  0  0
   -2.4738   -1.1970    0.9935 O   0  0  0  0  0  0  0  0  0  0  0  0
   -3.8888    0.6370    0.6073 N   0  0  0  0  0  0  0  0  0  0  0  0
   -5.0995   -0.0338    0.2374 C   0  0  0  0  0  0  0  0  0  0  0  0
   -6.3465    0.6130    0.2706 C   0  0  0  0  0  0  0  0  0  0  0  0
   -7.5279   -0.0456   -0.0962 C   0  0  0  0  0  0  0  0  0  0  0  0
   -7.4914   -1.3706   -0.5099 C   0  0  0  0  0  0  0  0  0  0  0  0
   -6.2729   -2.0346   -0.5587 C   0  0  0  0  0  0  0  0  0  0  0  0
   -5.0939   -1.3729   -0.1912 C   0  0  0  0  0  0  0  0  0  0  0  0
   -2.0229    3.2070    0.8658 H   0  0  0  0  0  0  0  0  0  0  0  0
   -2.4474    2.4452    2.4168 H   0  0  0  0  0  0  0  0  0  0  0  0
   -0.9535    0.7768    1.8553 H   0  0  0  0  0  0  0  0  0  0  0  0
    0.1404    2.8745    0.7244 H   0  0  0  0  0  0  0  0  0  0  0  0
    0.5336    2.6729   -0.9621 H   0  0  0  0  0  0  0  0  0  0  0  0
    2.2666    2.1207    1.0122 H   0  0  0  0  0  0  0  0  0  0  0  0
    2.3185    1.3099   -0.5584 H   0  0  0  0  0  0  0  0  0  0  0  0
    2.4023   -1.3303    2.2060 H   0  0  0  0  0  0  0  0  0  0  0  0
    3.0551    0.2575    2.4253 H   0  0  0  0  0  0  0  0  0  0  0  0
    3.2712   -2.8505    0.4755 H   0  0  0  0  0  0  0  0  0  0  0  0
    5.1825   -3.4258   -1.0103 H   0  0  0  0  0  0  0  0  0  0  0  0
    4.7636    1.2066    0.8086 H   0  0  0  0  0  0  0  0  0  0  0  0
    7.7016    0.1503   -2.6492 H   0  0  0  0  0  0  0  0  0  0  0  0
    8.6610   -0.3224   -1.2247 H   0  0  0  0  0  0  0  0  0  0  0  0
    1.4340   -1.3553   -0.5087 H   0  0  0  0  0  0  0  0  0  0  0  0
    0.2465   -1.4989    0.7898 H   0  0  0  0  0  0  0  0  0  0  0  0
    0.2284    0.1499   -1.7279 H   0  0  0  0  0  0  0  0  0  0  0  0
   -1.0702   -0.7616   -1.0403 H   0  0  0  0  0  0  0  0  0  0  0  0
   -6.4513    1.6432    0.5974 H   0  0  0  0  0  0  0  0  0  0  0  0
   -8.4756    0.4859   -0.0542 H   0  0  0  0  0  0  0  0  0  0  0  0
   -8.4068   -1.8818   -0.7949 H   0  0  0  0  0  0  0  0  0  0  0  0
   -6.2299   -3.0705   -0.8864 H   0  0  0  0  0  0  0  0  0  0  0  0
   -4.1729   -1.9426   -0.2757 H   0  0  0  0  0  0  0  0  0  0  0  0
  1  2  2  0
  2  3  1  0
  3  4  1  0
  4  5  1  0
  5  6  1  0
  6  7  1  0
  7  8  1  0
  8  9  1  0
  9 10  1  0
 10 11  2  0
 11 12  1  0
 12 13  2  0
 13 14  1  0
 14 15  2  0
 14 16  1  0
 16 17  1  0
 17 18  1  0
  8 19  1  0
 19 20  1  0
  4 21  1  0
 21 22  2  0
 21 23  1  0
 23 24  1  0
 24 25  2  0
 25 26  1  0
 26 27  2  0
 27 28  1  0
 28 29  2  0
 23  2  1  0
 29 24  1  0
 20  5  1  0
 15 10  1  0
 18 13  1  0
  3 30  1  0
  3 31  1  0
  4 32  1  0
  6 33  1  0
  6 34  1  0
  7 35  1  0
  7 36  1  0
  9 37  1  0
  9 38  1  0
 11 39  1  0
 12 40  1  0
 15 41  1  0
 17 42  1  0
 17 43  1  0
 19 44  1  0
 19 45  1  0
 20 46  1  0
 20 47  1  0
 25 48  1  0
 26 49  1  0
 27 50  1  0
 28 51  1  0
 29 52  1  0
M  END
$$$$
