
     RDKit          3D

 48 50  0  0  0  0  0  0  0  0999 V2000
    0.6846    0.0000    0.0000 Cl  0  0  0  0  0  0  0  0  0  0  0  0
   -0.5537    2.0079   -1.1568 C   0  0  0  0  0  0  0  0  0  0  0  0
    0.4045    1.0525   -0.5907 N   0  0  0  0  0  0  0  0  0  0  0  0
    1.6958    1.2082   -0.8795 C   0  0  0  0  0  0  0  0  0  0  0  0
    2.1210    2.1313   -1.6098 O   0  0  0  0  0  0  0  0  0  0  0  0
    2.6912    0.3229   -0.3696 C   0  0  0  0  0  0  0  0  0  0  0  0
    3.9548    0.5275   -0.6902 O   0  0  0  0  0  0  0  0  0  0  0  0
    5.2160    0.1860   -0.6126 C   0  0  0  0  0  0  0  0  0  0  0  0
    5.7380   -0.8754    0.0897 C   0  0  0  0  0  0  0  0  0  0  0  0
    7.0788   -1.1475    0.1059 C   0  0  0  0  0  0  0  0  0  0  0  0
    7.9463   -0.3458   -0.5958 C   0  0  0  0  0  0  0  0  0  0  0  0
    9.2706   -0.5559   -0.6226 F   0  0  0  0  0  0  0  0  0  0  0  0
    7.4517    0.7313   -1.3133 C   0  0  0  0  0  0  0  0  0  0  0  0
    6.1279    0.9924   -1.3238 C   0  0  0  0  0  0  0  0  0  0  0  0
    5.6408    2.0604   -2.0357 F   0  0  0  0  0  0  0  0  0  0  0  0
    2.1878   -0.6815    0.4306 C   0  0  0  0  0  0  0  0  0  0  0  0
    0.8262   -0.8238    0.7191 C   0  0  0  0  0  0  0  0  0  0  0  0
    0.3579   -1.8316    1.5169 C   0  0  0  0  0  0  0  0  0  0  0  0
   -0.9848   -1.9230    1.7658 N   0  0  0  0  0  0  0  0  0  0  0  0
   -1.8419   -1.0387    1.2378 C   0  0  0  0  0  0  0  0  0  0  0  0
   -3.2159   -1.1396    1.4979 N   0  0  0  0  0  0  0  0  0  0  0  0
   -4.1348   -0.2008    0.9386 C   0  0  0  0  0  0  0  0  0  0  0  0
   -5.5691   -0.5100    1.3586 C   0  0  0  0  0  0  0  0  0  0  0  0
   -6.4000    0.6908    0.9651 C   0  0  0  0  0  0  0  0  0  0  0  0
   -5.9952    1.2832   -0.2040 O   0  0  0  0  0  0  0  0  0  0  0  0
   -5.4123    0.4081   -1.1116 C   0  0  0  0  0  0  0  0  0  0  0  0
   -4.1294   -0.1926   -0.5760 C   0  0  0  0  0  0  0  0  0  0  0  0
   -1.3842   -0.0520    0.4568 N   0  0  0  0  0  0  0  0  0  0  0  0
   -0.0662    0.0703    0.1888 C   0  0  0  0  0  0  0  0  0  0  0  0
   -0.6846    0.0000    0.0000 H   0  0  0  0  0  0  0  0  0  0  0  0
   -0.0235    2.9639   -1.3157 H   0  0  0  0  0  0  0  0  0  0  0  0
   -0.8523    1.5733   -2.1408 H   0  0  0  0  0  0  0  0  0  0  0  0
   -1.4161    2.1646   -0.4788 H   0  0  0  0  0  0  0  0  0  0  0  0
    5.0576   -1.5323    0.6606 H   0  0  0  0  0  0  0  0  0  0  0  0
    7.4589   -2.0042    0.6784 H   0  0  0  0  0  0  0  0  0  0  0  0
    8.1292    1.3842   -1.8809 H   0  0  0  0  0  0  0  0  0  0  0  0
    2.8462   -1.4040    0.8676 H   0  0  0  0  0  0  0  0  0  0  0  0
    1.0359   -2.5480    1.9469 H   0  0  0  0  0  0  0  0  0  0  0  0
   -3.5974   -1.9154    2.1150 H   0  0  0  0  0  0  0  0  0  0  0  0
   -3.8909    0.8286    1.2726 H   0  0  0  0  0  0  0  0  0  0  0  0
   -5.5667   -0.5887    2.4636 H   0  0  0  0  0  0  0  0  0  0  0  0
   -5.9135   -1.4393    0.8763 H   0  0  0  0  0  0  0  0  0  0  0  0
   -7.4676    0.3950    0.9690 H   0  0  0  0  0  0  0  0  0  0  0  0
   -6.2666    1.4505    1.7841 H   0  0  0  0  0  0  0  0  0  0  0  0
   -6.0971   -0.3660   -1.4697 H   0  0  0  0  0  0  0  0  0  0  0  0
   -5.1337    1.0230   -2.0023 H   0  0  0  0  0  0  0  0  0  0  0  0
   -4.0885   -1.2407   -0.9380 H   0  0  0  0  0  0  0  0  0  0  0  0
   -3.2354    0.3353   -0.9879 H   0  0  0  0  0  0  0  0  0  0  0  0
  2  3  1  0
  3  4  1  0
  4  5  2  0
  4  6  1  0
  6  7  1  0
  7  8  1  0
  8  9  2  0
  9 10  1  0
 10 11  2  0
 11 12  1  0
 11 13  1  0
 13 14  2  0
 14 15  1  0
  6 16  2  0
 16 17  1  0
 17 18  2  0
 18 19  1  0
 19 20  2  0
 20 21  1  0
 21 22  1  0
 22 23  1  0
 23 24  1  0
 24 25  1  0
 25 26  1  0
 26 27  1  0
 20 28  1  0
 28 29  2  0
 29  3  1  0
 14  8  1  0
 29 17  1  0
 27 22  1  0
  1 30  1  0
  2 31  1  0
  2 32  1  0
  2 33  1  0
  9 34  1  0
 10 35  1  0
 13 36  1  0
 16 37  1  0
 18 38  1  0
 21 39  1  0
 22 40  1  0
 23 41  1  0
 23 42  1  0
 24 43  1  0
 24 44  1  0
 26 45  1  0
 26 46  1  0
 27 47  1  0
 27 48  1  0
M  END
$$$$
