
     RDKit          3D

 55 58  0  0  0  0  0  0  0  0999 V2000
   -4.9082    2.2540    2.0917 C   0  0  0  0  0  0  0  0  0  0  0  0
   -4.4233    1.0811    1.3729 N   0  0  0  0  0  0  0  0  0  0  0  0
   -3.4411    1.4294    0.3249 C   0  0  0  0  0  0  0  0  0  0  0  0
   -3.9392    1.2744   -1.1254 C   0  0  0  0  0  0  0  0  0  0  0  0
   -4.4881   -0.0842   -1.3846 N   0  0  0  0  0  0  0  0  0  0  0  0
   -3.7169   -1.0635   -2.5253 S   0  0  0  0  0  6  0  0  0  0  0  0
   -3.4227   -0.2517   -3.6895 O   0  0  0  0  0  0  0  0  0  0  0  0
   -4.4678   -2.2974   -2.6436 O   0  0  0  0  0  0  0  0  0  0  0  0
   -2.1595   -1.4614   -1.7549 C   0  0  0  0  0  0  0  0  0  0  0  0
   -1.0316   -0.6880   -2.0283 C   0  0  0  0  0  0  0  0  0  0  0  0
    0.1940   -1.0220   -1.4423 C   0  0  0  0  0  0  0  0  0  0  0  0
    0.3281   -2.1354   -0.5870 C   0  0  0  0  0  0  0  0  0  0  0  0
    1.6323   -2.4556    0.0298 C   0  0  0  0  0  0  0  0  0  0  0  0
    2.0116   -3.7357    0.4319 C   0  0  0  0  0  0  0  0  0  0  0  0
    3.2018   -4.0217    1.0202 N   0  0  0  0  0  0  0  0  0  0  0  0
    4.0570   -2.9953    1.2067 C   0  0  0  0  0  0  0  0  0  0  0  0
    5.2796   -3.3213    1.8093 N   0  0  0  0  0  0  0  0  0  0  0  0
    3.6908   -1.7057    0.7897 C   0  0  0  0  0  0  0  0  0  0  0  0
    4.6108   -0.5302    0.9443 C   0  0  0  0  0  0  0  0  0  0  0  0
    5.7110   -0.6551    1.4679 O   0  0  0  0  0  0  0  0  0  0  0  0
    4.0778    0.6410    0.4338 N   0  0  0  0  0  0  0  0  0  0  0  0
    4.6839    1.9087    0.3744 C   0  0  0  0  0  0  0  0  0  0  0  0
    3.9610    2.9470   -0.2184 C   0  0  0  0  0  0  0  0  0  0  0  0
    4.5203    4.2210   -0.3134 C   0  0  0  0  0  0  0  0  0  0  0  0
    5.7933    4.4184    0.1919 C   0  0  0  0  0  0  0  0  0  0  0  0
    6.5231    3.4451    0.7746 N   0  0  0  0  0  0  0  0  0  0  0  0
    5.9545    2.2125    0.8532 C   0  0  0  0  0  0  0  0  0  0  0  0
    2.4853   -1.4125    0.1991 N   0  0  0  0  0  0  0  0  0  0  0  0
   -0.8263   -2.9081   -0.3496 C   0  0  0  0  0  0  0  0  0  0  0  0
   -2.0562   -2.5862   -0.9365 C   0  0  0  0  0  0  0  0  0  0  0  0
   -5.0800   -0.7535   -0.1939 C   0  0  0  0  0  0  0  0  0  0  0  0
   -5.5460    0.2851    0.8432 C   0  0  0  0  0  0  0  0  0  0  0  0
   -5.6116    1.9583    2.8800 H   0  0  0  0  0  0  0  0  0  0  0  0
   -4.0777    2.7702    2.5872 H   0  0  0  0  0  0  0  0  0  0  0  0
   -5.4154    2.9674    1.4373 H   0  0  0  0  0  0  0  0  0  0  0  0
   -3.0504    2.4468    0.4658 H   0  0  0  0  0  0  0  0  0  0  0  0
   -2.5830    0.7596    0.4681 H   0  0  0  0  0  0  0  0  0  0  0  0
   -3.1274    1.5153   -1.8178 H   0  0  0  0  0  0  0  0  0  0  0  0
   -4.7338    2.0026   -1.3285 H   0  0  0  0  0  0  0  0  0  0  0  0
   -1.0910    0.1672   -2.6984 H   0  0  0  0  0  0  0  0  0  0  0  0
    1.0624   -0.4053   -1.6722 H   0  0  0  0  0  0  0  0  0  0  0  0
    1.3722   -4.6008    0.2871 H   0  0  0  0  0  0  0  0  0  0  0  0
    5.4082   -2.7463    2.6469 H   0  0  0  0  0  0  0  0  0  0  0  0
    6.0441   -3.0262    1.1945 H   0  0  0  0  0  0  0  0  0  0  0  0
    3.1424    0.5419    0.0452 H   0  0  0  0  0  0  0  0  0  0  0  0
    2.9636    2.7800   -0.6141 H   0  0  0  0  0  0  0  0  0  0  0  0
    3.9772    5.0399   -0.7725 H   0  0  0  0  0  0  0  0  0  0  0  0
    6.2741    5.3918    0.1397 H   0  0  0  0  0  0  0  0  0  0  0  0
    6.5894    1.4747    1.3304 H   0  0  0  0  0  0  0  0  0  0  0  0
   -0.7963   -3.7755    0.3093 H   0  0  0  0  0  0  0  0  0  0  0  0
   -2.9239   -3.2166   -0.7466 H   0  0  0  0  0  0  0  0  0  0  0  0
   -5.9439   -1.3476   -0.5160 H   0  0  0  0  0  0  0  0  0  0  0  0
   -4.3542   -1.4252    0.2752 H   0  0  0  0  0  0  0  0  0  0  0  0
   -6.3004    0.9330    0.3750 H   0  0  0  0  0  0  0  0  0  0  0  0
   -6.0340   -0.2380    1.6748 H   0  0  0  0  0  0  0  0  0  0  0  0
  1  2  1  0
  2  3  1  0
  3  4  1  0
  4  5  1  0
  5  6  1  0
  6  7  2  0
  6  8  2  0
  6  9  1  0
  9 10  2  0
 10 11  1  0
 11 12  2  0
 12 13  1  0
 13 14  2  0
 14 15  1  0
 15 16  2  0
 16 17  1  0
 16 18  1  0
 18 19  1  0
 19 20  2  0
 19 21  1  0
 21 22  1  0
 22 23  2  0
 23 24  1  0
 24 25  2  0
 25 26  1  0
 26 27  2  0
 18 28  2  0
 12 29  1  0
 29 30  2  0
  5 31  1  0
 31 32  1  0
 32  2  1  0
 30  9  1  0
 28 13  1  0
 27 22  1  0
  1 33  1  0
  1 34  1  0
  1 35  1  0
  3 36  1  0
  3 37  1  0
  4 38  1  0
  4 39  1  0
 10 40  1  0
 11 41  1  0
 14 42  1  0
 17 43  1  0
 17 44  1  0
 21 45  1  0
 23 46  1  0
 24 47  1  0
 25 48  1  0
 27 49  1  0
 29 50  1  0
 30 51  1  0
 31 52  1  0
 31 53  1  0
 32 54  1  0
 32 55  1  0
M  END
$$$$
