
     RDKit          3D

 69 74  0  0  0  0  0  0  0  0999 V2000
   -7.5450    2.6871    1.6575 C   0  0  0  0  0  0  0  0  0  0  0  0
   -7.5266    1.7085    0.6264 O   0  0  0  0  0  0  0  0  0  0  0  0
   -6.3315    1.1239    0.3146 C   0  0  0  0  0  0  0  0  0  0  0  0
   -6.3594    0.1836   -0.7320 C   0  0  0  0  0  0  0  0  0  0  0  0
   -5.1666   -0.4778   -1.1571 C   0  0  0  0  0  0  0  0  0  0  0  0
   -3.9177   -0.1853   -0.5672 C   0  0  0  0  0  0  0  0  0  0  0  0
   -2.6602   -0.8908   -1.0134 C   0  0  0  0  0  0  0  0  0  0  0  0
   -1.4284   -0.2092   -0.6897 N   0  0  0  0  0  0  0  0  0  0  0  0
   -0.2178   -0.7600   -1.0418 C   0  0  0  0  0  0  0  0  0  0  0  0
   -0.1097   -1.7546   -1.7495 O   0  0  0  0  0  0  0  0  0  0  0  0
    0.9649    0.0041   -0.4804 C   0  0  0  0  0  0  0  0  0  0  0  0
    2.2790   -0.7457   -0.6972 C   0  0  0  0  0  0  0  0  0  0  0  0
    3.4710    0.0034   -0.1205 C   0  0  0  0  0  0  0  0  0  0  0  0
    3.4435    0.0865    1.3180 N   0  0  0  0  0  0  0  0  0  0  0  0
    4.5754   -0.4536    1.8876 C   0  0  0  0  0  0  0  0  0  0  0  0
    4.8140   -0.4105    3.0829 O   0  0  0  0  0  0  0  0  0  0  0  0
    5.3384   -0.9975    0.9035 N   0  0  0  0  0  0  0  0  0  0  0  0
    6.6229   -1.6205    1.1156 C   0  0  0  0  0  0  0  0  0  0  0  0
    7.7427   -0.6041    1.0820 C   0  0  0  0  0  0  0  0  0  0  0  0
    8.1421    0.0533    2.2696 C   0  0  0  0  0  0  0  0  0  0  0  0
    9.1453    1.0267    2.2514 C   0  0  0  0  0  0  0  0  0  0  0  0
    9.7226    1.3280    1.0373 C   0  0  0  0  0  0  0  0  0  0  0  0
    9.3376    0.7001   -0.1237 C   0  0  0  0  0  0  0  0  0  0  0  0
    8.3548   -0.2664   -0.1370 C   0  0  0  0  0  0  0  0  0  0  0  0
   10.0237    1.1496   -1.2083 O   0  0  0  0  0  0  0  0  0  0  0  0
   10.8729    2.1441   -0.5995 C   0  0  0  0  0  0  0  0  0  0  0  0
   10.6982    2.2518    0.8288 O   0  0  0  0  0  0  0  0  0  0  0  0
    4.7766   -0.7714   -0.3213 C   0  0  0  0  0  0  0  0  0  0  0  0
    5.2321   -1.1088   -1.4051 O   0  0  0  0  0  0  0  0  0  0  0  0
   -3.9470    0.7226    0.4872 C   0  0  0  0  0  0  0  0  0  0  0  0
   -5.1039    1.3566    0.9150 C   0  0  0  0  0  0  0  0  0  0  0  0
   -4.8504    2.2053    1.9553 O   0  0  0  0  0  0  0  0  0  0  0  0
   -3.4490    2.0043    2.1712 C   0  0  0  0  0  0  0  0  0  0  0  0
   -2.8548    1.1044    1.2217 O   0  0  0  0  0  0  0  0  0  0  0  0
   -5.3492   -1.4861   -2.2740 C   0  0  0  0  0  0  0  0  0  0  0  0
   -6.6212   -2.3070   -2.0136 C   0  0  0  0  0  0  0  0  0  0  0  0
   -7.8529   -1.5185   -1.8469 N   0  0  0  0  0  0  0  0  0  0  0  0
   -8.7472   -2.1510   -0.8792 C   0  0  0  0  0  0  0  0  0  0  0  0
   -7.6242   -0.0992   -1.5244 C   0  0  0  0  0  0  0  0  0  0  0  0
   -6.9199    3.5447    1.3927 H   0  0  0  0  0  0  0  0  0  0  0  0
   -7.2574    2.2484    2.6200 H   0  0  0  0  0  0  0  0  0  0  0  0
   -8.5733    3.0494    1.7559 H   0  0  0  0  0  0  0  0  0  0  0  0
   -2.6249   -1.8855   -0.5542 H   0  0  0  0  0  0  0  0  0  0  0  0
   -2.6594   -1.0124   -2.1025 H   0  0  0  0  0  0  0  0  0  0  0  0
   -1.4594    0.4538    0.0763 H   0  0  0  0  0  0  0  0  0  0  0  0
    1.0029    0.9827   -0.9729 H   0  0  0  0  0  0  0  0  0  0  0  0
    0.7924    0.1640    0.5902 H   0  0  0  0  0  0  0  0  0  0  0  0
    2.4358   -0.9060   -1.7718 H   0  0  0  0  0  0  0  0  0  0  0  0
    2.2086   -1.7459   -0.2490 H   0  0  0  0  0  0  0  0  0  0  0  0
    3.5813    1.0127   -0.5287 H   0  0  0  0  0  0  0  0  0  0  0  0
    2.8346    0.6711    1.8744 H   0  0  0  0  0  0  0  0  0  0  0  0
    6.6175   -2.1346    2.0841 H   0  0  0  0  0  0  0  0  0  0  0  0
    6.7886   -2.3796    0.3425 H   0  0  0  0  0  0  0  0  0  0  0  0
    7.6566   -0.1883    3.2152 H   0  0  0  0  0  0  0  0  0  0  0  0
    9.4529    1.5337    3.1587 H   0  0  0  0  0  0  0  0  0  0  0  0
    8.0600   -0.7363   -1.0711 H   0  0  0  0  0  0  0  0  0  0  0  0
   10.6505    3.1168   -1.0527 H   0  0  0  0  0  0  0  0  0  0  0  0
   11.9183    1.8889   -0.8069 H   0  0  0  0  0  0  0  0  0  0  0  0
   -2.9381    2.9713    2.1062 H   0  0  0  0  0  0  0  0  0  0  0  0
   -3.3005    1.5999    3.1795 H   0  0  0  0  0  0  0  0  0  0  0  0
   -5.4079   -0.9586   -3.2336 H   0  0  0  0  0  0  0  0  0  0  0  0
   -4.5092   -2.1852   -2.3295 H   0  0  0  0  0  0  0  0  0  0  0  0
   -6.7698   -3.0092   -2.8416 H   0  0  0  0  0  0  0  0  0  0  0  0
   -6.4360   -2.9185   -1.1192 H   0  0  0  0  0  0  0  0  0  0  0  0
   -9.7191   -1.6451   -0.8608 H   0  0  0  0  0  0  0  0  0  0  0  0
   -8.3311   -2.1378    0.1347 H   0  0  0  0  0  0  0  0  0  0  0  0
   -8.9444   -3.1926   -1.1591 H   0  0  0  0  0  0  0  0  0  0  0  0
   -7.5313    0.4482   -2.4717 H   0  0  0  0  0  0  0  0  0  0  0  0
   -8.5135    0.3240   -1.0430 H   0  0  0  0  0  0  0  0  0  0  0  0
  1  2  1  0
  2  3  1  0
  3  4  2  0
  4  5  1  0
  5  6  2  0
  6  7  1  0
  7  8  1  0
  8  9  1  0
  9 10  2  0
  9 11  1  0
 11 12  1  0
 12 13  1  0
 13 14  1  0
 14 15  1  0
 15 16  2  0
 15 17  1  0
 17 18  1  0
 18 19  1  0
 19 20  2  0
 20 21  1  0
 21 22  2  0
 22 23  1  0
 23 24  2  0
 23 25  1  0
 25 26  1  0
 26 27  1  0
 17 28  1  0
 28 29  2  0
  6 30  1  0
 30 31  2  0
 31 32  1  0
 32 33  1  0
 33 34  1  0
  5 35  1  0
 35 36  1  0
 36 37  1  0
 37 38  1  0
 37 39  1  0
 31  3  1  0
 39  4  1  0
 28 13  1  0
 34 30  1  0
 24 19  1  0
 27 22  1  0
  1 40  1  0
  1 41  1  0
  1 42  1  0
  7 43  1  0
  7 44  1  0
  8 45  1  0
 11 46  1  0
 11 47  1  0
 12 48  1  0
 12 49  1  0
 13 50  1  0
 14 51  1  0
 18 52  1  0
 18 53  1  0
 20 54  1  0
 21 55  1  0
 24 56  1  0
 26 57  1  0
 26 58  1  0
 33 59  1  0
 33 60  1  0
 35 61  1  0
 35 62  1  0
 36 63  1  0
 36 64  1  0
 38 65  1  0
 38 66  1  0
 38 67  1  0
 39 68  1  0
 39 69  1  0
M  END
$$$$
