
     RDKit          3D

 36 38  0  0  0  0  0  0  0  0999 V2000
   -5.6051   -1.2747   -0.1611 C   0  0  0  0  0  0  0  0  0  0  0  0
   -4.4324   -1.4631   -0.9410 O   0  0  0  0  0  0  0  0  0  0  0  0
   -3.2619   -0.9163   -0.4773 C   0  0  0  0  0  0  0  0  0  0  0  0
   -3.1441   -0.1886    0.7123 C   0  0  0  0  0  0  0  0  0  0  0  0
   -1.9329    0.3449    1.1334 C   0  0  0  0  0  0  0  0  0  0  0  0
   -1.9048    1.0176    2.2868 N   0  0  0  0  0  0  0  0  0  0  0  0
   -0.7226    1.5120    2.6674 C   0  0  0  0  0  0  0  0  0  0  0  0
    0.4259    1.4105    1.9952 N   0  0  0  0  0  0  0  0  0  0  0  0
    0.3897    0.7452    0.8272 C   0  0  0  0  0  0  0  0  0  0  0  0
    1.5752    0.6482    0.0464 N   0  0  0  0  0  0  0  0  0  0  0  0
    2.9060    0.9142    0.4442 C   0  0  0  0  0  0  0  0  0  0  0  0
    3.8515    1.2637   -0.5345 C   0  0  0  0  0  0  0  0  0  0  0  0
    5.1933    1.4740   -0.2025 C   0  0  0  0  0  0  0  0  0  0  0  0
    5.6158    1.3120    1.1140 C   0  0  0  0  0  0  0  0  0  0  0  0
    4.6962    0.9289    2.0864 C   0  0  0  0  0  0  0  0  0  0  0  0
    5.2225    0.6994    3.7099 Cl  0  0  0  0  0  0  0  0  0  0  0  0
    3.3565    0.7183    1.7553 C   0  0  0  0  0  0  0  0  0  0  0  0
   -0.7964    0.1591    0.3378 C   0  0  0  0  0  0  0  0  0  0  0  0
   -0.9023   -0.5902   -0.8627 C   0  0  0  0  0  0  0  0  0  0  0  0
   -2.1241   -1.1283   -1.2708 C   0  0  0  0  0  0  0  0  0  0  0  0
   -2.3093   -1.8565   -2.4175 O   0  0  0  0  0  0  0  0  0  0  0  0
   -1.1561   -2.2430   -3.1513 C   0  0  0  0  0  0  0  0  0  0  0  0
   -5.5026   -1.7400    0.8247 H   0  0  0  0  0  0  0  0  0  0  0  0
   -5.8556   -0.2123   -0.0748 H   0  0  0  0  0  0  0  0  0  0  0  0
   -6.4331   -1.7701   -0.6774 H   0  0  0  0  0  0  0  0  0  0  0  0
   -4.0038   -0.0177    1.3528 H   0  0  0  0  0  0  0  0  0  0  0  0
   -0.6944    2.0494    3.6091 H   0  0  0  0  0  0  0  0  0  0  0  0
    1.3823    1.0245   -0.8764 H   0  0  0  0  0  0  0  0  0  0  0  0
    3.5503    1.3825   -1.5725 H   0  0  0  0  0  0  0  0  0  0  0  0
    5.9066    1.7580   -0.9719 H   0  0  0  0  0  0  0  0  0  0  0  0
    6.6584    1.4736    1.3734 H   0  0  0  0  0  0  0  0  0  0  0  0
    2.6665    0.3940    2.5290 H   0  0  0  0  0  0  0  0  0  0  0  0
   -0.0081   -0.7498   -1.4556 H   0  0  0  0  0  0  0  0  0  0  0  0
   -0.4673   -2.8267   -2.5315 H   0  0  0  0  0  0  0  0  0  0  0  0
   -1.4834   -2.8821   -3.9770 H   0  0  0  0  0  0  0  0  0  0  0  0
   -0.6566   -1.3704   -3.5845 H   0  0  0  0  0  0  0  0  0  0  0  0
  1  2  1  0
  2  3  1  0
  3  4  2  0
  4  5  1  0
  5  6  2  0
  6  7  1  0
  7  8  2  0
  8  9  1  0
  9 10  1  0
 10 11  1  0
 11 12  2  0
 12 13  1  0
 13 14  2  0
 14 15  1  0
 15 16  1  0
 15 17  2  0
  9 18  2  0
 18 19  1  0
 19 20  2  0
 20 21  1  0
 21 22  1  0
 20  3  1  0
 18  5  1  0
 17 11  1  0
  1 23  1  0
  1 24  1  0
  1 25  1  0
  4 26  1  0
  7 27  1  0
 10 28  1  0
 12 29  1  0
 13 30  1  0
 14 31  1  0
 17 32  1  0
 19 33  1  0
 22 34  1  0
 22 35  1  0
 22 36  1  0
M  END
$$$$
