
     RDKit          3D

 51 54  0  0  0  0  0  0  0  0999 V2000
    4.4051   -2.8010   -0.7546 C   0  0  0  0  0  0  0  0  0  0  0  0
    4.9755   -1.6393    0.0328 C   0  0  0  0  0  0  0  0  0  0  0  0
    5.3467   -0.2099   -0.9823 S   0  0  0  0  0  6  0  0  0  0  0  0
    5.8430    0.8394   -0.1192 O   0  0  0  0  0  0  0  0  0  0  0  0
    6.1222   -0.6620   -2.1185 O   0  0  0  0  0  0  0  0  0  0  0  0
    3.8455    0.2270   -1.5992 N   0  0  0  0  0  0  0  0  0  0  0  0
    2.7889    0.6316   -0.7351 C   0  0  0  0  0  0  0  0  0  0  0  0
    2.9316    1.7047    0.1422 C   0  0  0  0  0  0  0  0  0  0  0  0
    1.8725    2.0779    0.9712 C   0  0  0  0  0  0  0  0  0  0  0  0
    0.6567    1.3925    0.9075 C   0  0  0  0  0  0  0  0  0  0  0  0
   -0.3285    1.8135    1.7747 O   0  0  0  0  0  0  0  0  0  0  0  0
   -1.4982    2.2830    1.2167 C   0  0  0  0  0  0  0  0  0  0  0  0
   -2.6826    1.8914    1.8497 C   0  0  0  0  0  0  0  0  0  0  0  0
   -3.9132    2.3147    1.3458 C   0  0  0  0  0  0  0  0  0  0  0  0
   -3.9499    3.1417    0.2267 C   0  0  0  0  0  0  0  0  0  0  0  0
   -5.1332    3.5464   -0.2524 F   0  0  0  0  0  0  0  0  0  0  0  0
   -2.7818    3.5631   -0.3940 C   0  0  0  0  0  0  0  0  0  0  0  0
   -1.5578    3.1363    0.1092 C   0  0  0  0  0  0  0  0  0  0  0  0
   -0.4399    3.5722   -0.4889 F   0  0  0  0  0  0  0  0  0  0  0  0
    0.5051    0.2939    0.0427 C   0  0  0  0  0  0  0  0  0  0  0  0
   -0.7304   -0.5153   -0.0196 C   0  0  0  0  0  0  0  0  0  0  0  0
   -0.9886   -1.3437    1.0205 C   0  0  0  0  0  0  0  0  0  0  0  0
   -2.1329   -2.1489    1.0819 N   0  0  0  0  0  0  0  0  0  0  0  0
   -2.3247   -2.9917    2.2493 C   0  0  0  0  0  0  0  0  0  0  0  0
   -3.1105   -2.1521    0.0651 C   0  0  0  0  0  0  0  0  0  0  0  0
   -4.1323   -2.8314    0.0895 O   0  0  0  0  0  0  0  0  0  0  0  0
   -2.7951   -1.2654   -1.0278 C   0  0  0  0  0  0  0  0  0  0  0  0
   -3.5351   -1.0389   -2.1567 N   0  0  0  0  0  0  0  0  0  0  0  0
   -2.8868   -0.1132   -2.9406 C   0  0  0  0  0  0  0  0  0  0  0  0
   -1.7178    0.2552   -2.3029 C   0  0  0  0  0  0  0  0  0  0  0  0
   -1.6685   -0.4775   -1.1000 C   0  0  0  0  0  0  0  0  0  0  0  0
    1.5785   -0.0648   -0.7904 C   0  0  0  0  0  0  0  0  0  0  0  0
    4.2144   -3.6494   -0.0901 H   0  0  0  0  0  0  0  0  0  0  0  0
    5.1011   -3.1312   -1.5322 H   0  0  0  0  0  0  0  0  0  0  0  0
    3.4630   -2.5362   -1.2418 H   0  0  0  0  0  0  0  0  0  0  0  0
    5.9210   -1.9347    0.4998 H   0  0  0  0  0  0  0  0  0  0  0  0
    4.2952   -1.3222    0.8284 H   0  0  0  0  0  0  0  0  0  0  0  0
    3.6005   -0.2856   -2.4460 H   0  0  0  0  0  0  0  0  0  0  0  0
    3.8548    2.2784    0.1787 H   0  0  0  0  0  0  0  0  0  0  0  0
    1.9885    2.9202    1.6487 H   0  0  0  0  0  0  0  0  0  0  0  0
   -2.6470    1.2416    2.7199 H   0  0  0  0  0  0  0  0  0  0  0  0
   -4.8416    2.0043    1.8152 H   0  0  0  0  0  0  0  0  0  0  0  0
   -2.8228    4.2159   -1.2575 H   0  0  0  0  0  0  0  0  0  0  0  0
   -0.3148   -1.4165    1.8707 H   0  0  0  0  0  0  0  0  0  0  0  0
   -3.2231   -3.6086    2.1641 H   0  0  0  0  0  0  0  0  0  0  0  0
   -1.4574   -3.6499    2.3623 H   0  0  0  0  0  0  0  0  0  0  0  0
   -2.4189   -2.3544    3.1342 H   0  0  0  0  0  0  0  0  0  0  0  0
   -4.4213   -1.4848   -2.3623 H   0  0  0  0  0  0  0  0  0  0  0  0
   -3.3171    0.2067   -3.8804 H   0  0  0  0  0  0  0  0  0  0  0  0
   -0.9998    0.9780   -2.6690 H   0  0  0  0  0  0  0  0  0  0  0  0
    1.4618   -0.9009   -1.4763 H   0  0  0  0  0  0  0  0  0  0  0  0
  1  2  1  0
  2  3  1  0
  3  4  2  0
  3  5  2  0
  3  6  1  0
  6  7  1  0
  7  8  2  0
  8  9  1  0
  9 10  2  0
 10 11  1  0
 11 12  1  0
 12 13  2  0
 13 14  1  0
 14 15  2  0
 15 16  1  0
 15 17  1  0
 17 18  2  0
 18 19  1  0
 10 20  1  0
 20 21  1  0
 21 22  2  0
 22 23  1  0
 23 24  1  0
 23 25  1  0
 25 26  2  0
 25 27  1  0
 27 28  1  0
 28 29  1  0
 29 30  2  0
 30 31  1  0
 20 32  2  0
 32  7  1  0
 18 12  1  0
 31 21  1  0
 31 27  2  0
  1 33  1  0
  1 34  1  0
  1 35  1  0
  2 36  1  0
  2 37  1  0
  6 38  1  0
  8 39  1  0
  9 40  1  0
 13 41  1  0
 14 42  1  0
 17 43  1  0
 22 44  1  0
 24 45  1  0
 24 46  1  0
 24 47  1  0
 28 48  1  0
 29 49  1  0
 30 50  1  0
 32 51  1  0
M  END
$$$$
