
     RDKit          3D

 63 68  0  0  0  0  0  0  0  0999 V2000
   -1.3517    3.5072    1.5336 C   0  0  0  0  0  0  0  0  0  0  0  0
   -1.1904    2.4266    0.5024 C   0  0  0  0  0  0  0  0  0  0  0  0
    0.0848    1.9928    0.3744 N   0  0  0  0  0  0  0  0  0  0  0  0
    0.3282    0.9727   -0.4491 C   0  0  0  0  0  0  0  0  0  0  0  0
    1.6183    0.4715   -0.6241 N   0  0  0  0  0  0  0  0  0  0  0  0
    2.7784    0.8086   -0.0288 C   0  0  0  0  0  0  0  0  0  0  0  0
    3.0700    1.8200    0.9055 C   0  0  0  0  0  0  0  0  0  0  0  0
    4.3568    1.8154    1.2700 N   0  0  0  0  0  0  0  0  0  0  0  0
    4.8876    0.8004    0.5596 N   0  0  0  0  0  0  0  0  0  0  0  0
    6.2926    0.4622    0.7553 C   0  0  0  0  0  0  0  0  0  0  0  0
    7.0851    0.4509   -0.5603 C   0  0  0  0  0  0  0  0  0  0  0  0
    8.3306   -0.4127   -0.4128 C   0  0  0  0  0  0  0  0  0  0  0  0
    7.9996   -1.8117   -0.1504 N   0  0  0  0  0  0  0  0  0  0  0  0
    6.7989   -2.0160    0.6621 C   0  0  0  0  0  0  0  0  0  0  0  0
    6.4613   -0.8338    1.5665 C   0  0  0  0  0  0  0  0  0  0  0  0
    3.9747    0.1665   -0.2357 C   0  0  0  0  0  0  0  0  0  0  0  0
   -0.6315    0.3481   -1.1352 N   0  0  0  0  0  0  0  0  0  0  0  0
   -1.9140    0.7648   -0.9971 C   0  0  0  0  0  0  0  0  0  0  0  0
   -2.2564    1.8695   -0.2069 C   0  0  0  0  0  0  0  0  0  0  0  0
   -3.5731    2.4368   -0.2074 N   0  0  0  0  0  0  0  0  0  0  0  0
   -3.6964    3.8866   -0.3057 C   0  0  0  0  0  0  0  0  0  0  0  0
   -4.7783    1.7277   -0.2460 C   0  0  0  0  0  0  0  0  0  0  0  0
   -5.8703    2.3027   -0.2715 O   0  0  0  0  0  0  0  0  0  0  0  0
   -4.8142    0.2515   -0.1640 C   0  0  0  0  0  0  0  0  0  0  0  0
   -5.8401   -0.3140    0.6170 C   0  0  0  0  0  0  0  0  0  0  0  0
   -6.0166   -1.7003    0.6812 C   0  0  0  0  0  0  0  0  0  0  0  0
   -7.0211   -2.2763    1.4729 C   0  0  0  0  0  0  0  0  0  0  0  0
   -7.1746   -3.6609    1.5282 C   0  0  0  0  0  0  0  0  0  0  0  0
   -6.3321   -4.4839    0.7871 C   0  0  0  0  0  0  0  0  0  0  0  0
   -5.3336   -3.9233   -0.0082 C   0  0  0  0  0  0  0  0  0  0  0  0
   -5.1623   -2.5311   -0.0702 C   0  0  0  0  0  0  0  0  0  0  0  0
   -4.1542   -1.9474   -0.8599 C   0  0  0  0  0  0  0  0  0  0  0  0
   -3.9566   -0.5530   -0.9238 C   0  0  0  0  0  0  0  0  0  0  0  0
   -2.9187    0.0296   -1.6835 N   0  0  0  0  0  0  0  0  0  0  0  0
   -2.3822   -0.7598   -2.7969 C   0  0  0  0  0  0  0  0  0  0  0  0
   -1.3867    4.4940    1.0624 H   0  0  0  0  0  0  0  0  0  0  0  0
   -0.4995    3.5045    2.2243 H   0  0  0  0  0  0  0  0  0  0  0  0
   -2.2503    3.3458    2.1385 H   0  0  0  0  0  0  0  0  0  0  0  0
    1.5630   -0.3112   -1.2647 H   0  0  0  0  0  0  0  0  0  0  0  0
    2.4065    2.5548    1.3414 H   0  0  0  0  0  0  0  0  0  0  0  0
    6.6988    1.2755    1.3751 H   0  0  0  0  0  0  0  0  0  0  0  0
    7.3688    1.4756   -0.8306 H   0  0  0  0  0  0  0  0  0  0  0  0
    6.4856    0.0712   -1.3975 H   0  0  0  0  0  0  0  0  0  0  0  0
    8.9569   -0.0188    0.3990 H   0  0  0  0  0  0  0  0  0  0  0  0
    8.9299   -0.3585   -1.3287 H   0  0  0  0  0  0  0  0  0  0  0  0
    8.8073   -2.2860    0.2647 H   0  0  0  0  0  0  0  0  0  0  0  0
    5.9591   -2.2214   -0.0148 H   0  0  0  0  0  0  0  0  0  0  0  0
    6.9227   -2.9204    1.2700 H   0  0  0  0  0  0  0  0  0  0  0  0
    5.5651   -1.0623    2.1615 H   0  0  0  0  0  0  0  0  0  0  0  0
    7.2825   -0.7009    2.2895 H   0  0  0  0  0  0  0  0  0  0  0  0
    4.2443   -0.6725   -0.8598 H   0  0  0  0  0  0  0  0  0  0  0  0
   -4.5286    4.1568   -0.9651 H   0  0  0  0  0  0  0  0  0  0  0  0
   -3.9042    4.2956    0.6861 H   0  0  0  0  0  0  0  0  0  0  0  0
   -2.7980    4.3357   -0.7355 H   0  0  0  0  0  0  0  0  0  0  0  0
   -6.5089    0.3455    1.1701 H   0  0  0  0  0  0  0  0  0  0  0  0
   -7.6910   -1.6483    2.0573 H   0  0  0  0  0  0  0  0  0  0  0  0
   -7.9500   -4.0970    2.1503 H   0  0  0  0  0  0  0  0  0  0  0  0
   -6.4549   -5.5619    0.8281 H   0  0  0  0  0  0  0  0  0  0  0  0
   -4.6846   -4.5835   -0.5805 H   0  0  0  0  0  0  0  0  0  0  0  0
   -3.4942   -2.6142   -1.4089 H   0  0  0  0  0  0  0  0  0  0  0  0
   -3.1935   -1.1552   -3.4165 H   0  0  0  0  0  0  0  0  0  0  0  0
   -1.7619   -1.5976   -2.4631 H   0  0  0  0  0  0  0  0  0  0  0  0
   -1.7826   -0.1331   -3.4638 H   0  0  0  0  0  0  0  0  0  0  0  0
  1  2  1  0
  2  3  2  0
  3  4  1  0
  4  5  1  0
  5  6  1  0
  6  7  1  0
  7  8  2  0
  8  9  1  0
  9 10  1  0
 10 11  1  0
 11 12  1  0
 12 13  1  0
 13 14  1  0
 14 15  1  0
  9 16  1  0
  4 17  2  0
 17 18  1  0
 18 19  2  0
 19 20  1  0
 20 21  1  0
 20 22  1  0
 22 23  2  0
 22 24  1  0
 24 25  2  0
 25 26  1  0
 26 27  2  0
 27 28  1  0
 28 29  2  0
 29 30  1  0
 30 31  2  0
 31 32  1  0
 32 33  2  0
 33 34  1  0
 34 35  1  0
 19  2  1  0
 33 24  1  0
 16  6  2  0
 34 18  1  0
 15 10  1  0
 31 26  1  0
  1 36  1  0
  1 37  1  0
  1 38  1  0
  5 39  1  0
  7 40  1  0
 10 41  1  0
 11 42  1  0
 11 43  1  0
 12 44  1  0
 12 45  1  0
 13 46  1  0
 14 47  1  0
 14 48  1  0
 15 49  1  0
 15 50  1  0
 16 51  1  0
 21 52  1  0
 21 53  1  0
 21 54  1  0
 25 55  1  0
 27 56  1  0
 28 57  1  0
 29 58  1  0
 30 59  1  0
 32 60  1  0
 35 61  1  0
 35 62  1  0
 35 63  1  0
M  END
$$$$
