
     RDKit          3D

 54 56  0  0  0  0  0  0  0  0999 V2000
   -0.2565   -1.7248    1.4562 C   0  0  0  0  0  0  0  0  0  0  0  0
   -0.7386   -0.2757    1.5730 C   0  0  2  0  0  0  0  0  0  0  0  0
   -2.2840   -0.1803    1.4845 C   0  0  0  0  0  0  0  0  0  0  0  0
   -2.8313   -0.5901    0.1804 N   0  0  0  0  0  0  0  0  0  0  0  0
   -4.2368   -0.1825    0.0510 C   0  0  0  0  0  0  0  0  0  0  0  0
   -4.9685   -0.9181   -1.0534 C   0  0  0  0  0  0  0  0  0  0  0  0
   -5.6417   -0.2077   -2.0611 C   0  0  0  0  0  0  0  0  0  0  0  0
   -6.3363   -0.8892   -3.0624 C   0  0  0  0  0  0  0  0  0  0  0  0
   -6.3652   -2.2781   -3.0542 C   0  0  0  0  0  0  0  0  0  0  0  0
   -7.0376   -2.9292   -4.0130 F   0  0  0  0  0  0  0  0  0  0  0  0
   -5.7099   -3.0020   -2.0647 C   0  0  0  0  0  0  0  0  0  0  0  0
   -5.0122   -2.3233   -1.0645 C   0  0  0  0  0  0  0  0  0  0  0  0
   -1.9928   -0.1335   -0.9482 C   0  0  0  0  0  0  0  0  0  0  0  0
   -0.9348    0.9327   -0.6061 C   0  0  0  0  0  0  0  0  0  0  0  0
   -0.1051    0.5898    0.5545 N   0  0  0  0  0  0  0  0  0  0  0  0
    1.1028    1.2636    0.7071 C   0  0  0  0  0  0  0  0  0  0  0  0
    1.4801    2.0975   -0.1238 O   0  0  0  0  0  0  0  0  0  0  0  0
    1.9652    0.9267    1.9379 C   0  0  0  0  0  0  0  0  0  0  0  0
    3.1011    1.7909    2.0420 O   0  0  0  0  0  0  0  0  0  0  0  0
    4.2754    1.1161    1.8076 C   0  0  0  0  0  0  0  0  0  0  0  0
    4.8669    0.4084    2.8554 C   0  0  0  0  0  0  0  0  0  0  0  0
    6.0735   -0.2518    2.6382 C   0  0  0  0  0  0  0  0  0  0  0  0
    6.6799   -0.1861    1.3839 C   0  0  0  0  0  0  0  0  0  0  0  0
    8.1650   -1.0149    1.1237 Cl  0  0  0  0  0  0  0  0  0  0  0  0
    6.1012    0.5425    0.3410 C   0  0  0  0  0  0  0  0  0  0  0  0
    4.8939    1.2094    0.5486 C   0  0  0  0  0  0  0  0  0  0  0  0
    4.2378    1.9658   -0.4399 N   0  0  0  0  0  0  0  0  0  0  0  0
    4.6475    2.2547   -1.7090 C   0  0  0  0  0  0  0  0  0  0  0  0
    3.7054    2.9689   -2.3902 N   0  0  0  0  0  0  0  0  0  0  0  0
    5.7059    1.9621   -2.2453 O   0  0  0  0  0  0  0  0  0  0  0  0
    0.8211   -1.7996    1.6139 H   0  0  0  0  0  0  0  0  0  0  0  0
   -0.4625   -2.1510    0.4715 H   0  0  0  0  0  0  0  0  0  0  0  0
   -0.7444   -2.3551    2.2062 H   0  0  0  0  0  0  0  0  0  0  0  0
   -0.4521    0.0918    2.5623 H   0  0  0  0  0  0  0  0  0  0  0  0
   -2.7282   -0.8026    2.2710 H   0  0  0  0  0  0  0  0  0  0  0  0
   -2.5689    0.8591    1.6993 H   0  0  0  0  0  0  0  0  0  0  0  0
   -4.3087    0.9037   -0.0924 H   0  0  0  0  0  0  0  0  0  0  0  0
   -4.7794   -0.4074    0.9795 H   0  0  0  0  0  0  0  0  0  0  0  0
   -5.6284    0.8795   -2.0733 H   0  0  0  0  0  0  0  0  0  0  0  0
   -6.8558   -0.3476   -3.8461 H   0  0  0  0  0  0  0  0  0  0  0  0
   -5.7476   -4.0857   -2.0757 H   0  0  0  0  0  0  0  0  0  0  0  0
   -4.4955   -2.8891   -0.2915 H   0  0  0  0  0  0  0  0  0  0  0  0
   -1.4677   -1.0188   -1.3251 H   0  0  0  0  0  0  0  0  0  0  0  0
   -2.5913    0.2305   -1.7907 H   0  0  0  0  0  0  0  0  0  0  0  0
   -0.2905    1.0996   -1.4763 H   0  0  0  0  0  0  0  0  0  0  0  0
   -1.4268    1.8860   -0.3779 H   0  0  0  0  0  0  0  0  0  0  0  0
    2.2475   -0.1307    1.8929 H   0  0  0  0  0  0  0  0  0  0  0  0
    1.3754    1.0995    2.8416 H   0  0  0  0  0  0  0  0  0  0  0  0
    4.3981    0.3789    3.8327 H   0  0  0  0  0  0  0  0  0  0  0  0
    6.5401   -0.8097    3.4465 H   0  0  0  0  0  0  0  0  0  0  0  0
    6.6055    0.5768   -0.6192 H   0  0  0  0  0  0  0  0  0  0  0  0
    3.3557    2.3891   -0.1612 H   0  0  0  0  0  0  0  0  0  0  0  0
    3.9151    3.0833   -3.3715 H   0  0  0  0  0  0  0  0  0  0  0  0
    2.7391    2.7734   -2.1654 H   0  0  0  0  0  0  0  0  0  0  0  0
  1  2  1  0
  2  3  1  0
  3  4  1  0
  4  5  1  0
  5  6  1  0
  6  7  2  0
  7  8  1  0
  8  9  2  0
  9 10  1  0
  9 11  1  0
 11 12  2  0
  4 13  1  0
 13 14  1  0
 14 15  1  0
 15 16  1  0
 16 17  2  0
 16 18  1  0
 18 19  1  0
 19 20  1  0
 20 21  2  0
 21 22  1  0
 22 23  2  0
 23 24  1  0
 23 25  1  0
 25 26  2  0
 26 27  1  0
 27 28  1  0
 28 29  1  0
 28 30  2  0
 15  2  1  0
 26 20  1  0
 12  6  1  0
  1 31  1  0
  1 32  1  0
  1 33  1  0
  2 34  1  1
  3 35  1  0
  3 36  1  0
  5 37  1  0
  5 38  1  0
  7 39  1  0
  8 40  1  0
 11 41  1  0
 12 42  1  0
 13 43  1  0
 13 44  1  0
 14 45  1  0
 14 46  1  0
 18 47  1  0
 18 48  1  0
 21 49  1  0
 22 50  1  0
 25 51  1  0
 27 52  1  0
 29 53  1  0
 29 54  1  0
M  END
$$$$
