
     RDKit          3D

 56 59  0  0  0  0  0  0  0  0999 V2000
   -4.4293   -1.2453    1.8755 C   0  0  0  0  0  0  0  0  0  0  0  0
   -4.4581   -0.3717    0.6464 C   0  0  0  0  0  0  0  0  0  0  0  0
   -5.5110   -0.2181    0.0229 O   0  0  0  0  0  0  0  0  0  0  0  0
   -3.1325    0.2826    0.1945 C   0  0  0  0  0  0  0  0  0  0  0  0
   -2.5507    0.9858    1.2912 O   0  0  0  0  0  0  0  0  0  0  0  0
   -3.3511    1.2931   -0.9406 C   0  0  0  0  0  0  0  0  0  0  0  0
   -1.9859    1.4538   -1.6089 C   0  0  0  0  0  0  0  0  0  0  0  0
   -1.1153    0.2497   -1.1731 C   0  0  0  0  0  0  0  0  0  0  0  0
    0.1644    0.7231   -0.4125 C   0  0  0  0  0  0  0  0  0  0  0  0
    1.1418    1.3170   -1.4449 C   0  0  0  0  0  0  0  0  0  0  0  0
    2.4139    1.8912   -0.8175 C   0  0  0  0  0  0  0  0  0  0  0  0
    3.4881    2.0920   -1.8918 C   0  0  0  0  0  0  0  0  0  0  0  0
    2.9250    1.0727    0.3501 C   0  0  0  0  0  0  0  0  0  0  0  0
    3.7412    1.6695    1.2414 C   0  0  0  0  0  0  0  0  0  0  0  0
    4.2474    0.9819    2.4437 C   0  0  0  0  0  0  0  0  0  0  0  0
    5.0186    1.5348    3.2175 O   0  0  0  0  0  0  0  0  0  0  0  0
    3.7876   -0.3963    2.6668 C   0  0  0  0  0  0  0  0  0  0  0  0
    2.9660   -0.9939    1.7944 C   0  0  0  0  0  0  0  0  0  0  0  0
    2.4121   -0.3720    0.5046 C   0  0  0  0  0  0  0  0  0  0  0  0
    2.9883   -1.2441   -0.6351 C   0  0  0  0  0  0  0  0  0  0  0  0
    0.8258   -0.3532    0.5176 C   0  0  0  0  0  0  0  0  0  0  0  0
    0.4763    0.0602    1.7994 F   0  0  0  0  0  0  0  0  0  0  0  0
    0.1292   -1.7286    0.3147 C   0  0  0  0  0  0  0  0  0  0  0  0
    0.6558   -2.7567    1.1528 O   0  0  0  0  0  0  0  0  0  0  0  0
   -1.3664   -1.5878    0.6137 C   0  0  0  0  0  0  0  0  0  0  0  0
   -2.0901   -0.7011   -0.4156 C   0  0  0  0  0  0  0  0  0  0  0  0
   -2.7486   -1.6434   -1.4629 C   0  0  0  0  0  0  0  0  0  0  0  0
   -3.8617   -0.7637    2.6747 H   0  0  0  0  0  0  0  0  0  0  0  0
   -3.9950   -2.2163    1.6323 H   0  0  0  0  0  0  0  0  0  0  0  0
   -5.4517   -1.3968    2.2344 H   0  0  0  0  0  0  0  0  0  0  0  0
   -3.1312    1.7344    1.5179 H   0  0  0  0  0  0  0  0  0  0  0  0
   -4.0768    0.9359   -1.6801 H   0  0  0  0  0  0  0  0  0  0  0  0
   -3.7140    2.2607   -0.5757 H   0  0  0  0  0  0  0  0  0  0  0  0
   -1.5450    2.4130   -1.3163 H   0  0  0  0  0  0  0  0  0  0  0  0
   -2.0996    1.4761   -2.6988 H   0  0  0  0  0  0  0  0  0  0  0  0
   -0.7686   -0.2621   -2.0824 H   0  0  0  0  0  0  0  0  0  0  0  0
   -0.1327    1.5504    0.2482 H   0  0  0  0  0  0  0  0  0  0  0  0
    0.6513    2.1249   -2.0035 H   0  0  0  0  0  0  0  0  0  0  0  0
    1.3846    0.5647   -2.2032 H   0  0  0  0  0  0  0  0  0  0  0  0
    2.1478    2.8862   -0.4309 H   0  0  0  0  0  0  0  0  0  0  0  0
    3.8145    1.1381   -2.3197 H   0  0  0  0  0  0  0  0  0  0  0  0
    4.3714    2.5949   -1.4833 H   0  0  0  0  0  0  0  0  0  0  0  0
    3.1046    2.7130   -2.7088 H   0  0  0  0  0  0  0  0  0  0  0  0
    4.0718    2.6969    1.1340 H   0  0  0  0  0  0  0  0  0  0  0  0
    4.1439   -0.8895    3.5624 H   0  0  0  0  0  0  0  0  0  0  0  0
    2.6685   -2.0138    2.0241 H   0  0  0  0  0  0  0  0  0  0  0  0
    4.0749   -1.1148   -0.7229 H   0  0  0  0  0  0  0  0  0  0  0  0
    2.8119   -2.3121   -0.4594 H   0  0  0  0  0  0  0  0  0  0  0  0
    2.5581   -1.0189   -1.6121 H   0  0  0  0  0  0  0  0  0  0  0  0
    0.2778   -2.0719   -0.7157 H   0  0  0  0  0  0  0  0  0  0  0  0
    0.0996   -3.5484    1.0544 H   0  0  0  0  0  0  0  0  0  0  0  0
   -1.4875   -1.2073    1.6349 H   0  0  0  0  0  0  0  0  0  0  0  0
   -1.8254   -2.5846    0.6520 H   0  0  0  0  0  0  0  0  0  0  0  0
   -3.4990   -2.2947   -1.0022 H   0  0  0  0  0  0  0  0  0  0  0  0
   -3.2384   -1.0954   -2.2737 H   0  0  0  0  0  0  0  0  0  0  0  0
   -1.9969   -2.2942   -1.9252 H   0  0  0  0  0  0  0  0  0  0  0  0
  1  2  1  0
  2  3  2  0
  2  4  1  0
  4  5  1  0
  4  6  1  0
  6  7  1  0
  7  8  1  0
  8  9  1  0
  9 10  1  0
 10 11  1  0
 11 12  1  0
 11 13  1  0
 13 14  2  0
 14 15  1  0
 15 16  2  0
 15 17  1  0
 17 18  2  0
 18 19  1  0
 19 20  1  0
 19 21  1  0
 21 22  1  0
 21 23  1  0
 23 24  1  0
 23 25  1  0
 25 26  1  0
 26 27  1  0
 26  4  1  0
 26  8  1  0
 21  9  1  0
 19 13  1  0
  1 28  1  0
  1 29  1  0
  1 30  1  0
  5 31  1  0
  6 32  1  0
  6 33  1  0
  7 34  1  0
  7 35  1  0
  8 36  1  0
  9 37  1  0
 10 38  1  0
 10 39  1  0
 11 40  1  0
 12 41  1  0
 12 42  1  0
 12 43  1  0
 14 44  1  0
 17 45  1  0
 18 46  1  0
 20 47  1  0
 20 48  1  0
 20 49  1  0
 23 50  1  0
 24 51  1  0
 25 52  1  0
 25 53  1  0
 27 54  1  0
 27 55  1  0
 27 56  1  0
M  END
$$$$
