
     RDKit          3D

 18 18  0  0  0  0  0  0  0  0999 V2000
    3.6015   -0.5936   -1.0983 O   0  0  0  0  0  0  0  0  0  0  0  0
    2.8030   -1.0344   -0.2615 N   0  0  0  0  0  4  0  0  0  0  0  0
    3.0563   -1.9342    0.5506 O   0  0  0  0  0  1  0  0  0  0  0  0
    1.4555   -0.4504   -0.2257 C   0  0  0  0  0  0  0  0  0  0  0  0
    1.1220    0.5689   -1.1235 C   0  0  0  0  0  0  0  0  0  0  0  0
   -0.1569    1.1094   -1.0752 C   0  0  0  0  0  0  0  0  0  0  0  0
   -0.4742    2.1048   -1.9560 O   0  0  0  0  0  0  0  0  0  0  0  0
   -1.1123    0.6636   -0.1586 C   0  0  0  0  0  0  0  0  0  0  0  0
   -2.3292    1.2928   -0.2317 O   0  0  0  0  0  0  0  0  0  0  0  0
   -0.7698   -0.3571    0.7364 C   0  0  0  0  0  0  0  0  0  0  0  0
   -1.7409   -0.8538    1.7132 N   0  0  0  0  0  4  0  0  0  0  0  0
   -1.3848   -1.7569    2.4798 O   0  0  0  0  0  0  0  0  0  0  0  0
   -2.8675   -0.3328    1.7093 O   0  0  0  0  0  1  0  0  0  0  0  0
    0.5179   -0.9217    0.7089 C   0  0  0  0  0  0  0  0  0  0  0  0
    1.8330    0.9479   -1.8546 H   0  0  0  0  0  0  0  0  0  0  0  0
   -1.4040    2.3436   -1.7611 H   0  0  0  0  0  0  0  0  0  0  0  0
   -2.9382    0.9204    0.4440 H   0  0  0  0  0  0  0  0  0  0  0  0
    0.7887   -1.7165    1.4039 H   0  0  0  0  0  0  0  0  0  0  0  0
  1  2  2  0
  2  3  1  0
  2  4  1  0
  4  5  2  0
  5  6  1  0
  6  7  1  0
  6  8  2  0
  8  9  1  0
  8 10  1  0
 10 11  1  0
 11 12  2  0
 11 13  1  0
 10 14  2  0
 14  4  1  0
  5 15  1  0
  7 16  1  0
  9 17  1  0
 14 18  1  0
M  CHG  4   2   1   3  -1  11   1  13  -1
M  END
$$$$
