
     RDKit          3D

 52 54  0  0  0  0  0  0  0  0999 V2000
   -5.4102    0.7206   -1.2526 C   0  0  0  0  0  0  0  0  0  0  0  0
   -4.2814    1.4403   -0.5111 C   0  0  0  0  0  0  0  0  0  0  0  0
   -4.8690    2.2888    0.6197 C   0  0  0  0  0  0  0  0  0  0  0  0
   -3.2657    0.4170    0.0242 C   0  0  0  0  0  0  0  0  0  0  0  0
   -1.9340    1.0330    0.4332 C   0  0  0  0  0  0  0  0  0  0  0  0
   -1.6741    2.2231    0.2655 O   0  0  0  0  0  0  0  0  0  0  0  0
   -1.0176    0.1653    0.9842 N   0  0  0  0  0  0  0  0  0  0  0  0
   -1.1493   -1.2774    1.1484 C   0  0  0  0  0  0  0  0  0  0  0  0
    0.1232   -1.6550    1.9115 C   0  0  1  0  0  0  0  0  0  0  0  0
    0.3772   -3.1472    2.0553 C   0  0  0  0  0  0  0  0  0  0  0  0
    1.0611   -3.8401    0.8961 C   0  0  0  0  0  0  0  0  0  0  0  0
    2.4424   -3.2609    0.6560 C   0  0  0  0  0  0  0  0  0  0  0  0
    2.3718   -2.1795   -0.3854 C   0  0  0  0  0  0  0  0  0  0  0  0
    2.9414   -2.3509   -1.4645 O   0  0  0  0  0  0  0  0  0  0  0  0
    1.6366   -1.0358   -0.0861 N   0  0  0  0  0  0  0  0  0  0  0  0
    1.6465    0.0004   -1.1370 C   0  0  0  0  0  0  0  0  0  0  0  0
    2.6843    1.0875   -0.9389 C   0  0  0  0  0  0  0  0  0  0  0  0
    2.3228    2.4377   -1.0983 C   0  0  0  0  0  0  0  0  0  0  0  0
    3.2652    3.4584   -0.9419 C   0  0  0  0  0  0  0  0  0  0  0  0
    4.5868    3.1423   -0.6396 C   0  0  0  0  0  0  0  0  0  0  0  0
    4.9552    1.8099   -0.5049 C   0  0  0  0  0  0  0  0  0  0  0  0
    6.2291    1.5049   -0.2239 F   0  0  0  0  0  0  0  0  0  0  0  0
    4.0245    0.7863   -0.6583 C   0  0  0  0  0  0  0  0  0  0  0  0
    1.1750   -0.6884    1.2959 C   0  0  1  0  0  0  0  0  0  0  0  0
    0.3176    0.6041    1.3819 C   0  0  0  0  0  0  0  0  0  0  0  0
   -6.1360    1.4390   -1.6484 H   0  0  0  0  0  0  0  0  0  0  0  0
   -5.9432    0.0291   -0.5911 H   0  0  0  0  0  0  0  0  0  0  0  0
   -5.0164    0.1461   -2.0977 H   0  0  0  0  0  0  0  0  0  0  0  0
   -3.7856    2.1112   -1.2238 H   0  0  0  0  0  0  0  0  0  0  0  0
   -5.3928    1.6656    1.3528 H   0  0  0  0  0  0  0  0  0  0  0  0
   -4.0906    2.8475    1.1481 H   0  0  0  0  0  0  0  0  0  0  0  0
   -5.5859    3.0164    0.2240 H   0  0  0  0  0  0  0  0  0  0  0  0
   -3.6942   -0.1134    0.8821 H   0  0  0  0  0  0  0  0  0  0  0  0
   -3.0471   -0.3192   -0.7592 H   0  0  0  0  0  0  0  0  0  0  0  0
   -2.0581   -1.5150    1.7085 H   0  0  0  0  0  0  0  0  0  0  0  0
   -1.2004   -1.7400    0.1572 H   0  0  0  0  0  0  0  0  0  0  0  0
   -0.0366   -1.3135    2.9486 H   0  0  0  0  0  0  0  0  0  0  0  0
   -0.5728   -3.6559    2.2630 H   0  0  0  0  0  0  0  0  0  0  0  0
    0.9943   -3.3018    2.9512 H   0  0  0  0  0  0  0  0  0  0  0  0
    0.4357   -3.7902   -0.0031 H   0  0  0  0  0  0  0  0  0  0  0  0
    1.1643   -4.9020    1.1514 H   0  0  0  0  0  0  0  0  0  0  0  0
    3.0952   -4.0494    0.2609 H   0  0  0  0  0  0  0  0  0  0  0  0
    2.9234   -2.8840    1.5644 H   0  0  0  0  0  0  0  0  0  0  0  0
    1.8273   -0.4510   -2.1203 H   0  0  0  0  0  0  0  0  0  0  0  0
    0.6379    0.4203   -1.2072 H   0  0  0  0  0  0  0  0  0  0  0  0
    1.2938    2.7065   -1.3378 H   0  0  0  0  0  0  0  0  0  0  0  0
    2.9652    4.4967   -1.0593 H   0  0  0  0  0  0  0  0  0  0  0  0
    5.3315    3.9218   -0.5171 H   0  0  0  0  0  0  0  0  0  0  0  0
    4.3656   -0.2404   -0.5688 H   0  0  0  0  0  0  0  0  0  0  0  0
    2.0674   -0.6072    1.9259 H   0  0  0  0  0  0  0  0  0  0  0  0
    0.2415    0.9411    2.4239 H   0  0  0  0  0  0  0  0  0  0  0  0
    0.6572    1.4574    0.8002 H   0  0  0  0  0  0  0  0  0  0  0  0
  1  2  1  0
  2  3  1  0
  2  4  1  0
  4  5  1  0
  5  6  2  0
  5  7  1  0
  7  8  1  0
  8  9  1  0
  9 10  1  0
 10 11  1  0
 11 12  1  0
 12 13  1  0
 13 14  2  0
 13 15  1  0
 15 16  1  0
 16 17  1  0
 17 18  2  0
 18 19  1  0
 19 20  2  0
 20 21  1  0
 21 22  1  0
 21 23  2  0
 15 24  1  0
 24 25  1  0
 25  7  1  0
 24  9  1  0
 23 17  1  0
  1 26  1  0
  1 27  1  0
  1 28  1  0
  2 29  1  0
  3 30  1  0
  3 31  1  0
  3 32  1  0
  4 33  1  0
  4 34  1  0
  8 35  1  0
  8 36  1  0
  9 37  1  1
 10 38  1  0
 10 39  1  0
 11 40  1  0
 11 41  1  0
 12 42  1  0
 12 43  1  0
 16 44  1  0
 16 45  1  0
 18 46  1  0
 19 47  1  0
 20 48  1  0
 23 49  1  0
 24 50  1  1
 25 51  1  0
 25 52  1  0
M  END
$$$$
