
     RDKit          3D

 39 41  0  0  0  0  0  0  0  0999 V2000
    0.3479    0.6582    1.5187 O   0  0  0  0  0  0  0  0  0  0  0  0
    0.7484    1.0527    0.4263 C   0  0  0  0  0  0  0  0  0  0  0  0
    1.9628    1.6948    0.2839 N   0  0  0  0  0  0  0  0  0  0  0  0
    2.8894    1.8231    1.3851 C   0  0  0  0  0  0  0  0  0  0  0  0
    4.0990    0.9551    1.1472 C   0  0  0  0  0  0  0  0  0  0  0  0
    5.2870    1.5028    0.6363 C   0  0  0  0  0  0  0  0  0  0  0  0
    6.3915    0.6847    0.3924 C   0  0  0  0  0  0  0  0  0  0  0  0
    6.3071   -0.6783    0.6514 C   0  0  0  0  0  0  0  0  0  0  0  0
    7.3681   -1.4609    0.4135 F   0  0  0  0  0  0  0  0  0  0  0  0
    5.1389   -1.2412    1.1497 C   0  0  0  0  0  0  0  0  0  0  0  0
    4.0335   -0.4260    1.3964 C   0  0  0  0  0  0  0  0  0  0  0  0
   -0.0394    0.8655   -0.8071 C   0  0  0  0  0  0  0  0  0  0  0  0
    0.3387    1.2014   -2.0961 C   0  0  0  0  0  0  0  0  0  0  0  0
   -0.8901    0.7896   -3.2192 S   0  0  0  0  0  0  0  0  0  0  0  0
   -1.8601    0.1882   -1.9340 C   0  0  0  0  0  0  0  0  0  0  0  0
   -3.1824   -0.3872   -2.2206 C   0  0  0  0  0  0  0  0  0  0  0  0
   -3.5942   -0.5570   -3.3735 O   0  0  0  0  0  0  0  0  0  0  0  0
   -3.9997   -0.7597   -1.1544 N   0  0  0  0  0  0  0  0  0  0  0  0
   -5.2784   -1.4069   -1.3839 C   0  0  0  0  0  0  0  0  0  0  0  0
   -5.6841   -1.9381   -0.0171 C   0  0  0  0  0  0  0  0  0  0  0  0
   -5.0839   -0.9097    0.9317 C   0  0  0  0  0  0  0  0  0  0  0  0
   -3.7545   -0.5676    0.2697 C   0  0  0  0  0  0  0  0  0  0  0  0
   -1.3075    0.2813   -0.7407 N   0  0  0  0  0  0  0  0  0  0  0  0
    2.2984    1.9586   -0.6279 H   0  0  0  0  0  0  0  0  0  0  0  0
    3.1803    2.8779    1.4427 H   0  0  0  0  0  0  0  0  0  0  0  0
    2.4219    1.5640    2.3413 H   0  0  0  0  0  0  0  0  0  0  0  0
    5.3609    2.5682    0.4283 H   0  0  0  0  0  0  0  0  0  0  0  0
    7.3152    1.0994    0.0018 H   0  0  0  0  0  0  0  0  0  0  0  0
    5.0943   -2.3087    1.3420 H   0  0  0  0  0  0  0  0  0  0  0  0
    3.1160   -0.8700    1.7826 H   0  0  0  0  0  0  0  0  0  0  0  0
    1.2508    1.6545   -2.4521 H   0  0  0  0  0  0  0  0  0  0  0  0
   -5.1938   -2.1963   -2.1368 H   0  0  0  0  0  0  0  0  0  0  0  0
   -5.9808   -0.6459   -1.7420 H   0  0  0  0  0  0  0  0  0  0  0  0
   -6.7668   -2.0419    0.0918 H   0  0  0  0  0  0  0  0  0  0  0  0
   -5.2232   -2.9180    0.1564 H   0  0  0  0  0  0  0  0  0  0  0  0
   -5.7249   -0.0195    0.9624 H   0  0  0  0  0  0  0  0  0  0  0  0
   -4.9649   -1.2820    1.9529 H   0  0  0  0  0  0  0  0  0  0  0  0
   -3.4518    0.4605    0.4845 H   0  0  0  0  0  0  0  0  0  0  0  0
   -2.9693   -1.2656    0.5786 H   0  0  0  0  0  0  0  0  0  0  0  0
  1  2  2  0
  2  3  1  0
  3  4  1  0
  4  5  1  0
  5  6  2  0
  6  7  1  0
  7  8  2  0
  8  9  1  0
  8 10  1  0
 10 11  2  0
  2 12  1  0
 12 13  2  0
 13 14  1  0
 14 15  1  0
 15 16  1  0
 16 17  2  0
 16 18  1  0
 18 19  1  0
 19 20  1  0
 20 21  1  0
 21 22  1  0
 15 23  2  0
 11  5  1  0
 23 12  1  0
 22 18  1  0
  3 24  1  0
  4 25  1  0
  4 26  1  0
  6 27  1  0
  7 28  1  0
 10 29  1  0
 11 30  1  0
 13 31  1  0
 19 32  1  0
 19 33  1  0
 20 34  1  0
 20 35  1  0
 21 36  1  0
 21 37  1  0
 22 38  1  0
 22 39  1  0
M  END
$$$$
