
     RDKit          3D

 42 45  0  0  0  0  0  0  0  0999 V2000
    8.0054    2.3787    0.1453 N   0  0  0  0  0  0  0  0  0  0  0  0
    7.0028    1.8262    0.3362 C   0  0  0  0  0  0  0  0  0  0  0  0
    5.7686    1.1371    0.5749 C   0  0  0  0  0  0  0  0  0  0  0  0
    4.6481    1.4049   -0.2147 C   0  0  0  0  0  0  0  0  0  0  0  0
    3.4427    0.7308    0.0175 C   0  0  0  0  0  0  0  0  0  0  0  0
    3.3432   -0.2127    1.0426 C   0  0  0  0  0  0  0  0  0  0  0  0
    2.1696   -0.9369    1.3284 N   0  0  0  0  0  0  0  0  0  0  0  0
    0.9074   -0.7218    0.8175 C   0  0  0  0  0  0  0  0  0  0  0  0
    0.5598    0.1995    0.0920 O   0  0  0  0  0  0  0  0  0  0  0  0
    0.0380   -1.7043    1.2527 N   0  0  0  0  0  0  0  0  0  0  0  0
   -1.3418   -1.7003    0.8172 C   0  0  0  0  0  0  0  0  0  0  0  0
   -2.1218   -0.8260    1.7188 C   0  0  0  0  0  0  0  0  0  0  0  0
   -2.2160   -0.8174    3.1073 C   0  0  0  0  0  0  0  0  0  0  0  0
   -3.0559    0.1684    3.5695 N   0  0  0  0  0  0  0  0  0  0  0  0
   -3.4517    0.7509    2.4738 C   0  0  0  0  0  0  0  0  0  0  0  0
   -4.5286    2.0711    2.1442 S   0  0  0  0  0  0  0  0  0  0  0  0
   -4.2662    1.8037    0.4192 C   0  0  0  0  0  0  0  0  0  0  0  0
   -3.4190    0.7865    0.1556 C   0  0  0  0  0  0  0  0  0  0  0  0
   -3.0968    0.3887   -1.2099 C   0  0  0  0  0  0  0  0  0  0  0  0
   -3.9381   -0.4910   -1.9040 C   0  0  0  0  0  0  0  0  0  0  0  0
   -3.6366   -0.8657   -3.2158 C   0  0  0  0  0  0  0  0  0  0  0  0
   -2.4956   -0.3579   -3.8351 C   0  0  0  0  0  0  0  0  0  0  0  0
   -2.0837   -0.8710   -5.6068 Br  0  0  0  0  0  0  0  0  0  0  0  0
   -1.6563    0.5237   -3.1573 C   0  0  0  0  0  0  0  0  0  0  0  0
   -1.9604    0.9008   -1.8471 C   0  0  0  0  0  0  0  0  0  0  0  0
   -2.9520    0.1993    1.3254 N   0  0  0  0  0  0  0  0  0  0  0  0
    4.4724   -0.4826    1.8265 C   0  0  0  0  0  0  0  0  0  0  0  0
    5.6782    0.1892    1.5970 C   0  0  0  0  0  0  0  0  0  0  0  0
    4.6986    2.1380   -1.0179 H   0  0  0  0  0  0  0  0  0  0  0  0
    2.5986    0.9629   -0.6254 H   0  0  0  0  0  0  0  0  0  0  0  0
    2.2065   -1.5665    2.1163 H   0  0  0  0  0  0  0  0  0  0  0  0
    0.4573   -2.6136    1.3706 H   0  0  0  0  0  0  0  0  0  0  0  0
   -1.7106   -2.7287    0.8979 H   0  0  0  0  0  0  0  0  0  0  0  0
   -1.3836   -1.4151   -0.2337 H   0  0  0  0  0  0  0  0  0  0  0  0
   -1.7083   -1.4783    3.7990 H   0  0  0  0  0  0  0  0  0  0  0  0
   -4.7651    2.4168   -0.3207 H   0  0  0  0  0  0  0  0  0  0  0  0
   -4.8329   -0.8903   -1.4306 H   0  0  0  0  0  0  0  0  0  0  0  0
   -4.2958   -1.5497   -3.7441 H   0  0  0  0  0  0  0  0  0  0  0  0
   -0.7622    0.9197   -3.6319 H   0  0  0  0  0  0  0  0  0  0  0  0
   -1.2904    1.5805   -1.3217 H   0  0  0  0  0  0  0  0  0  0  0  0
    4.4305   -1.2145    2.6295 H   0  0  0  0  0  0  0  0  0  0  0  0
    6.5416   -0.0331    2.2215 H   0  0  0  0  0  0  0  0  0  0  0  0
  1  2  3  0
  2  3  1  0
  3  4  2  0
  4  5  1  0
  5  6  2  0
  6  7  1  0
  7  8  1  0
  8  9  2  0
  8 10  1  0
 10 11  1  0
 11 12  1  0
 12 13  2  0
 13 14  1  0
 14 15  2  0
 15 16  1  0
 16 17  1  0
 17 18  2  0
 18 19  1  0
 19 20  2  0
 20 21  1  0
 21 22  2  0
 22 23  1  0
 22 24  1  0
 24 25  2  0
 18 26  1  0
  6 27  1  0
 27 28  2  0
 28  3  1  0
 26 12  1  0
 26 15  1  0
 25 19  1  0
  4 29  1  0
  5 30  1  0
  7 31  1  0
 10 32  1  0
 11 33  1  0
 11 34  1  0
 13 35  1  0
 17 36  1  0
 20 37  1  0
 21 38  1  0
 24 39  1  0
 25 40  1  0
 27 41  1  0
 28 42  1  0
M  END
$$$$
