
     RDKit          3D

 48 52  0  0  0  0  0  0  0  0999 V2000
    7.9409    1.0284   -0.9584 C   0  0  0  0  0  0  0  0  0  0  0  0
    6.6518    0.5943   -1.3722 O   0  0  0  0  0  0  0  0  0  0  0  0
    5.7139    0.4111   -0.3907 C   0  0  0  0  0  0  0  0  0  0  0  0
    5.9098    0.6169    0.9751 C   0  0  0  0  0  0  0  0  0  0  0  0
    4.8783    0.3960    1.8986 C   0  0  0  0  0  0  0  0  0  0  0  0
    3.6435   -0.0329    1.4026 C   0  0  0  0  0  0  0  0  0  0  0  0
    2.4765   -0.3384    2.0602 N   0  0  0  0  0  0  0  0  0  0  0  0
    1.4821   -0.6879    1.1716 C   0  0  0  0  0  0  0  0  0  0  0  0
    0.1604   -1.0645    1.6286 C   0  0  0  0  0  0  0  0  0  0  0  0
    0.0051   -1.5225    2.7608 O   0  0  0  0  0  0  0  0  0  0  0  0
   -0.9205   -0.9261    0.7478 N   0  0  0  0  0  0  0  0  0  0  0  0
   -2.1848   -1.5203    1.1903 C   0  0  0  0  0  0  0  0  0  0  0  0
   -3.2714   -1.5484    0.0908 C   0  0  2  0  0  0  0  0  0  0  0  0
   -2.6128   -1.4190   -1.2810 C   0  0  0  0  0  0  0  0  0  0  0  0
   -1.9834   -0.0273   -1.3325 C   0  0  2  0  0  0  0  0  0  0  0  0
   -1.0538    0.2382   -0.1293 C   0  0  0  0  0  0  0  0  0  0  0  0
   -3.1213    0.9958   -1.3565 C   0  0  0  0  0  0  0  0  0  0  0  0
   -4.1576    0.7837   -0.3447 N   0  0  0  0  0  0  0  0  0  0  0  0
   -4.2999   -0.4450    0.3112 C   0  0  0  0  0  0  0  0  0  0  0  0
   -5.3455   -0.6424    1.1348 C   0  0  0  0  0  0  0  0  0  0  0  0
   -6.3112    0.3967    1.3709 C   0  0  0  0  0  0  0  0  0  0  0  0
   -6.2003    1.5783    0.7562 C   0  0  0  0  0  0  0  0  0  0  0  0
   -5.0826    1.8234   -0.1895 C   0  0  0  0  0  0  0  0  0  0  0  0
   -5.0268    2.8992   -0.7808 O   0  0  0  0  0  0  0  0  0  0  0  0
    2.0661   -0.6803   -0.0842 C   0  0  0  0  0  0  0  0  0  0  0  0
    3.4134   -0.2453    0.0469 C   0  0  0  0  0  0  0  0  0  0  0  0
    4.4664   -0.0232   -0.8606 C   0  0  0  0  0  0  0  0  0  0  0  0
    7.8918    2.0129   -0.4817 H   0  0  0  0  0  0  0  0  0  0  0  0
    8.5646    1.1229   -1.8526 H   0  0  0  0  0  0  0  0  0  0  0  0
    8.4132    0.2920   -0.2999 H   0  0  0  0  0  0  0  0  0  0  0  0
    6.8657    0.9508    1.3661 H   0  0  0  0  0  0  0  0  0  0  0  0
    5.0405    0.5524    2.9603 H   0  0  0  0  0  0  0  0  0  0  0  0
    2.3465   -0.3153    3.0631 H   0  0  0  0  0  0  0  0  0  0  0  0
   -1.9668   -2.5511    1.4989 H   0  0  0  0  0  0  0  0  0  0  0  0
   -2.5208   -0.9876    2.0892 H   0  0  0  0  0  0  0  0  0  0  0  0
   -3.7870   -2.5169    0.1414 H   0  0  0  0  0  0  0  0  0  0  0  0
   -1.8524   -2.1967   -1.4240 H   0  0  0  0  0  0  0  0  0  0  0  0
   -3.3497   -1.5446   -2.0843 H   0  0  0  0  0  0  0  0  0  0  0  0
   -1.4017    0.0771   -2.2565 H   0  0  0  0  0  0  0  0  0  0  0  0
   -1.4243    1.0576    0.5007 H   0  0  0  0  0  0  0  0  0  0  0  0
   -0.0869    0.5845   -0.4962 H   0  0  0  0  0  0  0  0  0  0  0  0
   -2.7220    2.0130   -1.2563 H   0  0  0  0  0  0  0  0  0  0  0  0
   -3.6273    0.9578   -2.3307 H   0  0  0  0  0  0  0  0  0  0  0  0
   -5.4864   -1.5834    1.6590 H   0  0  0  0  0  0  0  0  0  0  0  0
   -7.1260    0.2007    2.0599 H   0  0  0  0  0  0  0  0  0  0  0  0
   -6.9034    2.3875    0.9018 H   0  0  0  0  0  0  0  0  0  0  0  0
    1.5795   -0.9656   -1.0077 H   0  0  0  0  0  0  0  0  0  0  0  0
    4.3164   -0.1865   -1.9238 H   0  0  0  0  0  0  0  0  0  0  0  0
  1  2  1  0
  2  3  1  0
  3  4  2  0
  4  5  1  0
  5  6  2  0
  6  7  1  0
  7  8  1  0
  8  9  1  0
  9 10  2  0
  9 11  1  0
 11 12  1  0
 12 13  1  0
 13 14  1  0
 14 15  1  0
 15 16  1  0
 15 17  1  0
 17 18  1  0
 18 19  1  0
 19 20  2  0
 20 21  1  0
 21 22  2  0
 22 23  1  0
 23 24  2  0
  8 25  2  0
 25 26  1  0
 26 27  2  0
 27  3  1  0
 26  6  1  0
 16 11  1  0
 23 18  1  0
 19 13  1  0
  1 28  1  0
  1 29  1  0
  1 30  1  0
  4 31  1  0
  5 32  1  0
  7 33  1  0
 12 34  1  0
 12 35  1  0
 13 36  1  6
 14 37  1  0
 14 38  1  0
 15 39  1  6
 16 40  1  0
 16 41  1  0
 17 42  1  0
 17 43  1  0
 20 44  1  0
 21 45  1  0
 22 46  1  0
 25 47  1  0
 27 48  1  0
M  END
$$$$
