
     RDKit          3D

 68 72  0  0  0  0  0  0  0  0999 V2000
   -0.3862    1.3479    2.2856 C   0  0  0  0  0  0  0  0  0  0  0  0
   -1.1610    0.3600    1.5178 C   0  0  0  0  0  0  0  0  0  0  0  0
   -2.5648    0.2912    1.5859 C   0  0  0  0  0  0  0  0  0  0  0  0
   -3.4166    1.1163    2.3537 N   0  0  0  0  0  0  0  0  0  0  0  0
   -4.8311    1.0063    2.3951 C   0  0  0  0  0  0  0  0  0  0  0  0
   -5.3810    0.1197    1.7078 O   0  0  0  0  0  0  0  0  0  0  0  0
   -5.6271    1.8188    3.1469 O   0  0  0  0  0  0  0  0  0  0  0  0
   -7.0136    1.8189    3.2696 C   0  0  0  0  0  0  0  0  0  0  0  0
   -7.7984    2.1040    2.0329 C   0  0  2  0  0  0  0  0  0  0  0  0
   -9.2494    2.3820    2.3656 C   0  0  0  0  0  0  0  0  0  0  0  0
  -10.0870    2.0642    1.2980 O   0  0  0  0  0  0  0  0  0  0  0  0
   -9.4582    2.5381    0.1480 C   0  0  0  0  0  0  0  0  0  0  0  0
   -8.3858    1.5641   -0.2292 C   0  0  0  0  0  0  0  0  0  0  0  0
   -7.6363    1.1966    0.9516 N   0  0  0  0  0  0  0  0  0  0  0  0
   -2.9063   -0.7361    0.7559 C   0  0  0  0  0  0  0  0  0  0  0  0
   -1.7967   -1.2986    0.1852 N   0  0  0  0  0  0  0  0  0  0  0  0
   -1.6633   -2.2986   -0.6593 N   0  0  0  0  0  0  0  0  0  0  0  0
   -0.4532   -2.6684   -1.0724 C   0  0  0  0  0  0  0  0  0  0  0  0
    0.6097   -2.0120   -0.6184 N   0  0  0  0  0  0  0  0  0  0  0  0
    0.5564   -0.9854    0.2409 C   0  0  0  0  0  0  0  0  0  0  0  0
    1.6898   -0.2877    0.6752 N   0  0  0  0  0  0  0  0  0  0  0  0
    3.0004   -0.7209    0.2598 C   0  0  0  0  0  0  0  0  0  0  0  0
    4.0453    0.2156    0.2522 C   0  0  0  0  0  0  0  0  0  0  0  0
    5.3265   -0.1404   -0.1069 C   0  0  0  0  0  0  0  0  0  0  0  0
    5.6070   -1.4408   -0.4698 C   0  0  0  0  0  0  0  0  0  0  0  0
    4.6166   -2.3855   -0.4756 C   0  0  0  0  0  0  0  0  0  0  0  0
    5.1551   -3.5900   -0.8719 C   0  0  0  0  0  0  0  0  0  0  0  0
    6.4512   -3.3568   -1.0973 N   0  0  0  0  0  0  0  0  0  0  0  0
    6.7291   -2.0626   -0.8563 N   0  0  0  0  0  0  0  0  0  0  0  0
    8.0367   -1.5086   -1.0090 C   0  0  0  0  0  0  0  0  0  0  0  0
    8.1791   -1.0178   -2.4135 C   0  0  0  0  0  0  0  0  0  0  0  0
    8.6184   -1.8615   -3.4007 C   0  0  0  0  0  0  0  0  0  0  0  0
    8.7723   -1.4579   -4.7169 C   0  0  0  0  0  0  0  0  0  0  0  0
    8.4789   -0.1656   -5.0691 C   0  0  0  0  0  0  0  0  0  0  0  0
    8.0367    0.6925   -4.0873 C   0  0  0  0  0  0  0  0  0  0  0  0
    7.7422    1.9861   -4.4315 F   0  0  0  0  0  0  0  0  0  0  0  0
    7.8819    0.2883   -2.7658 C   0  0  0  0  0  0  0  0  0  0  0  0
    3.3299   -1.9882   -0.1053 C   0  0  0  0  0  0  0  0  0  0  0  0
   -0.7086   -0.6161    0.6591 C   0  0  0  0  0  0  0  0  0  0  0  0
    0.6841    0.0000    0.0000 Cl  0  0  0  0  0  0  0  0  0  0  0  0
    0.3560    0.9292    2.9800 H   0  0  0  0  0  0  0  0  0  0  0  0
   -1.0746    2.0258    2.8716 H   0  0  0  0  0  0  0  0  0  0  0  0
    0.1096    2.0370    1.5790 H   0  0  0  0  0  0  0  0  0  0  0  0
   -2.9941    1.8658    2.9383 H   0  0  0  0  0  0  0  0  0  0  0  0
   -7.2832    0.7777    3.6272 H   0  0  0  0  0  0  0  0  0  0  0  0
   -7.3351    2.4891    4.1089 H   0  0  0  0  0  0  0  0  0  0  0  0
   -7.4142    3.1017    1.6506 H   0  0  0  0  0  0  0  0  0  0  0  0
   -9.5238    1.7082    3.2026 H   0  0  0  0  0  0  0  0  0  0  0  0
   -9.4076    3.4258    2.6757 H   0  0  0  0  0  0  0  0  0  0  0  0
  -10.1857    2.7155   -0.6737 H   0  0  0  0  0  0  0  0  0  0  0  0
   -8.9574    3.5163    0.3972 H   0  0  0  0  0  0  0  0  0  0  0  0
   -7.6464    2.0597   -0.9222 H   0  0  0  0  0  0  0  0  0  0  0  0
   -8.7604    0.6828   -0.7618 H   0  0  0  0  0  0  0  0  0  0  0  0
   -8.0598    0.2589    1.2464 H   0  0  0  0  0  0  0  0  0  0  0  0
   -3.9062   -1.1099    0.5319 H   0  0  0  0  0  0  0  0  0  0  0  0
   -0.3135   -3.5078   -1.7831 H   0  0  0  0  0  0  0  0  0  0  0  0
    1.7131    0.5411    1.2844 H   0  0  0  0  0  0  0  0  0  0  0  0
    3.8172    1.2360    0.5385 H   0  0  0  0  0  0  0  0  0  0  0  0
    6.1469    0.5837   -0.1144 H   0  0  0  0  0  0  0  0  0  0  0  0
    4.6731   -4.5417   -0.9889 H   0  0  0  0  0  0  0  0  0  0  0  0
    8.7911   -2.2990   -0.8748 H   0  0  0  0  0  0  0  0  0  0  0  0
    8.2143   -0.6405   -0.3332 H   0  0  0  0  0  0  0  0  0  0  0  0
    8.8542   -2.8903   -3.1336 H   0  0  0  0  0  0  0  0  0  0  0  0
    9.1164   -2.1495   -5.4483 H   0  0  0  0  0  0  0  0  0  0  0  0
    8.5867    0.1923   -6.0944 H   0  0  0  0  0  0  0  0  0  0  0  0
    7.5367    0.9755   -2.0216 H   0  0  0  0  0  0  0  0  0  0  0  0
    2.6079   -2.7783   -0.1130 H   0  0  0  0  0  0  0  0  0  0  0  0
   -0.6841    0.0000    0.0000 H   0  0  0  0  0  0  0  0  0  0  0  0
  1  2  1  0
  2  3  1  0
  3  4  1  0
  4  5  1  0
  5  6  2  0
  5  7  1  0
  7  8  1  0
  8  9  1  0
  9 10  1  0
 10 11  1  0
 11 12  1  0
 12 13  1  0
 13 14  1  0
  3 15  2  0
 15 16  1  0
 16 17  1  0
 17 18  2  0
 18 19  1  0
 19 20  2  0
 20 21  1  0
 21 22  1  0
 22 23  2  0
 23 24  1  0
 24 25  2  0
 25 26  1  0
 26 27  1  0
 27 28  2  0
 28 29  1  0
 29 30  1  0
 30 31  1  0
 31 32  2  0
 32 33  1  0
 33 34  2  0
 34 35  1  0
 35 36  1  0
 35 37  2  0
 26 38  2  0
 20 39  1  0
 39  2  2  0
 14  9  1  0
 39 16  1  0
 38 22  1  0
 29 25  1  0
 37 31  1  0
  1 41  1  0
  1 42  1  0
  1 43  1  0
  4 44  1  0
  8 45  1  0
  8 46  1  0
  9 47  1  6
 10 48  1  0
 10 49  1  0
 12 50  1  0
 12 51  1  0
 13 52  1  0
 13 53  1  0
 14 54  1  0
 15 55  1  0
 18 56  1  0
 21 57  1  0
 23 58  1  0
 24 59  1  0
 27 60  1  0
 30 61  1  0
 30 62  1  0
 32 63  1  0
 33 64  1  0
 34 65  1  0
 37 66  1  0
 38 67  1  0
 40 68  1  0
M  END
$$$$
