
     RDKit          3D

 54 58  0  0  0  0  0  0  0  0999 V2000
    4.9304   -1.0740    4.8274 C   0  0  0  0  0  0  0  0  0  0  0  0
    4.2267   -1.4593    3.6283 N   0  0  0  0  0  0  0  0  0  0  0  0
    3.7238   -0.6303    2.6671 C   0  0  0  0  0  0  0  0  0  0  0  0
    3.1459   -1.4432    1.7116 C   0  0  0  0  0  0  0  0  0  0  0  0
    2.4731   -0.9844    0.5061 C   0  0  0  0  0  0  0  0  0  0  0  0
    2.7471    0.2720   -0.0502 C   0  0  0  0  0  0  0  0  0  0  0  0
    2.0808    0.7072   -1.2023 C   0  0  0  0  0  0  0  0  0  0  0  0
    1.1220   -0.1017   -1.8271 C   0  0  0  0  0  0  0  0  0  0  0  0
    0.4123    0.3604   -3.0301 C   0  0  0  0  0  0  0  0  0  0  0  0
    1.0876    0.3906   -4.2546 C   0  0  0  0  0  0  0  0  0  0  0  0
    0.5465    0.7863   -5.4277 N   0  0  0  0  0  0  0  0  0  0  0  0
   -0.7458    1.1761   -5.3808 C   0  0  0  0  0  0  0  0  0  0  0  0
   -1.5230    1.1906   -4.2270 C   0  0  0  0  0  0  0  0  0  0  0  0
   -3.1481    1.7594   -4.3671 Cl  0  0  0  0  0  0  0  0  0  0  0  0
   -0.9469    0.7726   -3.0097 C   0  0  0  0  0  0  0  0  0  0  0  0
   -1.6265    0.7567   -1.7762 N   0  0  0  0  0  0  0  0  0  0  0  0
   -2.7807   -0.1307   -1.6592 C   0  0  0  0  0  0  0  0  0  0  0  0
   -2.9106   -0.5269   -0.1850 C   0  0  0  0  0  0  0  0  0  0  0  0
   -2.7237    0.6822    0.7696 C   0  0  0  0  0  0  0  0  0  0  0  0
   -1.4510    0.5370    1.6350 C   0  0  0  0  0  0  0  0  0  0  0  0
   -1.8923   -0.3571    2.7800 C   0  0  0  0  0  0  0  0  0  0  0  0
   -3.2685   -0.0043    2.9511 N   0  0  0  0  0  0  0  0  0  0  0  0
   -3.7997    0.6250    1.8435 C   0  0  0  0  0  0  0  0  0  0  0  0
   -4.9524    1.0081    1.7482 O   0  0  0  0  0  0  0  0  0  0  0  0
   -2.7648    2.0162    0.0149 C   0  0  0  0  0  0  0  0  0  0  0  0
   -1.7382    2.0650   -1.1192 C   0  0  0  0  0  0  0  0  0  0  0  0
    0.8605   -1.3643   -1.2777 C   0  0  0  0  0  0  0  0  0  0  0  0
    1.5267   -1.8009   -0.1265 C   0  0  0  0  0  0  0  0  0  0  0  0
    3.3562   -2.7506    2.2136 C   0  0  0  0  0  0  0  0  0  0  0  0
    4.0072   -2.7618    3.3801 N   0  0  0  0  0  0  0  0  0  0  0  0
    4.3441   -1.4003    5.6899 H   0  0  0  0  0  0  0  0  0  0  0  0
    5.9112   -1.5561    4.8226 H   0  0  0  0  0  0  0  0  0  0  0  0
    5.0497    0.0120    4.8459 H   0  0  0  0  0  0  0  0  0  0  0  0
    3.8148    0.4435    2.7503 H   0  0  0  0  0  0  0  0  0  0  0  0
    3.4874    0.9309    0.3965 H   0  0  0  0  0  0  0  0  0  0  0  0
    2.3096    1.6924   -1.6041 H   0  0  0  0  0  0  0  0  0  0  0  0
    2.1272    0.0763   -4.3229 H   0  0  0  0  0  0  0  0  0  0  0  0
   -1.1559    1.4947   -6.3354 H   0  0  0  0  0  0  0  0  0  0  0  0
   -2.6511   -1.0399   -2.2594 H   0  0  0  0  0  0  0  0  0  0  0  0
   -3.7023    0.3580   -1.9942 H   0  0  0  0  0  0  0  0  0  0  0  0
   -2.1630   -1.3003    0.0334 H   0  0  0  0  0  0  0  0  0  0  0  0
   -3.8870   -1.0062   -0.0416 H   0  0  0  0  0  0  0  0  0  0  0  0
   -1.1507    1.5137    2.0377 H   0  0  0  0  0  0  0  0  0  0  0  0
   -0.5935    0.1283    1.0954 H   0  0  0  0  0  0  0  0  0  0  0  0
   -1.8363   -1.4198    2.5256 H   0  0  0  0  0  0  0  0  0  0  0  0
   -1.3388   -0.1685    3.7033 H   0  0  0  0  0  0  0  0  0  0  0  0
   -3.8418   -0.2059    3.7616 H   0  0  0  0  0  0  0  0  0  0  0  0
   -2.6084    2.8643    0.6935 H   0  0  0  0  0  0  0  0  0  0  0  0
   -3.7684    2.1643   -0.4076 H   0  0  0  0  0  0  0  0  0  0  0  0
   -2.0239    2.8576   -1.8208 H   0  0  0  0  0  0  0  0  0  0  0  0
   -0.7588    2.3365   -0.7071 H   0  0  0  0  0  0  0  0  0  0  0  0
    0.1195   -2.0135   -1.7401 H   0  0  0  0  0  0  0  0  0  0  0  0
    1.2772   -2.7811    0.2720 H   0  0  0  0  0  0  0  0  0  0  0  0
    3.0643   -3.6968    1.7765 H   0  0  0  0  0  0  0  0  0  0  0  0
  1  2  1  0
  2  3  1  0
  3  4  2  0
  4  5  1  0
  5  6  2  0
  6  7  1  0
  7  8  2  0
  8  9  1  0
  9 10  2  0
 10 11  1  0
 11 12  2  0
 12 13  1  0
 13 14  1  0
 13 15  2  0
 15 16  1  0
 16 17  1  0
 17 18  1  0
 18 19  1  0
 19 20  1  0
 20 21  1  0
 21 22  1  0
 22 23  1  0
 23 24  2  0
 19 25  1  0
 25 26  1  0
  8 27  1  0
 27 28  2  0
  4 29  1  0
 29 30  2  0
 30  2  1  0
 28  5  1  0
 15  9  1  0
 26 16  1  0
 23 19  1  0
  1 31  1  0
  1 32  1  0
  1 33  1  0
  3 34  1  0
  6 35  1  0
  7 36  1  0
 10 37  1  0
 12 38  1  0
 17 39  1  0
 17 40  1  0
 18 41  1  0
 18 42  1  0
 20 43  1  0
 20 44  1  0
 21 45  1  0
 21 46  1  0
 22 47  1  0
 25 48  1  0
 25 49  1  0
 26 50  1  0
 26 51  1  0
 27 52  1  0
 28 53  1  0
 29 54  1  0
M  END
$$$$
