
     RDKit          3D

 49 51  0  0  0  0  0  0  0  0999 V2000
    1.3179    0.2108   -3.4008 C   0  0  0  0  0  0  0  0  0  0  0  0
    0.5793    0.8346   -2.2272 C   0  0  0  0  0  0  0  0  0  0  0  0
    0.0229   -0.2455   -1.3681 N   0  0  0  0  0  0  0  0  0  0  0  0
   -1.3478   -0.6685   -1.7722 C   0  0  0  0  0  0  0  0  0  0  0  0
   -2.4660    0.2251   -1.2536 C   0  0  0  0  0  0  0  0  0  0  0  0
   -2.8244    1.2331   -1.8576 O   0  0  0  0  0  0  0  0  0  0  0  0
   -3.0178   -0.1918   -0.0563 N   0  0  0  0  0  0  0  0  0  0  0  0
   -3.9633    0.6516    0.6596 C   0  0  0  0  0  0  0  0  0  0  0  0
   -5.3532    0.6320    0.0232 C   0  0  0  0  0  0  0  0  0  0  0  0
   -6.0119   -0.6406    0.5528 C   0  0  0  0  0  0  0  0  0  0  0  0
   -5.2697   -1.0018    1.8395 C   0  0  0  0  0  0  0  0  0  0  0  0
   -4.2462    0.1081    2.0582 C   0  0  0  0  0  0  0  0  0  0  0  0
    0.2307   -0.0464    0.3100 S   0  0  0  0  0  6  0  0  0  0  0  0
   -0.0954    1.3221    0.6448 O   0  0  0  0  0  0  0  0  0  0  0  0
   -0.4403   -1.1513    0.9666 O   0  0  0  0  0  0  0  0  0  0  0  0
    1.9767   -0.2825    0.5064 C   0  0  0  0  0  0  0  0  0  0  0  0
    2.5223   -1.5402    0.2467 C   0  0  0  0  0  0  0  0  0  0  0  0
    3.8969   -1.7325    0.3874 C   0  0  0  0  0  0  0  0  0  0  0  0
    4.7317   -0.6762    0.7906 C   0  0  0  0  0  0  0  0  0  0  0  0
    6.1168   -0.8549    0.9308 C   0  0  0  0  0  0  0  0  0  0  0  0
    6.9358    0.2019    1.3326 C   0  0  0  0  0  0  0  0  0  0  0  0
    6.3809    1.4497    1.6014 C   0  0  0  0  0  0  0  0  0  0  0  0
    5.0055    1.6454    1.4679 C   0  0  0  0  0  0  0  0  0  0  0  0
    4.1679    0.5943    1.0625 C   0  0  0  0  0  0  0  0  0  0  0  0
    2.7848    0.7798    0.9207 C   0  0  0  0  0  0  0  0  0  0  0  0
    0.6443   -0.3772   -4.0317 H   0  0  0  0  0  0  0  0  0  0  0  0
    1.7705    0.9897   -4.0215 H   0  0  0  0  0  0  0  0  0  0  0  0
    2.1144   -0.4549   -3.0521 H   0  0  0  0  0  0  0  0  0  0  0  0
    1.2881    1.4562   -1.6710 H   0  0  0  0  0  0  0  0  0  0  0  0
   -0.2134    1.4990   -2.5856 H   0  0  0  0  0  0  0  0  0  0  0  0
   -1.4281   -0.7013   -2.8650 H   0  0  0  0  0  0  0  0  0  0  0  0
   -1.5124   -1.7004   -1.4402 H   0  0  0  0  0  0  0  0  0  0  0  0
   -2.4502   -0.8275    0.5035 H   0  0  0  0  0  0  0  0  0  0  0  0
   -3.5519    1.6659    0.6976 H   0  0  0  0  0  0  0  0  0  0  0  0
   -5.3436    0.6552   -1.0706 H   0  0  0  0  0  0  0  0  0  0  0  0
   -5.9254    1.5018    0.3695 H   0  0  0  0  0  0  0  0  0  0  0  0
   -5.9169   -1.4551   -0.1747 H   0  0  0  0  0  0  0  0  0  0  0  0
   -7.0813   -0.4848    0.7324 H   0  0  0  0  0  0  0  0  0  0  0  0
   -4.7648   -1.9673    1.7170 H   0  0  0  0  0  0  0  0  0  0  0  0
   -5.9498   -1.0930    2.6922 H   0  0  0  0  0  0  0  0  0  0  0  0
   -4.6937    0.8957    2.6772 H   0  0  0  0  0  0  0  0  0  0  0  0
   -3.3519   -0.2561    2.5738 H   0  0  0  0  0  0  0  0  0  0  0  0
    1.8871   -2.3660   -0.0651 H   0  0  0  0  0  0  0  0  0  0  0  0
    4.3155   -2.7154    0.1802 H   0  0  0  0  0  0  0  0  0  0  0  0
    6.5711   -1.8222    0.7273 H   0  0  0  0  0  0  0  0  0  0  0  0
    8.0071    0.0492    1.4370 H   0  0  0  0  0  0  0  0  0  0  0  0
    7.0181    2.2724    1.9160 H   0  0  0  0  0  0  0  0  0  0  0  0
    4.5922    2.6283    1.6841 H   0  0  0  0  0  0  0  0  0  0  0  0
    2.3410    1.7515    1.1294 H   0  0  0  0  0  0  0  0  0  0  0  0
  1  2  1  0
  2  3  1  0
  3  4  1  0
  4  5  1  0
  5  6  2  0
  5  7  1  0
  7  8  1  0
  8  9  1  0
  9 10  1  0
 10 11  1  0
 11 12  1  0
  3 13  1  0
 13 14  2  0
 13 15  2  0
 13 16  1  0
 16 17  2  0
 17 18  1  0
 18 19  2  0
 19 20  1  0
 20 21  2  0
 21 22  1  0
 22 23  2  0
 23 24  1  0
 24 25  2  0
 12  8  1  0
 25 16  1  0
 24 19  1  0
  1 26  1  0
  1 27  1  0
  1 28  1  0
  2 29  1  0
  2 30  1  0
  4 31  1  0
  4 32  1  0
  7 33  1  0
  8 34  1  0
  9 35  1  0
  9 36  1  0
 10 37  1  0
 10 38  1  0
 11 39  1  0
 11 40  1  0
 12 41  1  0
 12 42  1  0
 17 43  1  0
 18 44  1  0
 20 45  1  0
 21 46  1  0
 22 47  1  0
 23 48  1  0
 25 49  1  0
M  END
$$$$
