
     RDKit          3D

 51 54  0  0  0  0  0  0  0  0999 V2000
   -7.9144    1.7342   -1.8081 C   0  0  0  0  0  0  0  0  0  0  0  0
   -7.2283    0.5602   -1.3965 O   0  0  0  0  0  0  0  0  0  0  0  0
   -6.0785    0.7182   -0.6622 C   0  0  0  0  0  0  0  0  0  0  0  0
   -5.5411    1.9562   -0.2901 C   0  0  0  0  0  0  0  0  0  0  0  0
   -4.3735    2.0577    0.4530 C   0  0  0  0  0  0  0  0  0  0  0  0
   -3.9181    3.2816    0.7757 N   0  0  0  0  0  0  0  0  0  0  0  0
   -2.7884    3.3774    1.5091 C   0  0  0  0  0  0  0  0  0  0  0  0
   -2.0640    2.2897    1.9441 C   0  0  0  0  0  0  0  0  0  0  0  0
   -2.5270    1.0275    1.5854 C   0  0  0  0  0  0  0  0  0  0  0  0
   -1.8655   -0.1027    2.0216 O   0  0  0  0  0  0  0  0  0  0  0  0
   -0.5421   -0.2381    1.6650 C   0  0  0  0  0  0  0  0  0  0  0  0
   -0.0422    0.1069    0.4085 C   0  0  0  0  0  0  0  0  0  0  0  0
    1.3123   -0.0884    0.1113 C   0  0  0  0  0  0  0  0  0  0  0  0
    2.1776   -0.6403    1.0597 C   0  0  0  0  0  0  0  0  0  0  0  0
    3.5550   -0.8667    0.8193 N   0  0  0  0  0  0  0  0  0  0  0  0
    4.3134   -0.4410   -0.2635 C   0  0  0  0  0  0  0  0  0  0  0  0
    3.8921    0.2735   -1.1618 O   0  0  0  0  0  0  0  0  0  0  0  0
    5.5998   -0.9430   -0.1724 N   0  0  0  0  0  0  0  0  0  0  0  0
    6.6238   -0.6531   -1.0552 C   0  0  0  0  0  0  0  0  0  0  0  0
    7.9053   -1.2554   -0.9847 C   0  0  0  0  0  0  0  0  0  0  0  0
    8.6128   -0.6939   -2.0180 C   0  0  0  0  0  0  0  0  0  0  0  0
    9.9821   -0.8464   -2.5375 C   0  0  0  0  0  0  0  0  0  0  0  0
    7.8148    0.1903   -2.6693 O   0  0  0  0  0  0  0  0  0  0  0  0
    6.5746    0.2192   -2.0654 N   0  0  0  0  0  0  0  0  0  0  0  0
    1.6480   -1.0124    2.3107 C   0  0  0  0  0  0  0  0  0  0  0  0
    2.6575   -1.7261    3.5257 Cl  0  0  0  0  0  0  0  0  0  0  0  0
    0.2984   -0.8175    2.6120 C   0  0  0  0  0  0  0  0  0  0  0  0
   -3.7136    0.8777    0.8408 C   0  0  0  0  0  0  0  0  0  0  0  0
   -4.2488   -0.3768    0.4712 C   0  0  0  0  0  0  0  0  0  0  0  0
   -5.4243   -0.4635   -0.2774 C   0  0  0  0  0  0  0  0  0  0  0  0
   -6.0084   -1.6386   -0.6770 O   0  0  0  0  0  0  0  0  0  0  0  0
   -5.3516   -2.8523   -0.3411 C   0  0  0  0  0  0  0  0  0  0  0  0
   -8.2599    2.3131   -0.9451 H   0  0  0  0  0  0  0  0  0  0  0  0
   -8.7981    1.4239   -2.3744 H   0  0  0  0  0  0  0  0  0  0  0  0
   -7.2916    2.3433   -2.4715 H   0  0  0  0  0  0  0  0  0  0  0  0
   -6.0229    2.8872   -0.5717 H   0  0  0  0  0  0  0  0  0  0  0  0
   -2.4764    4.3907    1.7466 H   0  0  0  0  0  0  0  0  0  0  0  0
   -1.1715    2.4231    2.5430 H   0  0  0  0  0  0  0  0  0  0  0  0
   -0.6908    0.5218   -0.3595 H   0  0  0  0  0  0  0  0  0  0  0  0
    1.6551    0.1927   -0.8808 H   0  0  0  0  0  0  0  0  0  0  0  0
    4.0565   -1.2633    1.6022 H   0  0  0  0  0  0  0  0  0  0  0  0
    5.7952   -1.6463    0.5185 H   0  0  0  0  0  0  0  0  0  0  0  0
    8.2638   -1.9933   -0.2847 H   0  0  0  0  0  0  0  0  0  0  0  0
   10.5934   -1.4513   -1.8602 H   0  0  0  0  0  0  0  0  0  0  0  0
   10.4643    0.1300   -2.6484 H   0  0  0  0  0  0  0  0  0  0  0  0
    9.9672   -1.3377   -3.5153 H   0  0  0  0  0  0  0  0  0  0  0  0
   -0.0998   -1.1097    3.5797 H   0  0  0  0  0  0  0  0  0  0  0  0
   -3.7228   -1.2733    0.7831 H   0  0  0  0  0  0  0  0  0  0  0  0
   -4.3550   -2.9006   -0.7924 H   0  0  0  0  0  0  0  0  0  0  0  0
   -5.3026   -2.9875    0.7443 H   0  0  0  0  0  0  0  0  0  0  0  0
   -5.9421   -3.6769   -0.7516 H   0  0  0  0  0  0  0  0  0  0  0  0
  1  2  1  0
  2  3  1  0
  3  4  2  0
  4  5  1  0
  5  6  2  0
  6  7  1  0
  7  8  2  0
  8  9  1  0
  9 10  1  0
 10 11  1  0
 11 12  2  0
 12 13  1  0
 13 14  2  0
 14 15  1  0
 15 16  1  0
 16 17  2  0
 16 18  1  0
 18 19  1  0
 19 20  1  0
 20 21  2  0
 21 22  1  0
 21 23  1  0
 23 24  1  0
 14 25  1  0
 25 26  1  0
 25 27  2  0
  9 28  2  0
 28 29  1  0
 29 30  2  0
 30 31  1  0
 31 32  1  0
 30  3  1  0
 28  5  1  0
 27 11  1  0
 24 19  2  0
  1 33  1  0
  1 34  1  0
  1 35  1  0
  4 36  1  0
  7 37  1  0
  8 38  1  0
 12 39  1  0
 13 40  1  0
 15 41  1  0
 18 42  1  0
 20 43  1  0
 22 44  1  0
 22 45  1  0
 22 46  1  0
 27 47  1  0
 29 48  1  0
 32 49  1  0
 32 50  1  0
 32 51  1  0
M  END
$$$$
