
     RDKit          3D

 45 47  0  0  0  0  0  0  0  0999 V2000
    8.4110   -0.6846    0.2913 C   0  0  0  0  0  0  0  0  0  0  0  0
    6.9384   -0.8296    0.2686 C   0  0  0  0  0  0  0  0  0  0  0  0
    5.9893   -0.0713   -0.4573 C   0  0  0  0  0  0  0  0  0  0  0  0
    4.7798   -0.6165   -0.1013 C   0  0  0  0  0  0  0  0  0  0  0  0
    3.3694   -0.3258   -0.4557 C   0  0  0  0  0  0  0  0  0  0  0  0
    2.6235    0.3133    0.7183 C   0  0  0  0  0  0  0  0  0  0  0  0
    1.1953    0.7069    0.3510 C   0  0  0  0  0  0  0  0  0  0  0  0
    0.4880   -0.4634   -0.0764 O   0  0  0  0  0  0  0  0  0  0  0  0
   -0.8553   -0.2041   -0.1845 C   0  0  0  0  0  0  0  0  0  0  0  0
   -1.6922   -0.5000    0.9031 C   0  0  0  0  0  0  0  0  0  0  0  0
   -1.1440   -1.0663    2.1823 C   0  0  0  0  0  0  0  0  0  0  0  0
   -3.0647   -0.2247    0.7948 C   0  0  0  0  0  0  0  0  0  0  0  0
   -3.6087    0.3043   -0.3856 C   0  0  0  0  0  0  0  0  0  0  0  0
   -5.0391    0.5866   -0.4729 C   0  0  0  0  0  0  0  0  0  0  0  0
   -5.6353    1.1301   -1.5476 N   0  0  0  0  0  0  0  0  0  0  0  0
   -6.9759    1.2105   -1.1857 O   0  0  0  0  0  0  0  0  0  0  0  0
   -7.0734    0.7077    0.0796 C   0  0  0  0  0  0  0  0  0  0  0  0
   -8.4387    0.6990    0.6614 C   0  0  0  0  0  0  0  0  0  0  0  0
   -8.9206    1.9575    0.8566 F   0  0  0  0  0  0  0  0  0  0  0  0
   -8.4935    0.0743    1.8690 F   0  0  0  0  0  0  0  0  0  0  0  0
   -9.3346    0.0627   -0.1406 F   0  0  0  0  0  0  0  0  0  0  0  0
   -5.9093    0.3153    0.5637 N   0  0  0  0  0  0  0  0  0  0  0  0
   -2.7555    0.5454   -1.4742 C   0  0  0  0  0  0  0  0  0  0  0  0
   -1.3794    0.2728   -1.3955 C   0  0  0  0  0  0  0  0  0  0  0  0
   -0.5089    0.5363   -2.5901 C   0  0  0  0  0  0  0  0  0  0  0  0
    4.9884   -1.6411    0.7695 O   0  0  0  0  0  0  0  0  0  0  0  0
    6.3452   -1.7728    1.0129 N   0  0  0  0  0  0  0  0  0  0  0  0
    8.9022   -1.6615    0.2301 H   0  0  0  0  0  0  0  0  0  0  0  0
    8.7298   -0.1940    1.2168 H   0  0  0  0  0  0  0  0  0  0  0  0
    8.7607   -0.0811   -0.5533 H   0  0  0  0  0  0  0  0  0  0  0  0
    6.1647    0.7515   -1.1343 H   0  0  0  0  0  0  0  0  0  0  0  0
    2.8789   -1.2586   -0.7590 H   0  0  0  0  0  0  0  0  0  0  0  0
    3.3438    0.3450   -1.3247 H   0  0  0  0  0  0  0  0  0  0  0  0
    3.1615    1.2014    1.0719 H   0  0  0  0  0  0  0  0  0  0  0  0
    2.5962   -0.4006    1.5513 H   0  0  0  0  0  0  0  0  0  0  0  0
    0.7155    1.1568    1.2301 H   0  0  0  0  0  0  0  0  0  0  0  0
    1.2105    1.4519   -0.4540 H   0  0  0  0  0  0  0  0  0  0  0  0
   -0.4303   -1.8710    1.9773 H   0  0  0  0  0  0  0  0  0  0  0  0
   -0.6470   -0.2816    2.7605 H   0  0  0  0  0  0  0  0  0  0  0  0
   -1.9407   -1.4931    2.8006 H   0  0  0  0  0  0  0  0  0  0  0  0
   -3.7179   -0.4302    1.6430 H   0  0  0  0  0  0  0  0  0  0  0  0
   -3.1642    0.9423   -2.4030 H   0  0  0  0  0  0  0  0  0  0  0  0
   -1.0766    0.4245   -3.5203 H   0  0  0  0  0  0  0  0  0  0  0  0
   -0.1092    1.5541   -2.5461 H   0  0  0  0  0  0  0  0  0  0  0  0
    0.3231   -0.1731   -2.6415 H   0  0  0  0  0  0  0  0  0  0  0  0
  1  2  1  0
  2  3  1  0
  3  4  2  0
  4  5  1  0
  5  6  1  0
  6  7  1  0
  7  8  1  0
  8  9  1  0
  9 10  2  0
 10 11  1  0
 10 12  1  0
 12 13  2  0
 13 14  1  0
 14 15  2  0
 15 16  1  0
 16 17  1  0
 17 18  1  0
 18 19  1  0
 18 20  1  0
 18 21  1  0
 17 22  2  0
 13 23  1  0
 23 24  2  0
 24 25  1  0
  4 26  1  0
 26 27  1  0
 27  2  2  0
 24  9  1  0
 22 14  1  0
  1 28  1  0
  1 29  1  0
  1 30  1  0
  3 31  1  0
  5 32  1  0
  5 33  1  0
  6 34  1  0
  6 35  1  0
  7 36  1  0
  7 37  1  0
 11 38  1  0
 11 39  1  0
 11 40  1  0
 12 41  1  0
 23 42  1  0
 25 43  1  0
 25 44  1  0
 25 45  1  0
M  END
$$$$
