
     RDKit          3D

 45 43  0  0  0  0  0  0  0  0999 V2000
    0.6859    0.0000    0.0000 Cl  0  0  0  0  0  0  0  0  0  0  0  0
    0.6834    0.0000    0.0000 Cl  0  0  0  0  0  0  0  0  0  0  0  0
    6.3072   -0.4156    1.5818 O   0  0  0  0  0  0  0  0  0  0  0  0
    5.0027   -0.4081    1.0806 C   0  0  0  0  0  0  0  0  0  0  0  0
    5.0503    0.0891   -0.3453 C   0  0  0  0  0  0  0  0  0  0  0  0
    3.7341    0.1026   -0.8755 N   0  0  0  0  0  0  0  0  0  0  0  0
    2.8321    1.0479   -0.3264 C   0  0  0  0  0  0  0  0  0  0  0  0
    1.4636    1.0220   -0.9523 C   0  0  0  0  0  0  0  0  0  0  0  0
    0.7646   -0.2980   -0.8174 C   0  0  0  0  0  0  0  0  0  0  0  0
   -0.5263   -0.2809   -1.4288 N   0  0  0  0  0  0  0  0  0  0  0  0
   -1.5060    0.5430   -0.7871 C   0  0  0  0  0  0  0  0  0  0  0  0
   -1.9448    0.0489    0.5644 C   0  0  0  0  0  0  0  0  0  0  0  0
   -2.5521   -1.3342    0.4336 C   0  0  0  0  0  0  0  0  0  0  0  0
   -3.7666   -1.3269   -0.4605 C   0  0  0  0  0  0  0  0  0  0  0  0
   -4.7298   -0.2195   -0.0939 C   0  0  0  0  0  0  0  0  0  0  0  0
   -4.3309    0.3251    1.2524 C   0  0  0  0  0  0  0  0  0  0  0  0
   -2.9853    1.0024    1.1073 C   0  0  0  0  0  0  0  0  0  0  0  0
   -0.6859    0.0000    0.0000 H   0  0  0  0  0  0  0  0  0  0  0  0
   -0.6834    0.0000    0.0000 H   0  0  0  0  0  0  0  0  0  0  0  0
    6.9000   -0.6252    0.8112 H   0  0  0  0  0  0  0  0  0  0  0  0
    4.4897   -1.3647    1.1818 H   0  0  0  0  0  0  0  0  0  0  0  0
    4.4301    0.3619    1.6669 H   0  0  0  0  0  0  0  0  0  0  0  0
    5.7137   -0.5673   -0.9699 H   0  0  0  0  0  0  0  0  0  0  0  0
    5.5506    1.0754   -0.3404 H   0  0  0  0  0  0  0  0  0  0  0  0
    3.3596   -0.7747   -1.2270 H   0  0  0  0  0  0  0  0  0  0  0  0
    3.1831    2.0958   -0.3816 H   0  0  0  0  0  0  0  0  0  0  0  0
    2.6877    0.8349    0.7671 H   0  0  0  0  0  0  0  0  0  0  0  0
    1.4771    1.3498   -2.0054 H   0  0  0  0  0  0  0  0  0  0  0  0
    0.8701    1.7914   -0.3768 H   0  0  0  0  0  0  0  0  0  0  0  0
    0.6062   -0.5377    0.2771 H   0  0  0  0  0  0  0  0  0  0  0  0
    1.3605   -1.1351   -1.2047 H   0  0  0  0  0  0  0  0  0  0  0  0
   -0.8664   -1.1823   -1.7933 H   0  0  0  0  0  0  0  0  0  0  0  0
   -1.1135    1.5721   -0.7105 H   0  0  0  0  0  0  0  0  0  0  0  0
   -2.3987    0.6083   -1.4715 H   0  0  0  0  0  0  0  0  0  0  0  0
   -1.1190   -0.0036    1.2722 H   0  0  0  0  0  0  0  0  0  0  0  0
   -1.7994   -1.9815   -0.0362 H   0  0  0  0  0  0  0  0  0  0  0  0
   -2.7603   -1.7656    1.4346 H   0  0  0  0  0  0  0  0  0  0  0  0
   -4.2946   -2.2968   -0.3375 H   0  0  0  0  0  0  0  0  0  0  0  0
   -3.4211   -1.1543   -1.5061 H   0  0  0  0  0  0  0  0  0  0  0  0
   -4.7092    0.6070   -0.8179 H   0  0  0  0  0  0  0  0  0  0  0  0
   -5.7819   -0.6030   -0.0824 H   0  0  0  0  0  0  0  0  0  0  0  0
   -4.2976   -0.5107    1.9796 H   0  0  0  0  0  0  0  0  0  0  0  0
   -5.0491    1.0618    1.6518 H   0  0  0  0  0  0  0  0  0  0  0  0
   -3.1210    1.8613    0.4351 H   0  0  0  0  0  0  0  0  0  0  0  0
   -2.7091    1.3851    2.0991 H   0  0  0  0  0  0  0  0  0  0  0  0
  3  4  1  0
  4  5  1  0
  5  6  1  0
  6  7  1  0
  7  8  1  0
  8  9  1  0
  9 10  1  0
 10 11  1  0
 11 12  1  0
 12 13  1  0
 13 14  1  0
 14 15  1  0
 15 16  1  0
 16 17  1  0
 17 12  1  0
  1 18  1  0
  2 19  1  0
  3 20  1  0
  4 21  1  0
  4 22  1  0
  5 23  1  0
  5 24  1  0
  6 25  1  0
  7 26  1  0
  7 27  1  0
  8 28  1  0
  8 29  1  0
  9 30  1  0
  9 31  1  0
 10 32  1  0
 11 33  1  0
 11 34  1  0
 12 35  1  0
 13 36  1  0
 13 37  1  0
 14 38  1  0
 14 39  1  0
 15 40  1  0
 15 41  1  0
 16 42  1  0
 16 43  1  0
 17 44  1  0
 17 45  1  0
M  END
$$$$
