
     RDKit          3D

 46 48  0  0  0  0  0  0  0  0999 V2000
   -6.4996    2.4685    0.7724 N   0  0  0  0  0  0  0  0  0  0  0  0
   -5.9726    1.1845    0.7143 C   0  0  0  0  0  0  0  0  0  0  0  0
   -6.8195    0.1542    0.4895 N   0  0  0  0  0  0  0  0  0  0  0  0
   -6.3083   -1.0944    0.4242 C   0  0  0  0  0  0  0  0  0  0  0  0
   -5.0232   -1.4810    0.5603 N   0  0  0  0  0  0  0  0  0  0  0  0
   -4.2303   -0.4257    0.8034 C   0  0  0  0  0  0  0  0  0  0  0  0
   -4.6080    0.9035    0.8944 C   0  0  0  0  0  0  0  0  0  0  0  0
   -3.5166    1.7044    1.1591 N   0  0  0  0  0  0  0  0  0  0  0  0
   -2.4991    0.8713    1.2365 C   0  0  0  0  0  0  0  0  0  0  0  0
   -2.8753   -0.4247    0.9976 N   0  0  0  0  0  0  0  0  0  0  0  0
   -2.0255   -1.6030    0.9666 C   0  0  2  0  0  0  0  0  0  0  0  0
   -0.6635   -1.1967    1.2636 O   0  0  0  0  0  0  0  0  0  0  0  0
    0.1773   -1.5787    0.1551 C   0  0  2  0  0  0  0  0  0  0  0  0
    1.2941   -0.5567   -0.0754 C   0  0  0  0  0  0  0  0  0  0  0  0
    2.5037   -0.5754    1.2974 S   0  0  0  0  0  0  0  0  0  0  0  0
    3.5423    0.8444    0.8155 C   0  0  0  0  0  0  0  0  0  0  0  0
    4.5100    0.4817   -0.3129 C   0  0  0  0  0  0  0  0  0  0  0  0
    5.3441    1.6873   -0.7676 C   0  0  2  0  0  0  0  0  0  0  0  0
    6.1478    1.3371   -1.9594 N   0  0  0  0  0  0  0  0  0  0  0  0
    6.2875    2.1472    0.3492 C   0  0  0  0  0  0  0  0  0  0  0  0
    7.3837    1.6778    0.6144 O   0  0  0  0  0  0  0  0  0  0  0  0
    5.7711    3.1464    1.0926 O   0  0  0  0  0  0  0  0  0  0  0  0
   -0.7675   -1.6647   -1.0414 C   0  0  1  0  0  0  0  0  0  0  0  0
   -0.2515   -2.4627   -2.0984 O   0  0  0  0  0  0  0  0  0  0  0  0
   -1.9919   -2.2971   -0.4028 C   0  0  1  0  0  0  0  0  0  0  0  0
   -1.7813   -3.7121   -0.2533 O   0  0  0  0  0  0  0  0  0  0  0  0
   -7.4863    2.4634    0.9944 H   0  0  0  0  0  0  0  0  0  0  0  0
   -5.9084    3.1210    1.2757 H   0  0  0  0  0  0  0  0  0  0  0  0
   -7.0259   -1.8876    0.2342 H   0  0  0  0  0  0  0  0  0  0  0  0
   -1.4775    1.1534    1.4621 H   0  0  0  0  0  0  0  0  0  0  0  0
   -2.3617   -2.2681    1.7697 H   0  0  0  0  0  0  0  0  0  0  0  0
    0.6112   -2.5645    0.3704 H   0  0  0  0  0  0  0  0  0  0  0  0
    0.8697    0.4509   -0.1334 H   0  0  0  0  0  0  0  0  0  0  0  0
    1.8184   -0.7814   -1.0084 H   0  0  0  0  0  0  0  0  0  0  0  0
    2.9001    1.6860    0.5363 H   0  0  0  0  0  0  0  0  0  0  0  0
    4.0981    1.1386    1.7108 H   0  0  0  0  0  0  0  0  0  0  0  0
    5.1749   -0.3267    0.0202 H   0  0  0  0  0  0  0  0  0  0  0  0
    3.9458    0.1017   -1.1734 H   0  0  0  0  0  0  0  0  0  0  0  0
    4.6939    2.5233   -1.0487 H   0  0  0  0  0  0  0  0  0  0  0  0
    5.5880    0.7985   -2.6172 H   0  0  0  0  0  0  0  0  0  0  0  0
    6.9146    0.7258   -1.6655 H   0  0  0  0  0  0  0  0  0  0  0  0
    6.4794    3.3446    1.7417 H   0  0  0  0  0  0  0  0  0  0  0  0
   -1.0054   -0.6639   -1.4222 H   0  0  0  0  0  0  0  0  0  0  0  0
   -0.8627   -2.3847   -2.8546 H   0  0  0  0  0  0  0  0  0  0  0  0
   -2.8898   -2.1740   -1.0138 H   0  0  0  0  0  0  0  0  0  0  0  0
   -1.2047   -3.9915   -0.9923 H   0  0  0  0  0  0  0  0  0  0  0  0
  1  2  1  0
  2  3  2  0
  3  4  1  0
  4  5  2  0
  5  6  1  0
  6  7  2  0
  7  8  1  0
  8  9  2  0
  9 10  1  0
 10 11  1  0
 11 12  1  0
 12 13  1  0
 13 14  1  0
 14 15  1  0
 15 16  1  0
 16 17  1  0
 17 18  1  0
 18 19  1  0
 18 20  1  0
 20 21  2  0
 20 22  1  0
 13 23  1  0
 23 24  1  0
 23 25  1  0
 25 26  1  0
  7  2  1  0
 25 11  1  0
 10  6  1  0
  1 27  1  0
  1 28  1  0
  4 29  1  0
  9 30  1  0
 11 31  1  1
 13 32  1  1
 14 33  1  0
 14 34  1  0
 16 35  1  0
 16 36  1  0
 17 37  1  0
 17 38  1  0
 18 39  1  6
 19 40  1  0
 19 41  1  0
 22 42  1  0
 23 43  1  6
 24 44  1  0
 25 45  1  6
 26 46  1  0
M  END
$$$$
