
     RDKit          3D

 55 57  0  0  0  0  0  0  0  0999 V2000
   -5.6477   -0.0644    3.5588 C   0  0  0  0  0  0  0  0  0  0  0  0
   -4.7575   -0.1441    2.4427 O   0  0  0  0  0  0  0  0  0  0  0  0
   -5.3756   -0.5491    1.2945 C   0  0  0  0  0  0  0  0  0  0  0  0
   -6.0211   -1.7918    1.2485 C   0  0  0  0  0  0  0  0  0  0  0  0
   -6.6091   -2.2376    0.0627 C   0  0  0  0  0  0  0  0  0  0  0  0
   -6.5461   -1.4451   -1.0805 C   0  0  0  0  0  0  0  0  0  0  0  0
   -7.2742   -1.9919   -2.5394 Cl  0  0  0  0  0  0  0  0  0  0  0  0
   -5.8914   -0.2159   -1.0535 C   0  0  0  0  0  0  0  0  0  0  0  0
   -5.2821    0.2231    0.1318 C   0  0  0  0  0  0  0  0  0  0  0  0
   -4.5031    1.8258    0.1276 S   0  0  0  0  0  6  0  0  0  0  0  0
   -4.9901    2.5264   -1.0469 O   0  0  0  0  0  0  0  0  0  0  0  0
   -4.6536    2.4265    1.4354 O   0  0  0  0  0  0  0  0  0  0  0  0
   -2.8668    1.4917   -0.1424 N   0  0  0  0  0  0  0  0  0  0  0  0
   -2.0877    0.9043    0.9813 C   0  0  0  0  0  0  0  0  0  0  0  0
   -0.6231    0.6907    0.5514 C   0  0  0  0  0  0  0  0  0  0  0  0
   -0.4788   -0.2843   -0.5567 N   0  0  0  0  0  0  0  0  0  0  0  0
    0.7634   -0.0608   -1.3212 C   0  0  0  0  0  0  0  0  0  0  0  0
    2.0467   -0.2891   -0.4915 C   0  0  0  0  0  0  0  0  0  0  0  0
    2.0548   -0.8456    0.6029 O   0  0  0  0  0  0  0  0  0  0  0  0
    3.1700    0.1822   -1.1678 N   0  0  0  0  0  0  0  0  0  0  0  0
    4.5081    0.1679   -0.7219 C   0  0  0  0  0  0  0  0  0  0  0  0
    4.9013   -0.2188    0.5631 C   0  0  0  0  0  0  0  0  0  0  0  0
    6.2522   -0.2035    0.9299 C   0  0  0  0  0  0  0  0  0  0  0  0
    7.2170    0.1908    0.0017 C   0  0  0  0  0  0  0  0  0  0  0  0
    8.9211    0.2264    0.4725 S   0  0  0  0  0  6  0  0  0  0  0  0
    9.3938   -1.3569    0.1793 N   0  0  0  0  0  0  0  0  0  0  0  0
    9.0164    0.4141    1.9006 O   0  0  0  0  0  0  0  0  0  0  0  0
    9.6578    1.0390   -0.4689 O   0  0  0  0  0  0  0  0  0  0  0  0
    6.8403    0.5955   -1.2807 C   0  0  0  0  0  0  0  0  0  0  0  0
    5.4882    0.5821   -1.6370 C   0  0  0  0  0  0  0  0  0  0  0  0
   -1.6708   -0.3009   -1.4261 C   0  0  0  0  0  0  0  0  0  0  0  0
   -2.4562    1.0216   -1.4916 C   0  0  0  0  0  0  0  0  0  0  0  0
   -5.7277   -1.0395    4.0515 H   0  0  0  0  0  0  0  0  0  0  0  0
   -6.6418    0.3058    3.2728 H   0  0  0  0  0  0  0  0  0  0  0  0
   -5.2212    0.6412    4.2795 H   0  0  0  0  0  0  0  0  0  0  0  0
   -6.0560   -2.4306    2.1281 H   0  0  0  0  0  0  0  0  0  0  0  0
   -7.1104   -3.2033    0.0387 H   0  0  0  0  0  0  0  0  0  0  0  0
   -5.8617    0.3973   -1.9519 H   0  0  0  0  0  0  0  0  0  0  0  0
   -2.5110   -0.0559    1.2876 H   0  0  0  0  0  0  0  0  0  0  0  0
   -2.1100    1.5897    1.8350 H   0  0  0  0  0  0  0  0  0  0  0  0
   -0.2103    1.6666    0.2595 H   0  0  0  0  0  0  0  0  0  0  0  0
   -0.0554    0.3405    1.4207 H   0  0  0  0  0  0  0  0  0  0  0  0
    0.7799    0.9507   -1.7459 H   0  0  0  0  0  0  0  0  0  0  0  0
    0.8170   -0.7788   -2.1491 H   0  0  0  0  0  0  0  0  0  0  0  0
    3.0234    0.5233   -2.1106 H   0  0  0  0  0  0  0  0  0  0  0  0
    4.1792   -0.5308    1.3123 H   0  0  0  0  0  0  0  0  0  0  0  0
    6.5367   -0.5012    1.9380 H   0  0  0  0  0  0  0  0  0  0  0  0
    9.6706   -1.8001    1.0543 H   0  0  0  0  0  0  0  0  0  0  0  0
   10.1176   -1.3770   -0.5398 H   0  0  0  0  0  0  0  0  0  0  0  0
    7.5859    0.9172   -2.0050 H   0  0  0  0  0  0  0  0  0  0  0  0
    5.2159    0.8930   -2.6441 H   0  0  0  0  0  0  0  0  0  0  0  0
   -1.4183   -0.6276   -2.4415 H   0  0  0  0  0  0  0  0  0  0  0  0
   -2.3423   -1.0753   -1.0327 H   0  0  0  0  0  0  0  0  0  0  0  0
   -3.3202    0.8830   -2.1482 H   0  0  0  0  0  0  0  0  0  0  0  0
   -1.8361    1.8035   -1.9454 H   0  0  0  0  0  0  0  0  0  0  0  0
  1  2  1  0
  2  3  1  0
  3  4  2  0
  4  5  1  0
  5  6  2  0
  6  7  1  0
  6  8  1  0
  8  9  2  0
  9 10  1  0
 10 11  2  0
 10 12  2  0
 10 13  1  0
 13 14  1  0
 14 15  1  0
 15 16  1  0
 16 17  1  0
 17 18  1  0
 18 19  2  0
 18 20  1  0
 20 21  1  0
 21 22  2  0
 22 23  1  0
 23 24  2  0
 24 25  1  0
 25 26  1  0
 25 27  2  0
 25 28  2  0
 24 29  1  0
 29 30  2  0
 16 31  1  0
 31 32  1  0
  9  3  1  0
 32 13  1  0
 30 21  1  0
  1 33  1  0
  1 34  1  0
  1 35  1  0
  4 36  1  0
  5 37  1  0
  8 38  1  0
 14 39  1  0
 14 40  1  0
 15 41  1  0
 15 42  1  0
 17 43  1  0
 17 44  1  0
 20 45  1  0
 22 46  1  0
 23 47  1  0
 26 48  1  0
 26 49  1  0
 29 50  1  0
 30 51  1  0
 31 52  1  0
 31 53  1  0
 32 54  1  0
 32 55  1  0
M  END
$$$$
