
     RDKit          3D

 53 56  0  0  0  0  0  0  0  0999 V2000
   -6.0286   -1.0692   -2.4828 C   0  0  0  0  0  0  0  0  0  0  0  0
   -4.7051   -0.9750   -1.7392 C   0  0  0  0  0  0  0  0  0  0  0  0
   -4.4528   -2.2222   -0.8893 C   0  0  0  0  0  0  0  0  0  0  0  0
   -3.1026   -2.2018   -0.1676 C   0  0  0  0  0  0  0  0  0  0  0  0
   -3.0603   -1.1973    0.9411 C   0  0  0  0  0  0  0  0  0  0  0  0
   -3.6356   -1.3760    2.1130 N   0  0  0  0  0  0  0  0  0  0  0  0
   -3.3774   -0.2493    2.8438 C   0  0  0  0  0  0  0  0  0  0  0  0
   -3.9421   -0.0672    4.4396 Cl  0  0  0  0  0  0  0  0  0  0  0  0
   -2.6174    0.6451    2.1192 C   0  0  0  0  0  0  0  0  0  0  0  0
   -2.0736    1.9642    2.5055 C   0  0  0  0  0  0  0  0  0  0  0  0
   -2.5791    2.9153    1.5818 O   0  0  0  0  0  0  0  0  0  0  0  0
   -2.4130    0.0233    0.8996 N   0  0  0  0  0  0  0  0  0  0  0  0
   -1.6875    0.5813   -0.2365 C   0  0  0  0  0  0  0  0  0  0  0  0
   -0.1924    0.6034   -0.0237 C   0  0  0  0  0  0  0  0  0  0  0  0
    0.5162   -0.5527    0.3321 C   0  0  0  0  0  0  0  0  0  0  0  0
    1.9049   -0.5168    0.4881 C   0  0  0  0  0  0  0  0  0  0  0  0
    2.6215    0.6699    0.2794 C   0  0  0  0  0  0  0  0  0  0  0  0
    4.0828    0.7060    0.4460 C   0  0  0  0  0  0  0  0  0  0  0  0
    4.5953    1.2784    1.6300 C   0  0  0  0  0  0  0  0  0  0  0  0
    5.9657    1.3149    1.8888 C   0  0  0  0  0  0  0  0  0  0  0  0
    6.8558    0.7751    0.9699 C   0  0  0  0  0  0  0  0  0  0  0  0
    6.3737    0.2065   -0.2096 C   0  0  0  0  0  0  0  0  0  0  0  0
    4.9929    0.1692   -0.4949 C   0  0  0  0  0  0  0  0  0  0  0  0
    4.5687   -0.4185   -1.7646 C   0  0  0  0  0  0  0  0  0  0  0  0
    3.4537   -0.0151   -2.4646 N   0  0  0  0  0  0  0  0  0  0  0  0
    3.4015   -0.7467   -3.5681 N   0  0  0  0  0  0  0  0  0  0  0  0
    4.4741   -1.5382   -3.4943 N   0  0  0  0  0  0  0  0  0  0  0  0
    5.2509   -1.3832   -2.4135 N   0  0  0  0  0  0  0  0  0  0  0  0
    1.9115    1.8243   -0.0782 C   0  0  0  0  0  0  0  0  0  0  0  0
    0.5230    1.7906   -0.2343 C   0  0  0  0  0  0  0  0  0  0  0  0
   -6.0409   -1.9333   -3.1546 H   0  0  0  0  0  0  0  0  0  0  0  0
   -6.1900   -0.1692   -3.0843 H   0  0  0  0  0  0  0  0  0  0  0  0
   -6.8653   -1.1650   -1.7834 H   0  0  0  0  0  0  0  0  0  0  0  0
   -4.7194   -0.0797   -1.1081 H   0  0  0  0  0  0  0  0  0  0  0  0
   -3.8948   -0.8505   -2.4665 H   0  0  0  0  0  0  0  0  0  0  0  0
   -5.2658   -2.3422   -0.1620 H   0  0  0  0  0  0  0  0  0  0  0  0
   -4.4795   -3.1050   -1.5405 H   0  0  0  0  0  0  0  0  0  0  0  0
   -2.2860   -2.0679   -0.8828 H   0  0  0  0  0  0  0  0  0  0  0  0
   -2.9411   -3.1909    0.2808 H   0  0  0  0  0  0  0  0  0  0  0  0
   -2.3937    2.2558    3.5103 H   0  0  0  0  0  0  0  0  0  0  0  0
   -0.9807    1.9755    2.4769 H   0  0  0  0  0  0  0  0  0  0  0  0
   -2.3874    3.7905    1.9590 H   0  0  0  0  0  0  0  0  0  0  0  0
   -1.9128    0.0038   -1.1363 H   0  0  0  0  0  0  0  0  0  0  0  0
   -2.0885    1.5836   -0.4163 H   0  0  0  0  0  0  0  0  0  0  0  0
   -0.0012   -1.4962    0.4926 H   0  0  0  0  0  0  0  0  0  0  0  0
    2.4293   -1.4282    0.7691 H   0  0  0  0  0  0  0  0  0  0  0  0
    3.9113    1.6915    2.3704 H   0  0  0  0  0  0  0  0  0  0  0  0
    6.3336    1.7578    2.8108 H   0  0  0  0  0  0  0  0  0  0  0  0
    7.9247    0.7949    1.1666 H   0  0  0  0  0  0  0  0  0  0  0  0
    7.0888   -0.2073   -0.9195 H   0  0  0  0  0  0  0  0  0  0  0  0
    4.6870   -2.2153   -4.2212 H   0  0  0  0  0  0  0  0  0  0  0  0
    2.4431    2.7571   -0.2558 H   0  0  0  0  0  0  0  0  0  0  0  0
    0.0048    2.7019   -0.5272 H   0  0  0  0  0  0  0  0  0  0  0  0
  1  2  1  0
  2  3  1  0
  3  4  1  0
  4  5  1  0
  5  6  2  0
  6  7  1  0
  7  8  1  0
  7  9  2  0
  9 10  1  0
 10 11  1  0
  9 12  1  0
 12 13  1  0
 13 14  1  0
 14 15  2  0
 15 16  1  0
 16 17  2  0
 17 18  1  0
 18 19  2  0
 19 20  1  0
 20 21  2  0
 21 22  1  0
 22 23  2  0
 23 24  1  0
 24 25  1  0
 25 26  2  0
 26 27  1  0
 27 28  1  0
 17 29  1  0
 29 30  2  0
 12  5  1  0
 30 14  1  0
 23 18  1  0
 28 24  2  0
  1 31  1  0
  1 32  1  0
  1 33  1  0
  2 34  1  0
  2 35  1  0
  3 36  1  0
  3 37  1  0
  4 38  1  0
  4 39  1  0
 10 40  1  0
 10 41  1  0
 11 42  1  0
 13 43  1  0
 13 44  1  0
 15 45  1  0
 16 46  1  0
 19 47  1  0
 20 48  1  0
 21 49  1  0
 22 50  1  0
 27 51  1  0
 29 52  1  0
 30 53  1  0
M  END
$$$$
