
     RDKit          3D

 50 54  0  0  0  0  0  0  0  0999 V2000
    6.8533   -2.0404   -1.1538 C   0  0  0  0  0  0  0  0  0  0  0  0
    5.5779   -1.9800   -0.7447 C   0  0  0  0  0  0  0  0  0  0  0  0
    4.4429   -1.4267   -1.5593 C   0  0  0  0  0  0  0  0  0  0  0  0
    3.8018   -0.2965   -0.8977 N   0  0  0  0  0  0  0  0  0  0  0  0
    4.1798    1.0324   -1.0148 C   0  0  0  0  0  0  0  0  0  0  0  0
    5.2273    1.6366   -1.7293 C   0  0  0  0  0  0  0  0  0  0  0  0
    5.3600    3.0266   -1.6527 C   0  0  0  0  0  0  0  0  0  0  0  0
    4.4832    3.7924   -0.8885 C   0  0  0  0  0  0  0  0  0  0  0  0
    3.4448    3.1853   -0.1759 C   0  0  0  0  0  0  0  0  0  0  0  0
    3.2873    1.7855   -0.2370 C   0  0  0  0  0  0  0  0  0  0  0  0
    2.3713    0.8722    0.3428 C   0  0  0  0  0  0  0  0  0  0  0  0
    1.3111    1.0591    1.1682 N   0  0  0  0  0  0  0  0  0  0  0  0
    0.6489   -0.0346    1.5392 N   0  0  0  0  0  0  0  0  0  0  0  0
    1.0322   -1.2627    1.0978 C   0  0  0  0  0  0  0  0  0  0  0  0
    0.0461   -2.6462    1.6178 S   0  0  0  0  0  0  0  0  0  0  0  0
   -1.1811   -2.6139    0.2750 C   0  0  0  0  0  0  0  0  0  0  0  0
   -2.5737   -2.1818    0.7321 C   0  0  0  0  0  0  0  0  0  0  0  0
   -2.6523   -0.7298    1.2111 C   0  0  0  0  0  0  0  0  0  0  0  0
   -4.0199   -0.3030    1.3783 N   0  0  0  0  0  0  0  0  0  0  0  0
   -4.8059   -0.5330    2.5274 C   0  0  0  0  0  0  0  0  0  0  0  0
   -4.4752   -1.0796    3.5665 O   0  0  0  0  0  0  0  0  0  0  0  0
   -6.0818   -0.0173    2.2467 N   0  0  0  0  0  0  0  0  0  0  0  0
   -6.0890    0.4916    0.9528 C   0  0  0  0  0  0  0  0  0  0  0  0
   -7.1228    1.0731    0.2554 C   0  0  0  0  0  0  0  0  0  0  0  0
   -6.8454    1.4886   -1.0509 C   0  0  0  0  0  0  0  0  0  0  0  0
   -5.5622    1.3122   -1.6131 C   0  0  0  0  0  0  0  0  0  0  0  0
   -4.5272    0.7163   -0.8817 C   0  0  0  0  0  0  0  0  0  0  0  0
   -4.8176    0.3143    0.4042 C   0  0  0  0  0  0  0  0  0  0  0  0
    2.0577   -1.5338    0.2623 N   0  0  0  0  0  0  0  0  0  0  0  0
    2.7055   -0.4030   -0.0792 C   0  0  0  0  0  0  0  0  0  0  0  0
    7.6219   -2.4605   -0.5092 H   0  0  0  0  0  0  0  0  0  0  0  0
    7.1633   -1.6751   -2.1288 H   0  0  0  0  0  0  0  0  0  0  0  0
    5.3219   -2.3664    0.2420 H   0  0  0  0  0  0  0  0  0  0  0  0
    4.7687   -1.0907   -2.5509 H   0  0  0  0  0  0  0  0  0  0  0  0
    3.6853   -2.2021   -1.7197 H   0  0  0  0  0  0  0  0  0  0  0  0
    5.9250    1.0533   -2.3234 H   0  0  0  0  0  0  0  0  0  0  0  0
    6.1649    3.5163   -2.1971 H   0  0  0  0  0  0  0  0  0  0  0  0
    4.6068    4.8718   -0.8409 H   0  0  0  0  0  0  0  0  0  0  0  0
    2.7651    3.7865    0.4240 H   0  0  0  0  0  0  0  0  0  0  0  0
   -1.2458   -3.6360   -0.1156 H   0  0  0  0  0  0  0  0  0  0  0  0
   -0.8424   -1.9843   -0.5561 H   0  0  0  0  0  0  0  0  0  0  0  0
   -3.2568   -2.3160   -0.1176 H   0  0  0  0  0  0  0  0  0  0  0  0
   -2.9422   -2.8536    1.5193 H   0  0  0  0  0  0  0  0  0  0  0  0
   -2.1475   -0.0534    0.5127 H   0  0  0  0  0  0  0  0  0  0  0  0
   -2.1594   -0.6337    2.1848 H   0  0  0  0  0  0  0  0  0  0  0  0
   -6.8510   -0.0552    2.8939 H   0  0  0  0  0  0  0  0  0  0  0  0
   -8.1056    1.2045    0.6912 H   0  0  0  0  0  0  0  0  0  0  0  0
   -7.6286    1.9563   -1.6447 H   0  0  0  0  0  0  0  0  0  0  0  0
   -5.3759    1.6471   -2.6321 H   0  0  0  0  0  0  0  0  0  0  0  0
   -3.5445    0.5871   -1.3184 H   0  0  0  0  0  0  0  0  0  0  0  0
  1  2  2  3
  2  3  1  0
  3  4  1  0
  4  5  1  0
  5  6  2  0
  6  7  1  0
  7  8  2  0
  8  9  1  0
  9 10  2  0
 10 11  1  0
 11 12  2  0
 12 13  1  0
 13 14  2  0
 14 15  1  0
 15 16  1  0
 16 17  1  0
 17 18  1  0
 18 19  1  0
 19 20  1  0
 20 21  2  0
 20 22  1  0
 22 23  1  0
 23 24  2  0
 24 25  1  0
 25 26  2  0
 26 27  1  0
 27 28  2  0
 14 29  1  0
 29 30  2  0
 30  4  1  0
 10  5  1  0
 30 11  1  0
 28 19  1  0
 28 23  1  0
  1 31  1  0
  1 32  1  0
  2 33  1  0
  3 34  1  0
  3 35  1  0
  6 36  1  0
  7 37  1  0
  8 38  1  0
  9 39  1  0
 16 40  1  0
 16 41  1  0
 17 42  1  0
 17 43  1  0
 18 44  1  0
 18 45  1  0
 22 46  1  0
 24 47  1  0
 25 48  1  0
 26 49  1  0
 27 50  1  0
M  END
$$$$
