
     RDKit          3D

 38 41  0  0  0  0  0  0  0  0999 V2000
   -2.0959    4.2046   -1.8518 N   0  0  0  0  0  0  0  0  0  0  0  0
   -1.8892    3.5563   -0.9114 C   0  0  0  0  0  0  0  0  0  0  0  0
   -1.6318    2.7622    0.2536 C   0  0  0  0  0  0  0  0  0  0  0  0
   -1.3713    3.3794    1.4815 C   0  0  0  0  0  0  0  0  0  0  0  0
   -1.1125    2.6040    2.6125 C   0  0  0  0  0  0  0  0  0  0  0  0
   -1.1100    1.2108    2.5182 C   0  0  0  0  0  0  0  0  0  0  0  0
   -1.3659    0.5830    1.2923 C   0  0  0  0  0  0  0  0  0  0  0  0
   -1.3561   -0.8661    1.1853 C   0  0  0  0  0  0  0  0  0  0  0  0
   -2.1224   -1.6675    2.0146 C   0  0  0  0  0  0  0  0  0  0  0  0
   -1.9598   -2.9665    1.6132 N   0  0  0  0  0  0  0  0  0  0  0  0
   -1.1154   -3.0173    0.5406 C   0  0  0  0  0  0  0  0  0  0  0  0
   -0.7893   -4.1483   -0.0986 N   0  0  0  0  0  0  0  0  0  0  0  0
    0.0338   -3.9033   -1.1269 C   0  0  0  0  0  0  0  0  0  0  0  0
    0.5417   -2.7199   -1.5179 N   0  0  0  0  0  0  0  0  0  0  0  0
    0.2254   -1.5930   -0.8248 C   0  0  0  0  0  0  0  0  0  0  0  0
    0.7904   -0.3681   -1.2027 N   0  0  0  0  0  0  0  0  0  0  0  0
    1.7141    0.1929   -0.1891 C   0  0  0  0  0  0  0  0  0  0  0  0
    3.1541    0.2572   -0.7244 C   0  0  0  0  0  0  0  0  0  0  0  0
    3.2801    1.0489   -1.9164 O   0  0  0  0  0  0  0  0  0  0  0  0
    2.1315    0.9578   -2.7785 C   0  0  0  0  0  0  0  0  0  0  0  0
    1.3248   -0.3347   -2.5795 C   0  0  0  0  0  0  0  0  0  0  0  0
   -0.6858   -1.7289    0.2515 C   0  0  0  0  0  0  0  0  0  0  0  0
   -1.6345    1.3665    0.1628 C   0  0  0  0  0  0  0  0  0  0  0  0
   -1.3672    4.4648    1.5640 H   0  0  0  0  0  0  0  0  0  0  0  0
   -0.9098    3.0840    3.5671 H   0  0  0  0  0  0  0  0  0  0  0  0
   -0.8974    0.6192    3.4062 H   0  0  0  0  0  0  0  0  0  0  0  0
   -2.7880   -1.4250    2.8331 H   0  0  0  0  0  0  0  0  0  0  0  0
   -2.4081   -3.7790    2.0113 H   0  0  0  0  0  0  0  0  0  0  0  0
    0.3325   -4.7648   -1.7161 H   0  0  0  0  0  0  0  0  0  0  0  0
    1.3819    1.2139    0.0308 H   0  0  0  0  0  0  0  0  0  0  0  0
    1.7062   -0.3692    0.7525 H   0  0  0  0  0  0  0  0  0  0  0  0
    3.5325   -0.7484   -0.9426 H   0  0  0  0  0  0  0  0  0  0  0  0
    3.8148    0.6967    0.0297 H   0  0  0  0  0  0  0  0  0  0  0  0
    2.4903    1.0269   -3.8102 H   0  0  0  0  0  0  0  0  0  0  0  0
    1.5040    1.8361   -2.5869 H   0  0  0  0  0  0  0  0  0  0  0  0
    0.4964   -0.3659   -3.2962 H   0  0  0  0  0  0  0  0  0  0  0  0
    1.9901   -1.1858   -2.7731 H   0  0  0  0  0  0  0  0  0  0  0  0
   -1.8340    0.8866   -0.7947 H   0  0  0  0  0  0  0  0  0  0  0  0
  1  2  3  0
  2  3  1  0
  3  4  2  0
  4  5  1  0
  5  6  2  0
  6  7  1  0
  7  8  1  0
  8  9  2  0
  9 10  1  0
 10 11  1  0
 11 12  2  0
 12 13  1  0
 13 14  2  0
 14 15  1  0
 15 16  1  0
 16 17  1  0
 17 18  1  0
 18 19  1  0
 19 20  1  0
 20 21  1  0
 15 22  2  0
  7 23  2  0
 23  3  1  0
 22  8  1  0
 22 11  1  0
 21 16  1  0
  4 24  1  0
  5 25  1  0
  6 26  1  0
  9 27  1  0
 10 28  1  0
 13 29  1  0
 17 30  1  0
 17 31  1  0
 18 32  1  0
 18 33  1  0
 20 34  1  0
 20 35  1  0
 21 36  1  0
 21 37  1  0
 23 38  1  0
M  END
$$$$
