
     RDKit          3D

 37 39  0  0  0  0  0  0  0  0999 V2000
    4.2073    2.8152   -1.0965 C   0  0  0  0  0  0  0  0  0  0  0  0
    3.6813    1.4561   -1.3764 C   0  0  0  0  0  0  0  0  0  0  0  0
    3.3634    0.9287   -2.6147 C   0  0  0  0  0  0  0  0  0  0  0  0
    2.7968   -0.6805   -2.4370 S   0  0  0  0  0  0  0  0  0  0  0  0
    3.0094   -0.5444   -0.7491 C   0  0  0  0  0  0  0  0  0  0  0  0
    2.6639   -1.6683   -0.0554 N   0  0  0  0  0  0  0  0  0  0  0  0
    2.6140   -1.7077    1.3178 C   0  0  0  0  0  0  0  0  0  0  0  0
    2.9104   -0.7973    2.0892 O   0  0  0  0  0  0  0  0  0  0  0  0
    2.2099   -3.0576    1.8956 C   0  0  0  0  0  0  0  0  0  0  0  0
    0.9481   -3.9529    0.9361 S   0  0  0  0  0  0  0  0  0  0  0  0
   -0.2885   -2.6877    0.8101 C   0  0  0  0  0  0  0  0  0  0  0  0
   -0.9743   -2.2018    1.9067 C   0  0  0  0  0  0  0  0  0  0  0  0
   -1.8918   -1.1687    1.7171 C   0  0  0  0  0  0  0  0  0  0  0  0
   -2.0950   -0.6567    0.4399 C   0  0  0  0  0  0  0  0  0  0  0  0
   -3.0392    0.4340    0.1349 C   0  0  0  0  0  0  0  0  0  0  0  0
   -3.7113    0.4783   -1.1013 C   0  0  0  0  0  0  0  0  0  0  0  0
   -4.6158    1.5004   -1.4051 C   0  0  0  0  0  0  0  0  0  0  0  0
   -4.8646    2.5077   -0.4784 C   0  0  0  0  0  0  0  0  0  0  0  0
   -4.2061    2.4960    0.7475 C   0  0  0  0  0  0  0  0  0  0  0  0
   -3.3027    1.4712    1.0494 C   0  0  0  0  0  0  0  0  0  0  0  0
   -1.4135   -1.1757   -0.6082 N   0  0  0  0  0  0  0  0  0  0  0  0
   -0.5056   -2.1932   -0.4233 N   0  0  0  0  0  0  0  0  0  0  0  0
    3.4831    0.5923   -0.3119 N   0  0  0  0  0  0  0  0  0  0  0  0
    5.2938    2.7794   -0.9706 H   0  0  0  0  0  0  0  0  0  0  0  0
    3.7657    3.2170   -0.1790 H   0  0  0  0  0  0  0  0  0  0  0  0
    3.9764    3.5052   -1.9141 H   0  0  0  0  0  0  0  0  0  0  0  0
    3.4325    1.3973   -3.5856 H   0  0  0  0  0  0  0  0  0  0  0  0
    2.2652   -2.4229   -0.5991 H   0  0  0  0  0  0  0  0  0  0  0  0
    3.1073   -3.6810    1.9594 H   0  0  0  0  0  0  0  0  0  0  0  0
    1.8309   -2.9052    2.9116 H   0  0  0  0  0  0  0  0  0  0  0  0
   -0.8098   -2.6052    2.8998 H   0  0  0  0  0  0  0  0  0  0  0  0
   -2.4444   -0.7848    2.5686 H   0  0  0  0  0  0  0  0  0  0  0  0
   -3.5338   -0.2977   -1.8453 H   0  0  0  0  0  0  0  0  0  0  0  0
   -5.1214    1.5070   -2.3674 H   0  0  0  0  0  0  0  0  0  0  0  0
   -5.5646    3.3048   -0.7145 H   0  0  0  0  0  0  0  0  0  0  0  0
   -4.3881    3.2887    1.4689 H   0  0  0  0  0  0  0  0  0  0  0  0
   -2.7888    1.5101    2.0077 H   0  0  0  0  0  0  0  0  0  0  0  0
  1  2  1  0
  2  3  2  0
  3  4  1  0
  4  5  1  0
  5  6  1  0
  6  7  1  0
  7  8  2  0
  7  9  1  0
  9 10  1  0
 10 11  1  0
 11 12  2  0
 12 13  1  0
 13 14  2  0
 14 15  1  0
 15 16  2  0
 16 17  1  0
 17 18  2  0
 18 19  1  0
 19 20  2  0
 14 21  1  0
 21 22  2  0
  5 23  2  0
 23  2  1  0
 22 11  1  0
 20 15  1  0
  1 24  1  0
  1 25  1  0
  1 26  1  0
  3 27  1  0
  6 28  1  0
  9 29  1  0
  9 30  1  0
 12 31  1  0
 13 32  1  0
 16 33  1  0
 17 34  1  0
 18 35  1  0
 19 36  1  0
 20 37  1  0
M  END
$$$$
