
     RDKit          3D

 28 30  0  0  0  0  0  0  0  0999 V2000
    2.5064    2.3062    0.9675 O   0  0  0  0  0  0  0  0  0  0  0  0
    2.2537    1.1472    0.6462 C   0  0  0  0  0  0  0  0  0  0  0  0
    3.3132    0.1157    0.7816 C   0  0  0  0  0  0  0  0  0  0  0  0
    3.0809   -1.1404    0.3880 C   0  0  0  0  0  0  0  0  0  0  0  0
    1.8024   -1.5101   -0.1569 C   0  0  0  0  0  0  0  0  0  0  0  0
    0.8072   -0.6109   -0.2625 C   0  0  0  0  0  0  0  0  0  0  0  0
    1.0221    0.7127    0.1428 N   0  0  0  0  0  0  0  0  0  0  0  0
    0.0149    1.7548   -0.0748 C   0  0  0  0  0  0  0  0  0  0  0  0
   -1.3872    1.2370   -0.4133 C   0  0  2  0  0  0  0  0  0  0  0  0
   -2.0710    0.6827    0.8592 C   0  0  0  0  0  0  0  0  0  0  0  0
   -2.5613   -0.6899    0.7097 N   0  0  0  0  0  0  0  0  0  0  0  0
   -1.4686   -1.5860    0.2965 C   0  0  0  0  0  0  0  0  0  0  0  0
   -0.5504   -1.0199   -0.8212 C   0  0  1  0  0  0  0  0  0  0  0  0
   -1.2285    0.1697   -1.4968 C   0  0  0  0  0  0  0  0  0  0  0  0
    4.2586    0.4391    1.1958 H   0  0  0  0  0  0  0  0  0  0  0  0
    3.8473   -1.9031    0.4760 H   0  0  0  0  0  0  0  0  0  0  0  0
    1.6684   -2.5434   -0.4629 H   0  0  0  0  0  0  0  0  0  0  0  0
    0.3844    2.3723   -0.9046 H   0  0  0  0  0  0  0  0  0  0  0  0
   -0.0198    2.4104    0.8045 H   0  0  0  0  0  0  0  0  0  0  0  0
   -1.9886    2.0656   -0.8068 H   0  0  0  0  0  0  0  0  0  0  0  0
   -2.9260    1.3234    1.1063 H   0  0  0  0  0  0  0  0  0  0  0  0
   -1.4100    0.7320    1.7335 H   0  0  0  0  0  0  0  0  0  0  0  0
   -3.2946   -0.7049    0.0008 H   0  0  0  0  0  0  0  0  0  0  0  0
   -0.8894   -1.8730    1.1829 H   0  0  0  0  0  0  0  0  0  0  0  0
   -1.9300   -2.5131   -0.0659 H   0  0  0  0  0  0  0  0  0  0  0  0
   -0.4046   -1.8026   -1.5777 H   0  0  0  0  0  0  0  0  0  0  0  0
   -2.2018   -0.1170   -1.9134 H   0  0  0  0  0  0  0  0  0  0  0  0
   -0.6277    0.5456   -2.3347 H   0  0  0  0  0  0  0  0  0  0  0  0
  1  2  2  0
  2  3  1  0
  3  4  2  0
  4  5  1  0
  5  6  2  0
  6  7  1  0
  7  8  1  0
  8  9  1  0
  9 10  1  0
 10 11  1  0
 11 12  1  0
 12 13  1  0
 13 14  1  0
  7  2  1  0
 14  9  1  0
 13  6  1  0
  3 15  1  0
  4 16  1  0
  5 17  1  0
  8 18  1  0
  8 19  1  0
  9 20  1  6
 10 21  1  0
 10 22  1  0
 11 23  1  0
 12 24  1  0
 12 25  1  0
 13 26  1  6
 14 27  1  0
 14 28  1  0
M  END
$$$$
