
     RDKit          3D

 31 32  0  0  0  0  0  0  0  0999 V2000
   -0.5844   -1.4523   -0.2523 O   0  0  0  0  0  0  0  0  0  0  0  0
   -0.5948   -0.2302   -0.1866 C   0  0  0  0  0  0  0  0  0  0  0  0
    0.5343    0.5575   -0.0509 N   0  0  0  0  0  0  0  0  0  0  0  0
    1.8811    0.1515    0.0378 C   0  0  0  0  0  0  0  0  0  0  0  0
    2.3121   -1.1754    0.0009 C   0  0  0  0  0  0  0  0  0  0  0  0
    3.6760   -1.4775    0.0966 C   0  0  0  0  0  0  0  0  0  0  0  0
    4.6107   -0.4421    0.2299 C   0  0  0  0  0  0  0  0  0  0  0  0
    6.0403   -0.7604    0.3301 N   0  0  0  0  0  4  0  0  0  0  0  0
    6.8312    0.1870    0.4468 O   0  0  0  0  0  0  0  0  0  0  0  0
    6.3721   -1.9531    0.2924 O   0  0  0  0  0  1  0  0  0  0  0  0
    4.1970    0.8953    0.2688 C   0  0  0  0  0  0  0  0  0  0  0  0
    2.8360    1.1751    0.1721 C   0  0  0  0  0  0  0  0  0  0  0  0
    2.3885    2.4734    0.2061 O   0  0  0  0  0  0  0  0  0  0  0  0
   -1.7310    0.5590   -0.2371 N   0  0  0  0  0  0  0  0  0  0  0  0
   -3.0810    0.1561   -0.3700 C   0  0  0  0  0  0  0  0  0  0  0  0
   -3.4764   -1.1803   -0.4752 C   0  0  0  0  0  0  0  0  0  0  0  0
   -4.8286   -1.5179   -0.6048 C   0  0  0  0  0  0  0  0  0  0  0  0
   -5.8040   -0.5247   -0.6310 C   0  0  0  0  0  0  0  0  0  0  0  0
   -5.4305    0.8127   -0.5276 C   0  0  0  0  0  0  0  0  0  0  0  0
   -4.0792    1.1494   -0.3981 C   0  0  0  0  0  0  0  0  0  0  0  0
   -3.6415    2.9979   -0.2616 Br  0  0  0  0  0  0  0  0  0  0  0  0
    0.4166    1.5617   -0.0058 H   0  0  0  0  0  0  0  0  0  0  0  0
    1.6121   -1.9996   -0.1016 H   0  0  0  0  0  0  0  0  0  0  0  0
    3.9851   -2.5209    0.0651 H   0  0  0  0  0  0  0  0  0  0  0  0
    4.9207    1.6986    0.3721 H   0  0  0  0  0  0  0  0  0  0  0  0
    3.1525    3.0689    0.3014 H   0  0  0  0  0  0  0  0  0  0  0  0
   -1.5946    1.5576   -0.1716 H   0  0  0  0  0  0  0  0  0  0  0  0
   -2.7564   -1.9926   -0.4602 H   0  0  0  0  0  0  0  0  0  0  0  0
   -5.1148   -2.5643   -0.6853 H   0  0  0  0  0  0  0  0  0  0  0  0
   -6.8525   -0.7935   -0.7319 H   0  0  0  0  0  0  0  0  0  0  0  0
   -6.1965    1.5834   -0.5486 H   0  0  0  0  0  0  0  0  0  0  0  0
  1  2  2  0
  2  3  1  0
  3  4  1  0
  4  5  2  0
  5  6  1  0
  6  7  2  0
  7  8  1  0
  8  9  2  0
  8 10  1  0
  7 11  1  0
 11 12  2  0
 12 13  1  0
  2 14  1  0
 14 15  1  0
 15 16  2  0
 16 17  1  0
 17 18  2  0
 18 19  1  0
 19 20  2  0
 20 21  1  0
 12  4  1  0
 20 15  1  0
  3 22  1  0
  5 23  1  0
  6 24  1  0
 11 25  1  0
 13 26  1  0
 14 27  1  0
 16 28  1  0
 17 29  1  0
 18 30  1  0
 19 31  1  0
M  CHG  2   8   1  10  -1
M  END
$$$$
