
     RDKit          3D

 48 49  0  0  0  0  0  0  0  0999 V2000
    6.7320   -0.3758    0.6267 C   0  0  0  0  0  0  0  0  0  0  0  0
    6.3974   -0.1854   -0.7779 N   0  0  0  0  0  0  0  0  0  0  0  0
    6.1711    1.2170   -1.1013 C   0  0  0  0  0  0  0  0  0  0  0  0
    5.3609   -1.0933   -1.2775 C   0  0  0  0  0  0  0  0  0  0  0  0
    4.0869   -1.3263   -0.4513 C   0  0  0  0  0  0  0  0  0  0  0  0
    3.1972   -0.1016   -0.3012 C   0  0  0  0  0  0  0  0  0  0  0  0
    1.9143   -0.4524    0.2786 N   0  0  0  0  0  0  0  0  0  0  0  0
    0.8492    0.4186    0.2138 C   0  0  0  0  0  0  0  0  0  0  0  0
    0.8545    1.4500   -0.4501 O   0  0  0  0  0  0  0  0  0  0  0  0
   -0.3780    0.0434    0.9613 C   0  0  0  0  0  0  0  0  0  0  0  0
   -1.5970    0.3159    0.3160 C   0  0  0  0  0  0  0  0  0  0  0  0
   -2.8103    0.0248    0.9416 C   0  0  0  0  0  0  0  0  0  0  0  0
   -4.0737    0.2298    0.2841 N   0  0  0  0  0  0  0  0  0  0  0  0
   -4.2900    1.5695   -0.3234 C   0  0  0  0  0  0  0  0  0  0  0  0
   -5.7839    1.7942   -0.5534 C   0  0  0  0  0  0  0  0  0  0  0  0
   -6.3888    0.7719   -1.5158 C   0  0  0  0  0  0  0  0  0  0  0  0
   -6.2414   -0.6535   -1.0042 C   0  0  0  0  0  0  0  0  0  0  0  0
   -4.5317   -1.0783   -0.7283 S   0  0  0  0  0  6  0  0  0  0  0  0
   -3.8140   -0.9556   -1.9799 O   0  0  0  0  0  0  0  0  0  0  0  0
   -4.4924   -2.3029    0.0433 O   0  0  0  0  0  0  0  0  0  0  0  0
   -2.8121   -0.5791    2.1982 C   0  0  0  0  0  0  0  0  0  0  0  0
   -1.6066   -0.8455    2.8503 C   0  0  0  0  0  0  0  0  0  0  0  0
   -0.3875   -0.5283    2.2405 C   0  0  0  0  0  0  0  0  0  0  0  0
    1.0461   -0.8450    3.1526 Cl  0  0  0  0  0  0  0  0  0  0  0  0
    6.9556   -1.4283    0.8336 H   0  0  0  0  0  0  0  0  0  0  0  0
    5.9283   -0.0524    1.2966 H   0  0  0  0  0  0  0  0  0  0  0  0
    7.6338    0.1907    0.8849 H   0  0  0  0  0  0  0  0  0  0  0  0
    7.0710    1.8041   -0.8851 H   0  0  0  0  0  0  0  0  0  0  0  0
    5.3448    1.6596   -0.5400 H   0  0  0  0  0  0  0  0  0  0  0  0
    5.9704    1.3449   -2.1707 H   0  0  0  0  0  0  0  0  0  0  0  0
    5.0789   -0.8061   -2.2990 H   0  0  0  0  0  0  0  0  0  0  0  0
    5.8404   -2.0749   -1.3937 H   0  0  0  0  0  0  0  0  0  0  0  0
    4.3371   -1.7292    0.5378 H   0  0  0  0  0  0  0  0  0  0  0  0
    3.5122   -2.1187   -0.9499 H   0  0  0  0  0  0  0  0  0  0  0  0
    3.6479    0.6323    0.3728 H   0  0  0  0  0  0  0  0  0  0  0  0
    3.0269    0.3798   -1.2704 H   0  0  0  0  0  0  0  0  0  0  0  0
    1.8975   -1.1735    0.9904 H   0  0  0  0  0  0  0  0  0  0  0  0
   -1.5844    0.7406   -0.6860 H   0  0  0  0  0  0  0  0  0  0  0  0
   -3.7325    1.6717   -1.2613 H   0  0  0  0  0  0  0  0  0  0  0  0
   -3.9255    2.3438    0.3628 H   0  0  0  0  0  0  0  0  0  0  0  0
   -5.9363    2.8011   -0.9587 H   0  0  0  0  0  0  0  0  0  0  0  0
   -6.3163    1.7501    0.4050 H   0  0  0  0  0  0  0  0  0  0  0  0
   -5.9078    0.8686   -2.4967 H   0  0  0  0  0  0  0  0  0  0  0  0
   -7.4522    0.9952   -1.6583 H   0  0  0  0  0  0  0  0  0  0  0  0
   -6.6381   -1.3692   -1.7307 H   0  0  0  0  0  0  0  0  0  0  0  0
   -6.7718   -0.7924   -0.0565 H   0  0  0  0  0  0  0  0  0  0  0  0
   -3.7531   -0.8473    2.6729 H   0  0  0  0  0  0  0  0  0  0  0  0
   -1.6285   -1.3029    3.8371 H   0  0  0  0  0  0  0  0  0  0  0  0
  1  2  1  0
  2  3  1  0
  2  4  1  0
  4  5  1  0
  5  6  1  0
  6  7  1  0
  7  8  1  0
  8  9  2  0
  8 10  1  0
 10 11  2  0
 11 12  1  0
 12 13  1  0
 13 14  1  0
 14 15  1  0
 15 16  1  0
 16 17  1  0
 17 18  1  0
 18 19  2  0
 18 20  2  0
 12 21  2  0
 21 22  1  0
 22 23  2  0
 23 24  1  0
 23 10  1  0
 18 13  1  0
  1 25  1  0
  1 26  1  0
  1 27  1  0
  3 28  1  0
  3 29  1  0
  3 30  1  0
  4 31  1  0
  4 32  1  0
  5 33  1  0
  5 34  1  0
  6 35  1  0
  6 36  1  0
  7 37  1  0
 11 38  1  0
 14 39  1  0
 14 40  1  0
 15 41  1  0
 15 42  1  0
 16 43  1  0
 16 44  1  0
 17 45  1  0
 17 46  1  0
 21 47  1  0
 22 48  1  0
M  END
$$$$
