
     RDKit          3D

114119  0  0  0  0  0  0  0  0999 V2000
   -6.1608    3.1010   -0.2880 C   0  0  0  0  0  0  0  0  0  0  0  0
   -5.9924    2.1213    0.8627 C   0  0  0  0  0  0  0  0  0  0  0  0
   -5.0771    0.9434    0.4915 C   0  0  2  0  0  0  0  0  0  0  0  0
   -5.7705    0.1087   -0.5034 N   0  0  0  0  0  0  0  0  0  0  0  0
   -5.1105   -0.6066   -1.4782 C   0  0  0  0  0  0  0  0  0  0  0  0
   -3.9064   -0.4700   -1.7110 O   0  0  0  0  0  0  0  0  0  0  0  0
   -6.0407   -1.5411   -2.3049 C   0  0  2  0  0  0  0  0  0  0  0  0
   -6.7671   -2.5590   -1.4305 C   0  0  0  0  0  0  0  0  0  0  0  0
   -5.3029   -2.1546   -3.4360 N   0  0  0  0  0  0  0  0  0  0  0  0
   -4.4674   -3.2795   -3.0563 C   0  0  0  0  0  0  0  0  0  0  0  0
   -4.8019    0.0463    1.7261 C   0  0  0  0  0  0  0  0  0  0  0  0
   -5.4622   -0.9933    1.8782 O   0  0  0  0  0  0  0  0  0  0  0  0
   -3.8965    0.4432    2.6979 N   0  0  0  0  0  0  0  0  0  0  0  0
   -3.7242   -0.3952    3.8836 C   0  0  0  0  0  0  0  0  0  0  0  0
   -2.8822    0.4286    4.8632 C   0  0  1  0  0  0  0  0  0  0  0  0
   -1.4969    0.1020    4.7960 O   0  0  0  0  0  0  0  0  0  0  0  0
   -3.0696    1.8552    4.3630 C   0  0  0  0  0  0  0  0  0  0  0  0
   -3.1344    1.6956    2.8360 C   0  0  1  0  0  0  0  0  0  0  0  0
   -1.7110    1.6323    2.2352 C   0  0  0  0  0  0  0  0  0  0  0  0
   -1.6242    2.0401    0.7929 C   0  0  0  0  0  0  0  0  0  0  0  0
   -1.1683    1.2574   -0.2571 C   0  0  0  0  0  0  0  0  0  0  0  0
   -0.6135   -0.0598   -0.2892 C   0  0  0  0  0  0  0  0  0  0  0  0
   -1.2420   -1.0558   -1.0015 N   0  0  0  0  0  0  0  0  0  0  0  0
   -0.5367   -2.2279   -0.9261 C   0  0  0  0  0  0  0  0  0  0  0  0
   -0.7725   -3.4754   -1.5167 C   0  0  0  0  0  0  0  0  0  0  0  0
    0.1047   -4.5115   -1.2046 C   0  0  0  0  0  0  0  0  0  0  0  0
   -0.0954   -5.7193   -1.7547 F   0  0  0  0  0  0  0  0  0  0  0  0
    1.1686   -4.3276   -0.3384 C   0  0  0  0  0  0  0  0  0  0  0  0
    1.3957   -3.0748    0.2398 C   0  0  0  0  0  0  0  0  0  0  0  0
    0.5392   -1.9952   -0.0725 C   0  0  0  0  0  0  0  0  0  0  0  0
    0.5014   -0.6131    0.3236 C   0  0  0  0  0  0  0  0  0  0  0  0
    1.4887    0.0383    1.2584 C   0  0  0  0  0  0  0  0  0  0  0  0
    2.6829    0.7890    0.6252 C   0  0  2  0  0  0  0  0  0  0  0  0
    2.2920    2.1425    0.0119 C   0  0  0  0  0  0  0  0  0  0  0  0
    2.8196    2.1397   -1.4171 C   0  0  2  0  0  0  0  0  0  0  0  0
    1.8367    2.6118   -2.3269 O   0  0  0  0  0  0  0  0  0  0  0  0
    3.2070    0.6958   -1.7119 C   0  0  0  0  0  0  0  0  0  0  0  0
    3.4128    0.0732   -0.4133 N   0  0  0  0  0  0  0  0  0  0  0  0
    4.2648   -0.9563   -0.0853 C   0  0  0  0  0  0  0  0  0  0  0  0
    4.3152   -1.4113    1.0697 O   0  0  0  0  0  0  0  0  0  0  0  0
    5.2063   -1.5377   -1.1657 C   0  0  2  0  0  0  0  0  0  0  0  0
    4.6606   -2.8206   -1.7925 C   0  0  0  0  0  0  0  0  0  0  0  0
    3.6312   -2.5748   -2.8867 C   0  0  0  0  0  0  0  0  0  0  0  0
    6.4440   -1.8556   -0.4359 N   0  0  0  0  0  0  0  0  0  0  0  0
    7.3947   -0.8660   -0.2570 C   0  0  0  0  0  0  0  0  0  0  0  0
    7.3755    0.2018   -0.8795 O   0  0  0  0  0  0  0  0  0  0  0  0
    8.4606   -1.2024    0.8161 C   0  0  2  0  0  0  0  0  0  0  0  0
    7.8583   -0.9631    2.1983 C   0  0  0  0  0  0  0  0  0  0  0  0
    9.6543   -0.3383    0.6563 N   0  0  0  0  0  0  0  0  0  0  0  0
   10.4857   -0.7883   -0.4534 C   0  0  0  0  0  0  0  0  0  0  0  0
   -1.3082    1.9850   -1.4129 N   0  0  0  0  0  0  0  0  0  0  0  0
   -1.7546    3.2568   -1.1390 C   0  0  0  0  0  0  0  0  0  0  0  0
   -2.0172    4.3325   -1.9985 C   0  0  0  0  0  0  0  0  0  0  0  0
   -2.4508    5.5190   -1.4130 C   0  0  0  0  0  0  0  0  0  0  0  0
   -2.7051    6.5723   -2.2028 F   0  0  0  0  0  0  0  0  0  0  0  0
   -2.6284    5.6396   -0.0435 C   0  0  0  0  0  0  0  0  0  0  0  0
   -2.3707    4.5536    0.7989 C   0  0  0  0  0  0  0  0  0  0  0  0
   -1.9467    3.3305    0.2399 C   0  0  0  0  0  0  0  0  0  0  0  0
   -6.6661    2.6243   -1.1302 H   0  0  0  0  0  0  0  0  0  0  0  0
   -6.7607    3.9551    0.0328 H   0  0  0  0  0  0  0  0  0  0  0  0
   -5.1926    3.4725   -0.6246 H   0  0  0  0  0  0  0  0  0  0  0  0
   -6.9815    1.7493    1.1625 H   0  0  0  0  0  0  0  0  0  0  0  0
   -5.6131    2.6627    1.7287 H   0  0  0  0  0  0  0  0  0  0  0  0
   -4.1307    1.2826    0.0794 H   0  0  0  0  0  0  0  0  0  0  0  0
   -6.6312   -0.3005   -0.1581 H   0  0  0  0  0  0  0  0  0  0  0  0
   -6.7964   -0.8812   -2.7522 H   0  0  0  0  0  0  0  0  0  0  0  0
   -7.2986   -3.2882   -2.0485 H   0  0  0  0  0  0  0  0  0  0  0  0
   -7.5291   -2.0842   -0.8018 H   0  0  0  0  0  0  0  0  0  0  0  0
   -6.0805   -3.0901   -0.7644 H   0  0  0  0  0  0  0  0  0  0  0  0
   -4.7045   -1.4240   -3.8246 H   0  0  0  0  0  0  0  0  0  0  0  0
   -3.7758   -3.0253   -2.2523 H   0  0  0  0  0  0  0  0  0  0  0  0
   -3.8693   -3.5895   -3.9152 H   0  0  0  0  0  0  0  0  0  0  0  0
   -5.0684   -4.1421   -2.7590 H   0  0  0  0  0  0  0  0  0  0  0  0
   -4.7124   -0.6282    4.2972 H   0  0  0  0  0  0  0  0  0  0  0  0
   -3.2254   -1.3216    3.5775 H   0  0  0  0  0  0  0  0  0  0  0  0
   -3.2038    0.2952    5.8967 H   0  0  0  0  0  0  0  0  0  0  0  0
   -1.4087   -0.8545    4.9756 H   0  0  0  0  0  0  0  0  0  0  0  0
   -4.0288    2.2397    4.7254 H   0  0  0  0  0  0  0  0  0  0  0  0
   -2.2761    2.5323    4.6865 H   0  0  0  0  0  0  0  0  0  0  0  0
   -3.6918    2.5278    2.4059 H   0  0  0  0  0  0  0  0  0  0  0  0
   -1.0480    2.3096    2.7838 H   0  0  0  0  0  0  0  0  0  0  0  0
   -1.3052    0.6213    2.3596 H   0  0  0  0  0  0  0  0  0  0  0  0
   -2.1310   -0.9461   -1.4774 H   0  0  0  0  0  0  0  0  0  0  0  0
   -1.6059   -3.6481   -2.1807 H   0  0  0  0  0  0  0  0  0  0  0  0
    1.8229   -5.1653   -0.1152 H   0  0  0  0  0  0  0  0  0  0  0  0
    2.2344   -2.9440    0.9179 H   0  0  0  0  0  0  0  0  0  0  0  0
    0.9577    0.7381    1.9143 H   0  0  0  0  0  0  0  0  0  0  0  0
    1.8827   -0.7412    1.9255 H   0  0  0  0  0  0  0  0  0  0  0  0
    3.3862    0.9872    1.4473 H   0  0  0  0  0  0  0  0  0  0  0  0
    2.7850    2.9513    0.5739 H   0  0  0  0  0  0  0  0  0  0  0  0
    1.2237    2.3558    0.0761 H   0  0  0  0  0  0  0  0  0  0  0  0
    3.6963    2.7884   -1.5014 H   0  0  0  0  0  0  0  0  0  0  0  0
    1.5661    3.4969   -2.0168 H   0  0  0  0  0  0  0  0  0  0  0  0
    2.4006    0.1558   -2.2215 H   0  0  0  0  0  0  0  0  0  0  0  0
    4.0985    0.6534   -2.3405 H   0  0  0  0  0  0  0  0  0  0  0  0
    5.4504   -0.8089   -1.9386 H   0  0  0  0  0  0  0  0  0  0  0  0
    4.2230   -3.4789   -1.0313 H   0  0  0  0  0  0  0  0  0  0  0  0
    5.4920   -3.3816   -2.2419 H   0  0  0  0  0  0  0  0  0  0  0  0
    4.0208   -1.8935   -3.6479 H   0  0  0  0  0  0  0  0  0  0  0  0
    2.7057   -2.1553   -2.4856 H   0  0  0  0  0  0  0  0  0  0  0  0
    3.3656   -3.5152   -3.3847 H   0  0  0  0  0  0  0  0  0  0  0  0
    6.3010   -2.4676    0.3654 H   0  0  0  0  0  0  0  0  0  0  0  0
    8.7406   -2.2597    0.7271 H   0  0  0  0  0  0  0  0  0  0  0  0
    8.6150   -1.0600    2.9806 H   0  0  0  0  0  0  0  0  0  0  0  0
    7.4154    0.0333    2.2727 H   0  0  0  0  0  0  0  0  0  0  0  0
    7.0696   -1.6954    2.4107 H   0  0  0  0  0  0  0  0  0  0  0  0
    9.3087    0.6025    0.4345 H   0  0  0  0  0  0  0  0  0  0  0  0
    9.9384   -0.8284   -1.3964 H   0  0  0  0  0  0  0  0  0  0  0  0
   10.9171   -1.7701   -0.2389 H   0  0  0  0  0  0  0  0  0  0  0  0
   11.3147   -0.0891   -0.5780 H   0  0  0  0  0  0  0  0  0  0  0  0
   -1.0502    1.6568   -2.3342 H   0  0  0  0  0  0  0  0  0  0  0  0
   -1.8784    4.2552   -3.0682 H   0  0  0  0  0  0  0  0  0  0  0  0
   -2.9540    6.5873    0.3627 H   0  0  0  0  0  0  0  0  0  0  0  0
   -2.5055    4.6613    1.8682 H   0  0  0  0  0  0  0  0  0  0  0  0
  1  2  1  0
  2  3  1  0
  3  4  1  0
  4  5  1  0
  5  6  2  0
  5  7  1  0
  7  8  1  0
  7  9  1  0
  9 10  1  0
  3 11  1  0
 11 12  2  0
 11 13  1  0
 13 14  1  0
 14 15  1  0
 15 16  1  0
 15 17  1  0
 17 18  1  0
 18 19  1  0
 19 20  1  0
 20 21  2  0
 21 22  1  0
 22 23  1  0
 23 24  1  0
 24 25  2  0
 25 26  1  0
 26 27  1  0
 26 28  2  0
 28 29  1  0
 29 30  2  0
 30 31  1  0
 31 32  1  0
 32 33  1  0
 33 34  1  0
 34 35  1  0
 35 36  1  0
 35 37  1  0
 37 38  1  0
 38 39  1  0
 39 40  2  0
 39 41  1  0
 41 42  1  0
 42 43  1  0
 41 44  1  0
 44 45  1  0
 45 46  2  0
 45 47  1  0
 47 48  1  0
 47 49  1  0
 49 50  1  0
 21 51  1  0
 51 52  1  0
 52 53  2  0
 53 54  1  0
 54 55  1  0
 54 56  2  0
 56 57  1  0
 57 58  2  0
 18 13  1  0
 58 20  1  0
 31 22  2  0
 38 33  1  0
 58 52  1  0
 30 24  1  0
  1 59  1  0
  1 60  1  0
  1 61  1  0
  2 62  1  0
  2 63  1  0
  3 64  1  6
  4 65  1  0
  7 66  1  6
  8 67  1  0
  8 68  1  0
  8 69  1  0
  9 70  1  0
 10 71  1  0
 10 72  1  0
 10 73  1  0
 14 74  1  0
 14 75  1  0
 15 76  1  1
 16 77  1  0
 17 78  1  0
 17 79  1  0
 18 80  1  6
 19 81  1  0
 19 82  1  0
 23 83  1  0
 25 84  1  0
 28 85  1  0
 29 86  1  0
 32 87  1  0
 32 88  1  0
 33 89  1  1
 34 90  1  0
 34 91  1  0
 35 92  1  1
 36 93  1  0
 37 94  1  0
 37 95  1  0
 41 96  1  6
 42 97  1  0
 42 98  1  0
 43 99  1  0
 43100  1  0
 43101  1  0
 44102  1  0
 47103  1  1
 48104  1  0
 48105  1  0
 48106  1  0
 49107  1  0
 50108  1  0
 50109  1  0
 50110  1  0
 51111  1  0
 53112  1  0
 56113  1  0
 57114  1  0
M  END
$$$$
