
     RDKit          3D

 43 46  0  0  0  0  0  0  0  0999 V2000
   -0.5305   -3.1003   -0.1655 C   0  0  0  0  0  0  0  0  0  0  0  0
   -1.5060   -1.9671   -0.3013 C   0  0  0  0  0  0  0  0  0  0  0  0
   -1.2425   -0.6619   -0.1030 C   0  0  0  0  0  0  0  0  0  0  0  0
    0.1365   -0.1665    0.1421 C   0  0  0  0  0  0  0  0  0  0  0  0
    0.4149    0.3904    1.1933 O   0  0  0  0  0  0  0  0  0  0  0  0
    0.9605   -0.3732   -0.9475 N   0  0  0  0  0  0  0  0  0  0  0  0
    2.3329   -0.0627   -1.0550 C   0  0  0  0  0  0  0  0  0  0  0  0
    2.9462   -0.3250   -2.2897 C   0  0  0  0  0  0  0  0  0  0  0  0
    4.3062   -0.0707   -2.5113 C   0  0  0  0  0  0  0  0  0  0  0  0
    5.0315    0.4542   -1.4408 C   0  0  0  0  0  0  0  0  0  0  0  0
    6.3502    0.8049   -1.3139 N   0  0  0  0  0  0  0  0  0  0  0  0
    6.6781    1.2839   -0.1009 N   0  0  0  0  0  0  0  0  0  0  0  0
    5.5250    1.2364    0.5723 C   0  0  0  0  0  0  0  0  0  0  0  0
    4.4601    0.7275   -0.2047 C   0  0  0  0  0  0  0  0  0  0  0  0
    3.0909    0.4675   -0.0022 C   0  0  0  0  0  0  0  0  0  0  0  0
   -2.3161    0.3861   -0.1505 C   0  0  0  0  0  0  0  0  0  0  0  0
   -2.7145    0.9404    1.2107 C   0  0  0  0  0  0  0  0  0  0  0  0
   -3.4218    0.1655    2.1487 C   0  0  0  0  0  0  0  0  0  0  0  0
   -3.7783    0.6989    3.3891 C   0  0  0  0  0  0  0  0  0  0  0  0
   -3.4251    2.0045    3.7015 C   0  0  0  0  0  0  0  0  0  0  0  0
   -3.7694    2.5159    4.8905 F   0  0  0  0  0  0  0  0  0  0  0  0
   -2.7195    2.7879    2.7983 C   0  0  0  0  0  0  0  0  0  0  0  0
   -2.3635    2.2584    1.5567 C   0  0  0  0  0  0  0  0  0  0  0  0
   -3.4838   -0.1238   -0.8502 N   0  0  0  0  0  0  0  0  0  0  0  0
   -3.7944   -1.4434   -0.9414 C   0  0  0  0  0  0  0  0  0  0  0  0
   -4.9037   -1.8231   -1.2968 O   0  0  0  0  0  0  0  0  0  0  0  0
   -2.7899   -2.3212   -0.6479 N   0  0  0  0  0  0  0  0  0  0  0  0
   -0.2738   -3.4963   -1.1530 H   0  0  0  0  0  0  0  0  0  0  0  0
    0.3956   -2.8059    0.3364 H   0  0  0  0  0  0  0  0  0  0  0  0
   -0.9673   -3.9116    0.4265 H   0  0  0  0  0  0  0  0  0  0  0  0
    0.5362   -0.7887   -1.7677 H   0  0  0  0  0  0  0  0  0  0  0  0
    2.3675   -0.7362   -3.1145 H   0  0  0  0  0  0  0  0  0  0  0  0
    4.7670   -0.2757   -3.4717 H   0  0  0  0  0  0  0  0  0  0  0  0
    7.0777    0.7386   -2.0155 H   0  0  0  0  0  0  0  0  0  0  0  0
    5.5027    1.5706    1.6024 H   0  0  0  0  0  0  0  0  0  0  0  0
    2.6633    0.6798    0.9710 H   0  0  0  0  0  0  0  0  0  0  0  0
   -1.9708    1.2156   -0.7818 H   0  0  0  0  0  0  0  0  0  0  0  0
   -3.7014   -0.8607    1.9213 H   0  0  0  0  0  0  0  0  0  0  0  0
   -4.3259    0.1034    4.1122 H   0  0  0  0  0  0  0  0  0  0  0  0
   -2.4443    3.8026    3.0684 H   0  0  0  0  0  0  0  0  0  0  0  0
   -1.7965    2.8794    0.8664 H   0  0  0  0  0  0  0  0  0  0  0  0
   -4.2686    0.4981   -0.9883 H   0  0  0  0  0  0  0  0  0  0  0  0
   -3.0358   -3.2967   -0.7733 H   0  0  0  0  0  0  0  0  0  0  0  0
  1  2  1  0
  2  3  2  0
  3  4  1  0
  4  5  2  0
  4  6  1  0
  6  7  1  0
  7  8  2  0
  8  9  1  0
  9 10  2  0
 10 11  1  0
 11 12  1  0
 12 13  2  0
 13 14  1  0
 14 15  2  0
  3 16  1  0
 16 17  1  0
 17 18  2  0
 18 19  1  0
 19 20  2  0
 20 21  1  0
 20 22  1  0
 22 23  2  0
 16 24  1  0
 24 25  1  0
 25 26  2  0
 25 27  1  0
 27  2  1  0
 15  7  1  0
 23 17  1  0
 14 10  1  0
  1 28  1  0
  1 29  1  0
  1 30  1  0
  6 31  1  0
  8 32  1  0
  9 33  1  0
 11 34  1  0
 13 35  1  0
 15 36  1  0
 16 37  1  0
 18 38  1  0
 19 39  1  0
 22 40  1  0
 23 41  1  0
 24 42  1  0
 27 43  1  0
M  END
$$$$
