
     RDKit          3D

 65 70  0  0  0  0  0  0  0  0999 V2000
   -2.6375    1.3792    1.7662 C   0  0  0  0  0  0  0  0  0  0  0  0
   -1.9999    0.1222    1.1664 C   0  0  1  0  0  0  0  0  0  0  0  0
   -3.0404   -0.9352    0.6876 C   0  0  0  0  0  0  0  0  0  0  0  0
   -2.3545   -2.1820    0.0889 C   0  0  0  0  0  0  0  0  0  0  0  0
   -3.3655   -3.2366   -0.3561 C   0  0  0  0  0  0  0  0  0  0  0  0
   -4.2907   -3.6423    0.7836 C   0  0  0  0  0  0  0  0  0  0  0  0
   -4.9856   -2.4282    1.3859 C   0  0  0  0  0  0  0  0  0  0  0  0
   -3.9826   -1.3664    1.8323 C   0  0  0  0  0  0  0  0  0  0  0  0
   -0.9767    0.4659    0.1706 N   0  0  0  0  0  0  0  0  0  0  0  0
   -1.1434    1.0553   -1.0745 C   0  0  0  0  0  0  0  0  0  0  0  0
   -2.3947    1.5301   -1.6641 C   0  0  0  0  0  0  0  0  0  0  0  0
   -3.1418    0.6359   -2.4509 C   0  0  0  0  0  0  0  0  0  0  0  0
   -4.3072    1.0884   -3.0295 C   0  0  0  0  0  0  0  0  0  0  0  0
   -4.7334    2.3850   -2.8775 C   0  0  0  0  0  0  0  0  0  0  0  0
   -4.0164    3.3053   -2.1457 C   0  0  0  0  0  0  0  0  0  0  0  0
   -2.8266    2.8744   -1.5446 C   0  0  0  0  0  0  0  0  0  0  0  0
   -1.8198    4.1792   -0.5914 Br  0  0  0  0  0  0  0  0  0  0  0  0
   -5.8994    2.6274   -3.5333 O   0  0  0  0  0  0  0  0  0  0  0  0
   -6.1412    1.3428   -4.1445 C   0  0  0  0  0  0  0  0  0  0  0  0
   -5.1524    0.3500   -3.7964 O   0  0  0  0  0  0  0  0  0  0  0  0
    0.0103    1.1240   -1.7111 N   0  0  0  0  0  0  0  0  0  0  0  0
    0.9557    0.6352   -0.8575 C   0  0  0  0  0  0  0  0  0  0  0  0
    2.3382    0.5157   -1.0511 C   0  0  0  0  0  0  0  0  0  0  0  0
    3.1170    0.0130   -0.0020 C   0  0  0  0  0  0  0  0  0  0  0  0
    4.5850   -0.0938   -0.2041 C   0  0  0  0  0  0  0  0  0  0  0  0
    4.9960   -0.5336   -1.2697 O   0  0  0  0  0  0  0  0  0  0  0  0
    5.3398    0.3625    0.8616 N   0  0  0  0  0  0  0  0  0  0  0  0
    6.7448    0.3649    0.9721 C   0  0  0  0  0  0  0  0  0  0  0  0
    7.6027   -0.2005    0.0264 C   0  0  0  0  0  0  0  0  0  0  0  0
    8.9910   -0.1602    0.2095 C   0  0  0  0  0  0  0  0  0  0  0  0
    9.5347    0.4468    1.3434 C   0  0  0  0  0  0  0  0  0  0  0  0
   10.9551    0.4855    1.5338 C   0  0  0  0  0  0  0  0  0  0  0  0
   12.1026    0.5151    1.7036 N   0  0  0  0  0  0  0  0  0  0  0  0
    8.6827    1.0125    2.2947 C   0  0  0  0  0  0  0  0  0  0  0  0
    7.2963    0.9690    2.1099 C   0  0  0  0  0  0  0  0  0  0  0  0
    2.5268   -0.3961    1.2006 C   0  0  0  0  0  0  0  0  0  0  0  0
    1.1433   -0.2972    1.3945 C   0  0  0  0  0  0  0  0  0  0  0  0
    0.3805    0.2305    0.3420 C   0  0  0  0  0  0  0  0  0  0  0  0
   -1.8844    2.1478    1.9689 H   0  0  0  0  0  0  0  0  0  0  0  0
   -3.3964    1.8043    1.1035 H   0  0  0  0  0  0  0  0  0  0  0  0
   -3.1260    1.1542    2.7205 H   0  0  0  0  0  0  0  0  0  0  0  0
   -1.4559   -0.3475    1.9939 H   0  0  0  0  0  0  0  0  0  0  0  0
   -3.6715   -0.4882   -0.0867 H   0  0  0  0  0  0  0  0  0  0  0  0
   -1.7426   -1.9108   -0.7777 H   0  0  0  0  0  0  0  0  0  0  0  0
   -1.6759   -2.6217    0.8311 H   0  0  0  0  0  0  0  0  0  0  0  0
   -2.8358   -4.1195   -0.7318 H   0  0  0  0  0  0  0  0  0  0  0  0
   -3.9597   -2.8414   -1.1899 H   0  0  0  0  0  0  0  0  0  0  0  0
   -3.7110   -4.1551    1.5617 H   0  0  0  0  0  0  0  0  0  0  0  0
   -5.0388   -4.3550    0.4194 H   0  0  0  0  0  0  0  0  0  0  0  0
   -5.6705   -1.9944    0.6466 H   0  0  0  0  0  0  0  0  0  0  0  0
   -5.5958   -2.7404    2.2414 H   0  0  0  0  0  0  0  0  0  0  0  0
   -4.5438   -0.5074    2.2124 H   0  0  0  0  0  0  0  0  0  0  0  0
   -3.3914   -1.7587    2.6686 H   0  0  0  0  0  0  0  0  0  0  0  0
   -2.8118   -0.3858   -2.6108 H   0  0  0  0  0  0  0  0  0  0  0  0
   -4.3658    4.3276   -2.0597 H   0  0  0  0  0  0  0  0  0  0  0  0
   -7.1267    0.9833   -3.8260 H   0  0  0  0  0  0  0  0  0  0  0  0
   -6.1471    1.4672   -5.2339 H   0  0  0  0  0  0  0  0  0  0  0  0
    2.7844    0.8207   -1.9920 H   0  0  0  0  0  0  0  0  0  0  0  0
    4.8347    0.8101    1.6160 H   0  0  0  0  0  0  0  0  0  0  0  0
    7.2243   -0.6843   -0.8693 H   0  0  0  0  0  0  0  0  0  0  0  0
    9.6370   -0.6076   -0.5443 H   0  0  0  0  0  0  0  0  0  0  0  0
    9.0891    1.4937    3.1831 H   0  0  0  0  0  0  0  0  0  0  0  0
    6.6580    1.4193    2.8664 H   0  0  0  0  0  0  0  0  0  0  0  0
    3.1350   -0.8269    1.9933 H   0  0  0  0  0  0  0  0  0  0  0  0
    0.6960   -0.6272    2.3259 H   0  0  0  0  0  0  0  0  0  0  0  0
  1  2  1  0
  2  3  1  0
  3  4  1  0
  4  5  1  0
  5  6  1  0
  6  7  1  0
  7  8  1  0
  2  9  1  0
  9 10  1  0
 10 11  1  0
 11 12  2  0
 12 13  1  0
 13 14  2  0
 14 15  1  0
 15 16  2  0
 16 17  1  0
 14 18  1  0
 18 19  1  0
 19 20  1  0
 10 21  2  0
 21 22  1  0
 22 23  2  0
 23 24  1  0
 24 25  1  0
 25 26  2  0
 25 27  1  0
 27 28  1  0
 28 29  2  0
 29 30  1  0
 30 31  2  0
 31 32  1  0
 32 33  3  0
 31 34  1  0
 34 35  2  0
 24 36  2  0
 36 37  1  0
 37 38  2  0
  8  3  1  0
 38  9  1  0
 16 11  1  0
 38 22  1  0
 20 13  1  0
 35 28  1  0
  1 39  1  0
  1 40  1  0
  1 41  1  0
  2 42  1  1
  3 43  1  0
  4 44  1  0
  4 45  1  0
  5 46  1  0
  5 47  1  0
  6 48  1  0
  6 49  1  0
  7 50  1  0
  7 51  1  0
  8 52  1  0
  8 53  1  0
 12 54  1  0
 15 55  1  0
 19 56  1  0
 19 57  1  0
 23 58  1  0
 27 59  1  0
 29 60  1  0
 30 61  1  0
 34 62  1  0
 35 63  1  0
 36 64  1  0
 37 65  1  0
M  END
$$$$
