
     RDKit          3D

 42 45  0  0  0  0  0  0  0  0999 V2000
   -5.3694    3.2355   -0.2066 O   0  0  0  0  0  0  0  0  0  0  0  0
   -5.0839    2.0872    0.0768 C   0  0  0  0  0  0  0  0  0  0  0  0
   -6.0388    1.2677    0.5643 O   0  0  0  0  0  0  0  0  0  0  0  0
   -3.7646    1.4400   -0.0377 C   0  0  0  0  0  0  0  0  0  0  0  0
   -3.4980    0.2907    0.6044 C   0  0  0  0  0  0  0  0  0  0  0  0
   -2.3002   -0.4018    0.5862 N   0  0  0  0  0  0  0  0  0  0  0  0
   -2.1877   -1.6263    1.4019 C   0  0  0  0  0  0  0  0  0  0  0  0
   -3.2269   -2.7219    1.3597 C   0  0  0  0  0  0  0  0  0  0  0  0
   -1.8704   -2.9637    0.7785 C   0  0  0  0  0  0  0  0  0  0  0  0
   -1.1691    0.1861   -0.0452 C   0  0  0  0  0  0  0  0  0  0  0  0
    0.1175   -0.3788    0.0159 C   0  0  0  0  0  0  0  0  0  0  0  0
    1.2325    0.1959   -0.6298 C   0  0  0  0  0  0  0  0  0  0  0  0
    2.4745   -0.4515   -0.5072 N   0  0  0  0  0  0  0  0  0  0  0  0
    3.0168   -0.3992    0.8732 C   0  0  0  0  0  0  0  0  0  0  0  0
    4.5298   -0.7129    0.9032 C   0  0  0  0  0  0  0  0  0  0  0  0
    5.3658    0.1817    0.0808 N   0  0  0  0  0  0  0  0  0  0  0  0
    4.6347    0.6515   -1.1170 C   0  0  0  0  0  0  0  0  0  0  0  0
    3.4886   -0.2765   -1.5721 C   0  0  0  0  0  0  0  0  0  0  0  0
    1.0123    1.3843   -1.3464 C   0  0  0  0  0  0  0  0  0  0  0  0
    2.0262    2.0196   -1.9538 F   0  0  0  0  0  0  0  0  0  0  0  0
   -0.2446    1.9754   -1.4192 C   0  0  0  0  0  0  0  0  0  0  0  0
   -1.3275    1.3802   -0.7677 C   0  0  0  0  0  0  0  0  0  0  0  0
   -2.6611    2.0304   -0.8373 C   0  0  0  0  0  0  0  0  0  0  0  0
   -2.8139    3.0196   -1.5448 O   0  0  0  0  0  0  0  0  0  0  0  0
   -6.8379    1.8374    0.5611 H   0  0  0  0  0  0  0  0  0  0  0  0
   -4.2577   -0.1887    1.2168 H   0  0  0  0  0  0  0  0  0  0  0  0
   -1.7486   -1.4203    2.3761 H   0  0  0  0  0  0  0  0  0  0  0  0
   -4.0551   -2.6384    0.6658 H   0  0  0  0  0  0  0  0  0  0  0  0
   -3.4774   -3.2160    2.2911 H   0  0  0  0  0  0  0  0  0  0  0  0
   -1.7877   -3.0216   -0.3010 H   0  0  0  0  0  0  0  0  0  0  0  0
   -1.1967   -3.6238    1.3117 H   0  0  0  0  0  0  0  0  0  0  0  0
    0.2742   -1.3073    0.5576 H   0  0  0  0  0  0  0  0  0  0  0  0
    2.4947   -1.1300    1.5018 H   0  0  0  0  0  0  0  0  0  0  0  0
    2.8585    0.5964    1.3100 H   0  0  0  0  0  0  0  0  0  0  0  0
    4.6892   -1.7411    0.5551 H   0  0  0  0  0  0  0  0  0  0  0  0
    4.8901   -0.6782    1.9376 H   0  0  0  0  0  0  0  0  0  0  0  0
    5.6328    0.9998    0.6276 H   0  0  0  0  0  0  0  0  0  0  0  0
    4.2283    1.6467   -0.9008 H   0  0  0  0  0  0  0  0  0  0  0  0
    5.3556    0.7702   -1.9327 H   0  0  0  0  0  0  0  0  0  0  0  0
    3.9053   -1.2674   -1.7965 H   0  0  0  0  0  0  0  0  0  0  0  0
    3.0540    0.0682   -2.5167 H   0  0  0  0  0  0  0  0  0  0  0  0
   -0.3646    2.9010   -1.9757 H   0  0  0  0  0  0  0  0  0  0  0  0
  1  2  2  0
  2  3  1  0
  2  4  1  0
  4  5  2  0
  5  6  1  0
  6  7  1  0
  7  8  1  0
  8  9  1  0
  6 10  1  0
 10 11  2  0
 11 12  1  0
 12 13  1  0
 13 14  1  0
 14 15  1  0
 15 16  1  0
 16 17  1  0
 17 18  1  0
 12 19  2  0
 19 20  1  0
 19 21  1  0
 21 22  2  0
 22 23  1  0
 23 24  2  0
 23  4  1  0
  9  7  1  0
 22 10  1  0
 18 13  1  0
  3 25  1  0
  5 26  1  0
  7 27  1  0
  8 28  1  0
  8 29  1  0
  9 30  1  0
  9 31  1  0
 11 32  1  0
 14 33  1  0
 14 34  1  0
 15 35  1  0
 15 36  1  0
 16 37  1  0
 17 38  1  0
 17 39  1  0
 18 40  1  0
 18 41  1  0
 21 42  1  0
M  END
$$$$
