
     RDKit          3D

 65 69  0  0  0  0  0  0  0  0999 V2000
    8.5187    1.5120    2.8957 C   0  0  0  0  0  0  0  0  0  0  0  0
    8.7478    0.6537    1.7857 O   0  0  0  0  0  0  0  0  0  0  0  0
    7.6793    0.4046    0.9687 C   0  0  0  0  0  0  0  0  0  0  0  0
    7.9267   -0.5100   -0.0564 C   0  0  0  0  0  0  0  0  0  0  0  0
    6.9216   -0.8549   -0.9642 C   0  0  0  0  0  0  0  0  0  0  0  0
    5.6470   -0.2840   -0.8634 C   0  0  0  0  0  0  0  0  0  0  0  0
    4.5656   -0.6443   -1.8574 C   0  0  0  0  0  0  0  0  0  0  0  0
    3.3789   -1.4260   -1.2533 C   0  0  0  0  0  0  0  0  0  0  0  0
    2.3944   -0.6121   -0.5085 N   0  0  0  0  0  0  0  0  0  0  0  0
    1.7387    0.3848   -1.3716 C   0  0  0  0  0  0  0  0  0  0  0  0
    0.3657    0.7954   -0.8511 C   0  0  0  0  0  0  0  0  0  0  0  0
   -0.5851   -0.4088   -0.8571 C   0  0  0  0  0  0  0  0  0  0  0  0
   -1.6838   -0.1409    0.0753 N   0  0  0  0  0  0  0  0  0  0  0  0
   -2.8754   -0.7503   -0.1229 C   0  0  0  0  0  0  0  0  0  0  0  0
   -3.1973   -1.5305   -1.1300 N   0  0  0  0  0  0  0  0  0  0  0  0
   -4.4924   -1.9171   -0.9120 C   0  0  0  0  0  0  0  0  0  0  0  0
   -5.3108   -2.7590   -1.6796 C   0  0  0  0  0  0  0  0  0  0  0  0
   -6.6184   -3.0067   -1.2464 C   0  0  0  0  0  0  0  0  0  0  0  0
   -7.1022   -2.4258   -0.0735 C   0  0  0  0  0  0  0  0  0  0  0  0
   -6.2990   -1.5844    0.7055 C   0  0  0  0  0  0  0  0  0  0  0  0
   -4.9925   -1.3533    0.2564 C   0  0  0  0  0  0  0  0  0  0  0  0
   -3.9404   -0.6032    0.7417 N   0  0  0  0  0  0  0  0  0  0  0  0
   -3.9705    0.1713    1.9713 C   0  0  0  0  0  0  0  0  0  0  0  0
   -4.6319    1.5189    1.7950 C   0  0  0  0  0  0  0  0  0  0  0  0
   -5.7880    1.8396    2.5274 C   0  0  0  0  0  0  0  0  0  0  0  0
   -6.3900    3.0913    2.3883 C   0  0  0  0  0  0  0  0  0  0  0  0
   -5.8366    4.0271    1.5224 C   0  0  0  0  0  0  0  0  0  0  0  0
   -6.4114    5.2295    1.3965 F   0  0  0  0  0  0  0  0  0  0  0  0
   -4.6902    3.7360    0.7939 C   0  0  0  0  0  0  0  0  0  0  0  0
   -4.0867    2.4850    0.9306 C   0  0  0  0  0  0  0  0  0  0  0  0
    0.1386   -1.7162   -0.5039 C   0  0  0  0  0  0  0  0  0  0  0  0
    1.4455   -1.4531    0.2382 C   0  0  0  0  0  0  0  0  0  0  0  0
    5.4073    0.6382    0.1624 C   0  0  0  0  0  0  0  0  0  0  0  0
    6.4136    0.9788    1.0743 C   0  0  0  0  0  0  0  0  0  0  0  0
    8.2442    2.5191    2.5672 H   0  0  0  0  0  0  0  0  0  0  0  0
    7.7593    1.0955    3.5666 H   0  0  0  0  0  0  0  0  0  0  0  0
    9.4540    1.5886    3.4591 H   0  0  0  0  0  0  0  0  0  0  0  0
    8.9125   -0.9591   -0.1493 H   0  0  0  0  0  0  0  0  0  0  0  0
    7.1475   -1.5706   -1.7508 H   0  0  0  0  0  0  0  0  0  0  0  0
    4.2367    0.2642   -2.3758 H   0  0  0  0  0  0  0  0  0  0  0  0
    5.0058   -1.2741   -2.6423 H   0  0  0  0  0  0  0  0  0  0  0  0
    3.7918   -2.2003   -0.5920 H   0  0  0  0  0  0  0  0  0  0  0  0
    2.8621   -1.9543   -2.0669 H   0  0  0  0  0  0  0  0  0  0  0  0
    1.6178    0.0059   -2.3963 H   0  0  0  0  0  0  0  0  0  0  0  0
    2.3726    1.2778   -1.4286 H   0  0  0  0  0  0  0  0  0  0  0  0
   -0.0507    1.5936   -1.4775 H   0  0  0  0  0  0  0  0  0  0  0  0
    0.4660    1.2223    0.1560 H   0  0  0  0  0  0  0  0  0  0  0  0
   -0.9851   -0.5057   -1.8760 H   0  0  0  0  0  0  0  0  0  0  0  0
   -1.3875    0.1396    1.0033 H   0  0  0  0  0  0  0  0  0  0  0  0
   -4.9270   -3.2036   -2.5908 H   0  0  0  0  0  0  0  0  0  0  0  0
   -7.2623   -3.6565   -1.8341 H   0  0  0  0  0  0  0  0  0  0  0  0
   -8.1244   -2.6282    0.2399 H   0  0  0  0  0  0  0  0  0  0  0  0
   -6.6867   -1.1328    1.6116 H   0  0  0  0  0  0  0  0  0  0  0  0
   -2.9526    0.3034    2.3494 H   0  0  0  0  0  0  0  0  0  0  0  0
   -4.4964   -0.4343    2.7191 H   0  0  0  0  0  0  0  0  0  0  0  0
   -6.2293    1.1178    3.2116 H   0  0  0  0  0  0  0  0  0  0  0  0
   -7.2814    3.3457    2.9517 H   0  0  0  0  0  0  0  0  0  0  0  0
   -4.2708    4.4836    0.1265 H   0  0  0  0  0  0  0  0  0  0  0  0
   -3.1881    2.2708    0.3535 H   0  0  0  0  0  0  0  0  0  0  0  0
   -0.4965   -2.3807    0.0945 H   0  0  0  0  0  0  0  0  0  0  0  0
    0.3635   -2.2607   -1.4304 H   0  0  0  0  0  0  0  0  0  0  0  0
    1.2166   -0.9430    1.1832 H   0  0  0  0  0  0  0  0  0  0  0  0
    1.9016   -2.4057    0.5348 H   0  0  0  0  0  0  0  0  0  0  0  0
    4.4275    1.0994    0.2634 H   0  0  0  0  0  0  0  0  0  0  0  0
    6.1722    1.6967    1.8503 H   0  0  0  0  0  0  0  0  0  0  0  0
  1  2  1  0
  2  3  1  0
  3  4  2  0
  4  5  1  0
  5  6  2  0
  6  7  1  0
  7  8  1  0
  8  9  1  0
  9 10  1  0
 10 11  1  0
 11 12  1  0
 12 13  1  0
 13 14  1  0
 14 15  2  0
 15 16  1  0
 16 17  2  0
 17 18  1  0
 18 19  2  0
 19 20  1  0
 20 21  2  0
 21 22  1  0
 22 23  1  0
 23 24  1  0
 24 25  2  0
 25 26  1  0
 26 27  2  0
 27 28  1  0
 27 29  1  0
 29 30  2  0
 12 31  1  0
 31 32  1  0
  6 33  1  0
 33 34  2  0
 34  3  1  0
 32  9  1  0
 22 14  1  0
 30 24  1  0
 21 16  1  0
  1 35  1  0
  1 36  1  0
  1 37  1  0
  4 38  1  0
  5 39  1  0
  7 40  1  0
  7 41  1  0
  8 42  1  0
  8 43  1  0
 10 44  1  0
 10 45  1  0
 11 46  1  0
 11 47  1  0
 12 48  1  0
 13 49  1  0
 17 50  1  0
 18 51  1  0
 19 52  1  0
 20 53  1  0
 23 54  1  0
 23 55  1  0
 25 56  1  0
 26 57  1  0
 29 58  1  0
 30 59  1  0
 31 60  1  0
 31 61  1  0
 32 62  1  0
 32 63  1  0
 33 64  1  0
 34 65  1  0
M  END
$$$$
