
     RDKit          3D

 43 46  0  0  0  0  0  0  0  0999 V2000
    0.9209    0.8613   -2.9394 N   0  0  0  0  0  0  0  0  0  0  0  0
    1.2845    0.0969   -2.1405 C   0  0  0  0  0  0  0  0  0  0  0  0
    1.7904   -0.9073   -1.1807 C   0  0  0  0  0  0  0  0  0  0  0  0
    0.8329   -1.1403   -0.0143 C   0  0  0  0  0  0  0  0  0  0  0  0
    1.2671   -1.5227    1.2433 C   0  0  0  0  0  0  0  0  0  0  0  0
    0.2912   -1.7770    2.1775 C   0  0  0  0  0  0  0  0  0  0  0  0
   -1.0242   -1.6954    1.9191 N   0  0  0  0  0  0  0  0  0  0  0  0
   -1.3742   -1.3480    0.6768 C   0  0  0  0  0  0  0  0  0  0  0  0
   -2.7102   -1.2480    0.3124 N   0  0  0  0  0  0  0  0  0  0  0  0
   -3.5908   -0.7854    1.3771 C   0  0  0  0  0  0  0  0  0  0  0  0
   -5.0371   -0.6720    0.8710 C   0  0  0  0  0  0  0  0  0  0  0  0
   -5.2333    0.4433   -0.1211 C   0  0  0  0  0  0  0  0  0  0  0  0
   -5.2800    0.1984   -1.4959 C   0  0  0  0  0  0  0  0  0  0  0  0
   -5.4324    1.2605   -2.3824 C   0  0  0  0  0  0  0  0  0  0  0  0
   -5.5357    2.5380   -1.8619 C   0  0  0  0  0  0  0  0  0  0  0  0
   -5.4993    2.8146   -0.5409 N   0  0  0  0  0  0  0  0  0  0  0  0
   -5.3468    1.7647    0.2967 C   0  0  0  0  0  0  0  0  0  0  0  0
   -0.4926   -1.0823   -0.2965 N   0  0  0  0  0  0  0  0  0  0  0  0
    3.1935   -0.4934   -0.7899 C   0  0  0  0  0  0  0  0  0  0  0  0
    3.4983    0.3670    0.1621 N   0  0  0  0  0  0  0  0  0  0  0  0
    4.8717    0.5202    0.2523 C   0  0  0  0  0  0  0  0  0  0  0  0
    5.5489    1.3634    1.1543 C   0  0  0  0  0  0  0  0  0  0  0  0
    6.9447    1.4214    1.1361 C   0  0  0  0  0  0  0  0  0  0  0  0
    7.6694    0.6503    0.2327 C   0  0  0  0  0  0  0  0  0  0  0  0
    7.0217   -0.1992   -0.6702 C   0  0  0  0  0  0  0  0  0  0  0  0
    5.6191   -0.2476   -0.6416 C   0  0  0  0  0  0  0  0  0  0  0  0
    4.5471   -1.1764   -1.6127 S   0  0  0  0  0  0  0  0  0  0  0  0
    1.8425   -1.8740   -1.7015 H   0  0  0  0  0  0  0  0  0  0  0  0
    2.3109   -1.6204    1.5098 H   0  0  0  0  0  0  0  0  0  0  0  0
    0.5470   -2.0702    3.1922 H   0  0  0  0  0  0  0  0  0  0  0  0
   -2.7133   -0.6644   -0.5206 H   0  0  0  0  0  0  0  0  0  0  0  0
   -3.5849   -1.5044    2.2051 H   0  0  0  0  0  0  0  0  0  0  0  0
   -3.2505    0.1854    1.7653 H   0  0  0  0  0  0  0  0  0  0  0  0
   -5.7046   -0.4976    1.7243 H   0  0  0  0  0  0  0  0  0  0  0  0
   -5.3561   -1.6244    0.4272 H   0  0  0  0  0  0  0  0  0  0  0  0
   -5.1915   -0.8139   -1.8834 H   0  0  0  0  0  0  0  0  0  0  0  0
   -5.4658    1.0931   -3.4523 H   0  0  0  0  0  0  0  0  0  0  0  0
   -5.6518    3.3995   -2.5132 H   0  0  0  0  0  0  0  0  0  0  0  0
   -5.3153    2.0296    1.3498 H   0  0  0  0  0  0  0  0  0  0  0  0
    4.9801    1.9667    1.8543 H   0  0  0  0  0  0  0  0  0  0  0  0
    7.4642    2.0775    1.8303 H   0  0  0  0  0  0  0  0  0  0  0  0
    8.7556    0.7102    0.2248 H   0  0  0  0  0  0  0  0  0  0  0  0
    7.5888   -0.7976   -1.3779 H   0  0  0  0  0  0  0  0  0  0  0  0
  1  2  3  0
  2  3  1  0
  3  4  1  0
  4  5  2  0
  5  6  1  0
  6  7  2  0
  7  8  1  0
  8  9  1  0
  9 10  1  0
 10 11  1  0
 11 12  1  0
 12 13  2  0
 13 14  1  0
 14 15  2  0
 15 16  1  0
 16 17  2  0
  8 18  2  0
  3 19  1  0
 19 20  2  0
 20 21  1  0
 21 22  2  0
 22 23  1  0
 23 24  2  0
 24 25  1  0
 25 26  2  0
 26 27  1  0
 18  4  1  0
 27 19  1  0
 17 12  1  0
 26 21  1  0
  3 28  1  0
  5 29  1  0
  6 30  1  0
  9 31  1  0
 10 32  1  0
 10 33  1  0
 11 34  1  0
 11 35  1  0
 13 36  1  0
 14 37  1  0
 15 38  1  0
 17 39  1  0
 22 40  1  0
 23 41  1  0
 24 42  1  0
 25 43  1  0
M  END
$$$$
