
     RDKit          3D

 31 33  0  0  0  0  0  0  0  0999 V2000
   -1.4123    3.5564    0.1378 C   0  0  0  0  0  0  0  0  0  0  0  0
   -1.6143    2.1953   -0.2166 O   0  0  0  0  0  0  0  0  0  0  0  0
   -0.6052    1.3056    0.1180 C   0  0  0  0  0  0  0  0  0  0  0  0
    0.6036    1.5882    0.7696 C   0  0  0  0  0  0  0  0  0  0  0  0
    1.0330    2.8069    1.2174 O   0  0  0  0  0  0  0  0  0  0  0  0
    2.2407    2.6285    1.8069 C   0  0  0  0  0  0  0  0  0  0  0  0
    2.6122    1.3086    1.7465 C   0  0  0  0  0  0  0  0  0  0  0  0
    1.5647    0.6246    1.0670 C   0  0  0  0  0  0  0  0  0  0  0  0
    1.3348   -0.7129    0.6829 C   0  0  0  0  0  0  0  0  0  0  0  0
    2.2570   -1.6708    1.0281 O   0  0  0  0  0  0  0  0  0  0  0  0
    3.2398   -1.8095    0.0009 C   0  0  0  0  0  0  0  0  0  0  0  0
    0.1218   -1.0437    0.0475 C   0  0  0  0  0  0  0  0  0  0  0  0
   -0.1985   -2.4322   -0.3582 C   0  0  0  0  0  0  0  0  0  0  0  0
    0.5676   -3.3792   -0.2397 O   0  0  0  0  0  0  0  0  0  0  0  0
   -1.5219   -2.6592   -0.9597 C   0  0  0  0  0  0  0  0  0  0  0  0
   -2.3413   -1.6236   -1.1685 C   0  0  0  0  0  0  0  0  0  0  0  0
   -3.6959   -1.7797   -1.7854 C   0  0  0  0  0  0  0  0  0  0  0  0
   -2.0268   -0.3190   -0.8475 O   0  0  0  0  0  0  0  0  0  0  0  0
   -0.8232   -0.0462   -0.2274 C   0  0  0  0  0  0  0  0  0  0  0  0
   -1.3393    3.6764    1.2233 H   0  0  0  0  0  0  0  0  0  0  0  0
   -2.2906    4.1185   -0.1946 H   0  0  0  0  0  0  0  0  0  0  0  0
   -0.5423    3.9752   -0.3778 H   0  0  0  0  0  0  0  0  0  0  0  0
    2.6985    3.5184    2.2167 H   0  0  0  0  0  0  0  0  0  0  0  0
    3.5229    0.8799    2.1410 H   0  0  0  0  0  0  0  0  0  0  0  0
    2.7867   -1.9675   -0.9840 H   0  0  0  0  0  0  0  0  0  0  0  0
    3.8965   -0.9336   -0.0250 H   0  0  0  0  0  0  0  0  0  0  0  0
    3.8514   -2.6851    0.2383 H   0  0  0  0  0  0  0  0  0  0  0  0
   -1.7717   -3.6795   -1.2214 H   0  0  0  0  0  0  0  0  0  0  0  0
   -3.9186   -2.8226   -2.0335 H   0  0  0  0  0  0  0  0  0  0  0  0
   -4.4683   -1.4255   -1.0951 H   0  0  0  0  0  0  0  0  0  0  0  0
   -3.7610   -1.1930   -2.7074 H   0  0  0  0  0  0  0  0  0  0  0  0
  1  2  1  0
  2  3  1  0
  3  4  2  0
  4  5  1  0
  5  6  1  0
  6  7  2  0
  7  8  1  0
  8  9  2  0
  9 10  1  0
 10 11  1  0
  9 12  1  0
 12 13  1  0
 13 14  2  0
 13 15  1  0
 15 16  2  0
 16 17  1  0
 16 18  1  0
 18 19  1  0
 19  3  1  0
  8  4  1  0
 19 12  2  0
  1 20  1  0
  1 21  1  0
  1 22  1  0
  6 23  1  0
  7 24  1  0
 11 25  1  0
 11 26  1  0
 11 27  1  0
 15 28  1  0
 17 29  1  0
 17 30  1  0
 17 31  1  0
M  END
$$$$
