
     RDKit          3D

 32 34  0  0  0  0  0  0  0  0999 V2000
    1.0050    0.2736    1.7157 C   0  0  0  0  0  0  0  0  0  0  0  0
    0.1159   -0.1925    0.5454 C   0  0  2  0  0  0  0  0  0  0  0  0
    1.0088   -0.7631   -0.5849 C   0  0  0  0  0  0  0  0  0  0  0  0
    2.0792    0.1022   -1.0363 N   0  0  0  0  0  0  0  0  0  0  0  0
    3.4063   -0.1929   -1.1323 C   0  0  0  0  0  0  0  0  0  0  0  0
    3.9693    0.9772   -1.5804 C   0  0  0  0  0  0  0  0  0  0  0  0
    2.9945    1.9206   -1.7324 N   0  0  0  0  0  0  0  0  0  0  0  0
    1.8354    1.3687   -1.4017 N   0  0  0  0  0  0  0  0  0  0  0  0
   -0.9019    0.8538    0.0413 C   0  0  2  0  0  0  0  0  0  0  0  0
   -1.3286    1.8352    1.1298 C   0  0  0  0  0  0  0  0  0  0  0  0
   -2.2207    1.6661    1.9461 O   0  0  0  0  0  0  0  0  0  0  0  0
   -0.5742    2.9480    1.1597 O   0  0  0  0  0  0  0  0  0  0  0  0
   -2.1220    0.1524   -0.3613 N   0  0  0  0  0  0  0  0  0  0  0  0
   -2.2447   -0.5052   -1.5504 C   0  0  0  0  0  0  0  0  0  0  0  0
   -1.7598   -0.2803   -2.6302 O   0  0  0  0  0  0  0  0  0  0  0  0
   -3.0276   -1.6466   -0.8836 C   0  0  0  0  0  0  0  0  0  0  0  0
   -2.5482   -1.0204    0.4342 C   0  0  1  0  0  0  0  0  0  0  0  0
   -0.9756   -1.5617    1.1314 S   0  0  0  0  0  6  0  0  0  0  0  0
   -0.5610   -2.7914    0.4806 O   0  0  0  0  0  0  0  0  0  0  0  0
   -1.0516   -1.5152    2.5784 O   0  0  0  0  0  0  0  0  0  0  0  0
    1.6859   -0.5272    2.0273 H   0  0  0  0  0  0  0  0  0  0  0  0
    1.6120    1.1431    1.4437 H   0  0  0  0  0  0  0  0  0  0  0  0
    0.4231    0.5501    2.6010 H   0  0  0  0  0  0  0  0  0  0  0  0
    1.5034   -1.6809   -0.2418 H   0  0  0  0  0  0  0  0  0  0  0  0
    0.4346   -1.0335   -1.4756 H   0  0  0  0  0  0  0  0  0  0  0  0
    3.8201   -1.1606   -0.8906 H   0  0  0  0  0  0  0  0  0  0  0  0
    5.0056    1.1917   -1.7984 H   0  0  0  0  0  0  0  0  0  0  0  0
   -0.5592    1.4290   -0.8218 H   0  0  0  0  0  0  0  0  0  0  0  0
   -0.9450    3.4974    1.8831 H   0  0  0  0  0  0  0  0  0  0  0  0
   -4.1056   -1.5958   -1.0611 H   0  0  0  0  0  0  0  0  0  0  0  0
   -2.6589   -2.6476   -1.1140 H   0  0  0  0  0  0  0  0  0  0  0  0
   -3.3147   -0.7942    1.1793 H   0  0  0  0  0  0  0  0  0  0  0  0
  2  1  1  1
  2  3  1  0
  3  4  1  0
  4  5  1  0
  5  6  2  0
  6  7  1  0
  7  8  2  0
  2  9  1  0
  9 10  1  0
 10 11  2  0
 10 12  1  0
  9 13  1  0
 13 14  1  0
 14 15  2  0
 14 16  1  0
 16 17  1  0
 17 18  1  0
 18 19  2  0
 18 20  2  0
 18  2  1  0
  8  4  1  0
 17 13  1  0
  1 21  1  0
  1 22  1  0
  1 23  1  0
  3 24  1  0
  3 25  1  0
  5 26  1  0
  6 27  1  0
  9 28  1  6
 12 29  1  0
 16 30  1  0
 16 31  1  0
 17 32  1  1
M  END
$$$$
