
     RDKit          3D

 50 50  0  0  0  0  0  0  0  0999 V2000
   -3.5335    1.7505    0.5167 C   0  0  0  0  0  0  0  0  0  0  0  0
   -3.7759    0.3062    0.1410 C   0  0  0  0  0  0  0  0  0  0  0  0
   -2.9311   -0.4582   -0.5927 C   0  0  0  0  0  0  0  0  0  0  0  0
   -1.6286    0.0421   -1.0234 C   0  0  0  0  0  0  0  0  0  0  0  0
   -0.5951    0.2111   -0.1830 C   0  0  0  0  0  0  0  0  0  0  0  0
    0.7434    0.6905   -0.5360 C   0  0  0  0  0  0  0  0  0  0  0  0
    0.9132    1.3143   -1.9004 C   0  0  0  0  0  0  0  0  0  0  0  0
    1.7266    0.5656    0.3798 C   0  0  0  0  0  0  0  0  0  0  0  0
    3.1169    0.9559    0.2402 C   0  0  0  0  0  0  0  0  0  0  0  0
    4.0297    0.7470    1.2068 C   0  0  0  0  0  0  0  0  0  0  0  0
    5.4538    1.0939    1.1533 C   0  0  0  0  0  0  0  0  0  0  0  0
    5.9852    1.6601   -0.1405 C   0  0  0  0  0  0  0  0  0  0  0  0
    6.2069    0.8619    2.2493 C   0  0  0  0  0  0  0  0  0  0  0  0
    7.6349    1.1825    2.4059 C   0  0  0  0  0  0  0  0  0  0  0  0
    8.3055    1.9829    1.7847 O   0  0  0  0  0  0  0  0  0  0  0  0
    8.1547    0.4473    3.4059 O   0  0  0  0  0  0  0  0  0  0  0  0
   -3.2739   -1.8992   -1.0310 C   0  0  0  0  0  0  0  0  0  0  0  0
   -2.4204   -2.8969   -0.2174 C   0  0  0  0  0  0  0  0  0  0  0  0
   -2.9946   -2.1376   -2.5334 C   0  0  0  0  0  0  0  0  0  0  0  0
   -4.7784   -2.2107   -0.8080 C   0  0  0  0  0  0  0  0  0  0  0  0
   -5.2708   -1.7228    0.5453 C   0  0  0  0  0  0  0  0  0  0  0  0
   -5.1000   -0.2135    0.6578 C   0  0  0  0  0  0  0  0  0  0  0  0
   -4.3344    2.3766    0.1036 H   0  0  0  0  0  0  0  0  0  0  0  0
   -3.5312    1.8645    1.6072 H   0  0  0  0  0  0  0  0  0  0  0  0
   -2.5899    2.1560    0.1412 H   0  0  0  0  0  0  0  0  0  0  0  0
   -1.5303    0.2311   -2.0880 H   0  0  0  0  0  0  0  0  0  0  0  0
   -0.7530   -0.0405    0.8658 H   0  0  0  0  0  0  0  0  0  0  0  0
    0.1394    2.0704   -2.0751 H   0  0  0  0  0  0  0  0  0  0  0  0
    1.8681    1.8290   -2.0309 H   0  0  0  0  0  0  0  0  0  0  0  0
    0.8414    0.5544   -2.6841 H   0  0  0  0  0  0  0  0  0  0  0  0
    1.4840    0.1021    1.3369 H   0  0  0  0  0  0  0  0  0  0  0  0
    3.4123    1.4268   -0.6887 H   0  0  0  0  0  0  0  0  0  0  0  0
    3.6960    0.2752    2.1306 H   0  0  0  0  0  0  0  0  0  0  0  0
    5.5990    2.6703   -0.3036 H   0  0  0  0  0  0  0  0  0  0  0  0
    5.6870    1.0287   -0.9838 H   0  0  0  0  0  0  0  0  0  0  0  0
    7.0748    1.7085   -0.1866 H   0  0  0  0  0  0  0  0  0  0  0  0
    5.7681    0.4147    3.1366 H   0  0  0  0  0  0  0  0  0  0  0  0
    9.0928    0.7297    3.4351 H   0  0  0  0  0  0  0  0  0  0  0  0
   -1.3570   -2.8075   -0.4616 H   0  0  0  0  0  0  0  0  0  0  0  0
   -2.7125   -3.9323   -0.4286 H   0  0  0  0  0  0  0  0  0  0  0  0
   -2.5208   -2.7380    0.8619 H   0  0  0  0  0  0  0  0  0  0  0  0
   -1.9281   -2.0769   -2.7685 H   0  0  0  0  0  0  0  0  0  0  0  0
   -3.5194   -1.3999   -3.1541 H   0  0  0  0  0  0  0  0  0  0  0  0
   -3.3318   -3.1357   -2.8442 H   0  0  0  0  0  0  0  0  0  0  0  0
   -5.3823   -1.7296   -1.5911 H   0  0  0  0  0  0  0  0  0  0  0  0
   -4.9635   -3.2893   -0.8978 H   0  0  0  0  0  0  0  0  0  0  0  0
   -4.7240   -2.2237    1.3526 H   0  0  0  0  0  0  0  0  0  0  0  0
   -6.3279   -1.9823    0.6773 H   0  0  0  0  0  0  0  0  0  0  0  0
   -5.2195    0.0637    1.7127 H   0  0  0  0  0  0  0  0  0  0  0  0
   -5.9054    0.2844    0.1043 H   0  0  0  0  0  0  0  0  0  0  0  0
  1  2  1  0
  2  3  2  0
  3  4  1  0
  4  5  2  0
  5  6  1  0
  6  7  1  0
  6  8  2  0
  8  9  1  0
  9 10  2  0
 10 11  1  0
 11 12  1  0
 11 13  2  0
 13 14  1  0
 14 15  2  0
 14 16  1  0
  3 17  1  0
 17 18  1  0
 17 19  1  0
 17 20  1  0
 20 21  1  0
 21 22  1  0
 22  2  1  0
  1 23  1  0
  1 24  1  0
  1 25  1  0
  4 26  1  0
  5 27  1  0
  7 28  1  0
  7 29  1  0
  7 30  1  0
  8 31  1  0
  9 32  1  0
 10 33  1  0
 12 34  1  0
 12 35  1  0
 12 36  1  0
 13 37  1  0
 16 38  1  0
 18 39  1  0
 18 40  1  0
 18 41  1  0
 19 42  1  0
 19 43  1  0
 19 44  1  0
 20 45  1  0
 20 46  1  0
 21 47  1  0
 21 48  1  0
 22 49  1  0
 22 50  1  0
M  END
$$$$
