
     RDKit          3D

 72 74  0  0  0  0  0  0  0  0999 V2000
    6.5032    2.8554    1.8212 C   0  0  0  0  0  0  0  0  0  0  0  0
    5.2381    2.1647    1.4322 C   0  0  0  0  0  0  0  0  0  0  0  0
    4.8763    2.1143    0.1333 C   0  0  0  0  0  0  0  0  0  0  0  0
    3.6867    1.4624   -0.2277 C   0  0  0  0  0  0  0  0  0  0  0  0
    2.8531    0.8571    0.6840 C   0  0  0  0  0  0  0  0  0  0  0  0
    1.6917    0.0890    0.4595 C   0  0  0  0  0  0  0  0  0  0  0  0
    0.8592    0.1537    1.5113 O   0  0  0  0  0  0  0  0  0  0  0  0
    1.2447   -0.7034   -0.5915 N   0  0  0  0  0  0  0  0  0  0  0  0
    2.1876   -1.0801   -1.6265 C   0  0  0  0  0  0  0  0  0  0  0  0
    2.9765   -2.3155   -1.2699 C   0  0  0  0  0  0  0  0  0  0  0  0
    2.2034   -3.5609   -1.0089 C   0  0  0  0  0  0  0  0  0  0  0  0
    3.1442   -4.6804   -0.7616 N   0  0  0  0  0  0  0  0  0  0  0  0
   -0.1392   -0.9668   -0.9355 C   0  0  0  0  0  0  0  0  0  0  0  0
   -1.2059   -0.9296    0.0017 C   0  0  0  0  0  0  0  0  0  0  0  0
   -1.8681   -2.0017    0.4168 O   0  0  0  0  0  0  0  0  0  0  0  0
   -2.8253   -2.0398    1.2900 C   0  0  0  0  0  0  0  0  0  0  0  0
   -3.4409   -3.2197    1.6483 C   0  0  0  0  0  0  0  0  0  0  0  0
   -4.4514   -3.2905    2.5695 C   0  0  0  0  0  0  0  0  0  0  0  0
   -5.1670   -4.8533    2.9674 Cl  0  0  0  0  0  0  0  0  0  0  0  0
   -4.8796   -2.1227    3.1731 C   0  0  0  0  0  0  0  0  0  0  0  0
   -4.2889   -0.9284    2.8377 C   0  0  0  0  0  0  0  0  0  0  0  0
   -3.2780   -0.8789    1.9130 C   0  0  0  0  0  0  0  0  0  0  0  0
   -2.6703    0.2774    1.5574 C   0  0  0  0  0  0  0  0  0  0  0  0
   -2.9977    1.4073    2.0586 O   0  0  0  0  0  0  0  0  0  0  0  0
   -1.6513    0.2646    0.6144 C   0  0  0  0  0  0  0  0  0  0  0  0
   -1.1953    1.5530    0.0649 C   0  0  0  0  0  0  0  0  0  0  0  0
   -2.3354    2.4930   -0.0831 C   0  0  0  0  0  0  0  0  0  0  0  0
   -2.2683    3.7391    0.5457 C   0  0  0  0  0  0  0  0  0  0  0  0
   -3.3296    4.6083    0.4543 C   0  0  0  0  0  0  0  0  0  0  0  0
   -4.4766    4.2630   -0.2605 C   0  0  0  0  0  0  0  0  0  0  0  0
   -4.5258    3.0379   -0.8700 C   0  0  0  0  0  0  0  0  0  0  0  0
   -3.4471    2.1693   -0.7695 C   0  0  0  0  0  0  0  0  0  0  0  0
   -0.4833   -1.1057   -2.4195 C   0  0  0  0  0  0  0  0  0  0  0  0
   -0.1620    0.0857   -3.2635 C   0  0  0  0  0  0  0  0  0  0  0  0
   -1.9988   -1.4396   -2.5091 C   0  0  0  0  0  0  0  0  0  0  0  0
    3.3068    0.9575    2.0312 C   0  0  0  0  0  0  0  0  0  0  0  0
    4.4492    1.5791    2.4281 C   0  0  0  0  0  0  0  0  0  0  0  0
    0.6891    0.0000    0.0000 Cl  0  0  0  0  0  0  0  0  0  0  0  0
    7.1929    2.0920    2.2802 H   0  0  0  0  0  0  0  0  0  0  0  0
    6.9688    3.3262    0.9325 H   0  0  0  0  0  0  0  0  0  0  0  0
    6.2953    3.5981    2.6000 H   0  0  0  0  0  0  0  0  0  0  0  0
    5.4586    2.5542   -0.6374 H   0  0  0  0  0  0  0  0  0  0  0  0
    3.4049    1.5158   -1.2703 H   0  0  0  0  0  0  0  0  0  0  0  0
    1.6832   -1.3585   -2.5988 H   0  0  0  0  0  0  0  0  0  0  0  0
    2.9183   -0.2792   -1.8628 H   0  0  0  0  0  0  0  0  0  0  0  0
    3.5858   -2.1350   -0.3289 H   0  0  0  0  0  0  0  0  0  0  0  0
    3.7513   -2.4870   -2.0789 H   0  0  0  0  0  0  0  0  0  0  0  0
    1.5553   -3.8700   -1.8387 H   0  0  0  0  0  0  0  0  0  0  0  0
    1.6296   -3.5438   -0.0447 H   0  0  0  0  0  0  0  0  0  0  0  0
    4.1224   -4.3548   -0.9988 H   0  0  0  0  0  0  0  0  0  0  0  0
    2.8536   -5.4636   -1.3608 H   0  0  0  0  0  0  0  0  0  0  0  0
    0.0818   -2.2271   -0.9363 H   0  0  0  0  0  0  0  0  0  0  0  0
   -3.1099   -4.1447    1.1782 H   0  0  0  0  0  0  0  0  0  0  0  0
   -5.6862   -2.1822    3.9001 H   0  0  0  0  0  0  0  0  0  0  0  0
   -4.6096    0.0086    3.2952 H   0  0  0  0  0  0  0  0  0  0  0  0
   -0.4272    2.0915    0.6303 H   0  0  0  0  0  0  0  0  0  0  0  0
   -0.8425    1.4416   -1.0064 H   0  0  0  0  0  0  0  0  0  0  0  0
   -1.3547    3.9955    1.1062 H   0  0  0  0  0  0  0  0  0  0  0  0
   -3.3219    5.5743    0.9203 H   0  0  0  0  0  0  0  0  0  0  0  0
   -5.3135    4.9490   -0.3346 H   0  0  0  0  0  0  0  0  0  0  0  0
   -5.4007    2.7435   -1.4277 H   0  0  0  0  0  0  0  0  0  0  0  0
   -3.5915    1.2088   -1.2970 H   0  0  0  0  0  0  0  0  0  0  0  0
   -0.0390   -1.9897   -2.9045 H   0  0  0  0  0  0  0  0  0  0  0  0
   -1.1125    0.6900   -3.3849 H   0  0  0  0  0  0  0  0  0  0  0  0
    0.1393   -0.1872   -4.3002 H   0  0  0  0  0  0  0  0  0  0  0  0
    0.5776    0.7827   -2.8179 H   0  0  0  0  0  0  0  0  0  0  0  0
   -2.3062   -1.2148   -3.5377 H   0  0  0  0  0  0  0  0  0  0  0  0
   -2.1704   -2.5215   -2.3229 H   0  0  0  0  0  0  0  0  0  0  0  0
   -2.5572   -0.7885   -1.8257 H   0  0  0  0  0  0  0  0  0  0  0  0
    2.7073    0.5098    2.8068 H   0  0  0  0  0  0  0  0  0  0  0  0
    4.7819    1.6516    3.4494 H   0  0  0  0  0  0  0  0  0  0  0  0
   -0.6891    0.0000    0.0000 H   0  0  0  0  0  0  0  0  0  0  0  0
  1  2  1  0
  2  3  2  0
  3  4  1  0
  4  5  2  0
  5  6  1  0
  6  7  2  0
  6  8  1  0
  8  9  1  0
  9 10  1  0
 10 11  1  0
 11 12  1  0
  8 13  1  0
 13 14  1  0
 14 15  1  0
 15 16  1  0
 16 17  2  0
 17 18  1  0
 18 19  1  0
 18 20  2  0
 20 21  1  0
 21 22  2  0
 22 23  1  0
 23 24  2  0
 23 25  1  0
 25 26  1  0
 26 27  1  0
 27 28  2  0
 28 29  1  0
 29 30  2  0
 30 31  1  0
 31 32  2  0
 13 33  1  0
 33 34  1  0
 33 35  1  0
  5 36  1  0
 36 37  2  0
 37  2  1  0
 25 14  2  0
 32 27  1  0
 22 16  1  0
  1 39  1  0
  1 40  1  0
  1 41  1  0
  3 42  1  0
  4 43  1  0
  9 44  1  0
  9 45  1  0
 10 46  1  0
 10 47  1  0
 11 48  1  0
 11 49  1  0
 12 50  1  0
 12 51  1  0
 13 52  1  0
 17 53  1  0
 20 54  1  0
 21 55  1  0
 26 56  1  0
 26 57  1  0
 28 58  1  0
 29 59  1  0
 30 60  1  0
 31 61  1  0
 32 62  1  0
 33 63  1  0
 34 64  1  0
 34 65  1  0
 34 66  1  0
 35 67  1  0
 35 68  1  0
 35 69  1  0
 36 70  1  0
 37 71  1  0
 38 72  1  0
M  END
$$$$
