
     RDKit          3D

 50 49  0  0  0  0  0  0  0  0999 V2000
   -8.1541   -0.7996   -0.3844 C   0  0  0  0  0  0  0  0  0  0  0  0
   -7.3599    0.4955   -0.3256 C   0  0  0  0  0  0  0  0  0  0  0  0
   -5.8551    0.2342   -0.4047 C   0  0  0  0  0  0  0  0  0  0  0  0
   -5.0622    1.5415   -0.3411 C   0  0  0  0  0  0  0  0  0  0  0  0
   -3.5549    1.3496   -0.5317 C   0  0  0  0  0  0  0  0  0  0  0  0
   -2.8932    0.5631    0.6021 C   0  0  0  0  0  0  0  0  0  0  0  0
   -1.3740    0.5011    0.4201 C   0  0  0  0  0  0  0  0  0  0  0  0
   -0.7129   -0.2920    1.5497 C   0  0  0  0  0  0  0  0  0  0  0  0
    0.8176   -0.2927    1.4769 C   0  0  0  0  0  0  0  0  0  0  0  0
    1.3636   -1.0146    0.2421 C   0  0  0  0  0  0  0  0  0  0  0  0
    2.8820   -1.2241    0.2817 C   0  0  0  0  0  0  0  0  0  0  0  0
    3.6757    0.0832    0.2101 C   0  0  0  0  0  0  0  0  0  0  0  0
    5.1940   -0.1231    0.2541 C   0  0  0  0  0  0  0  0  0  0  0  0
    5.7511   -0.8223   -0.9904 C   0  0  0  0  0  0  0  0  0  0  0  0
    7.2724   -0.9463   -0.9540 C   0  0  0  0  0  0  0  0  0  0  0  0
    7.9648    0.3789   -1.1028 C   0  0  0  0  0  0  0  0  0  0  0  0
    8.6250    0.9466   -0.2491 O   0  0  0  0  0  0  0  0  0  0  0  0
    7.8050    0.9217   -2.3238 O   0  0  0  0  0  0  0  0  0  0  0  0
   -9.2267   -0.5894   -0.3271 H   0  0  0  0  0  0  0  0  0  0  0  0
   -7.8921   -1.4587    0.4494 H   0  0  0  0  0  0  0  0  0  0  0  0
   -7.9623   -1.3353   -1.3196 H   0  0  0  0  0  0  0  0  0  0  0  0
   -7.5978    1.0216    0.6063 H   0  0  0  0  0  0  0  0  0  0  0  0
   -7.6697    1.1444   -1.1531 H   0  0  0  0  0  0  0  0  0  0  0  0
   -5.6227   -0.2922   -1.3383 H   0  0  0  0  0  0  0  0  0  0  0  0
   -5.5626   -0.4236    0.4213 H   0  0  0  0  0  0  0  0  0  0  0  0
   -5.4219    2.2166   -1.1277 H   0  0  0  0  0  0  0  0  0  0  0  0
   -5.2510    2.0434    0.6157 H   0  0  0  0  0  0  0  0  0  0  0  0
   -3.3661    0.8492   -1.4893 H   0  0  0  0  0  0  0  0  0  0  0  0
   -3.0905    2.3415   -0.5974 H   0  0  0  0  0  0  0  0  0  0  0  0
   -3.2909   -0.4573    0.6341 H   0  0  0  0  0  0  0  0  0  0  0  0
   -3.1290    1.0356    1.5632 H   0  0  0  0  0  0  0  0  0  0  0  0
   -1.1485    0.0373   -0.5467 H   0  0  0  0  0  0  0  0  0  0  0  0
   -0.9650    1.5183    0.3973 H   0  0  0  0  0  0  0  0  0  0  0  0
   -1.0820   -1.3249    1.5427 H   0  0  0  0  0  0  0  0  0  0  0  0
   -1.0087    0.1417    2.5131 H   0  0  0  0  0  0  0  0  0  0  0  0
    1.2020   -0.7834    2.3795 H   0  0  0  0  0  0  0  0  0  0  0  0
    1.1763    0.7424    1.5000 H   0  0  0  0  0  0  0  0  0  0  0  0
    1.1023   -0.4608   -0.6667 H   0  0  0  0  0  0  0  0  0  0  0  0
    0.8863   -1.9992    0.1634 H   0  0  0  0  0  0  0  0  0  0  0  0
    3.1488   -1.8629   -0.5675 H   0  0  0  0  0  0  0  0  0  0  0  0
    3.1538   -1.7745    1.1903 H   0  0  0  0  0  0  0  0  0  0  0  0
    3.4052    0.7215    1.0587 H   0  0  0  0  0  0  0  0  0  0  0  0
    3.4054    0.6331   -0.6994 H   0  0  0  0  0  0  0  0  0  0  0  0
    5.4616   -0.6942    1.1515 H   0  0  0  0  0  0  0  0  0  0  0  0
    5.6628    0.8630    0.3564 H   0  0  0  0  0  0  0  0  0  0  0  0
    5.3334   -1.8324   -1.0626 H   0  0  0  0  0  0  0  0  0  0  0  0
    5.4367   -0.2786   -1.8892 H   0  0  0  0  0  0  0  0  0  0  0  0
    7.6008   -1.4070   -0.0154 H   0  0  0  0  0  0  0  0  0  0  0  0
    7.6212   -1.5988   -1.7629 H   0  0  0  0  0  0  0  0  0  0  0  0
    8.3060    1.7629   -2.2769 H   0  0  0  0  0  0  0  0  0  0  0  0
  1  2  1  0
  2  3  1  0
  3  4  1  0
  4  5  1  0
  5  6  1  0
  6  7  1  0
  7  8  1  0
  8  9  1  0
  9 10  1  0
 10 11  1  0
 11 12  1  0
 12 13  1  0
 13 14  1  0
 14 15  1  0
 15 16  1  0
 16 17  2  0
 16 18  1  0
  1 19  1  0
  1 20  1  0
  1 21  1  0
  2 22  1  0
  2 23  1  0
  3 24  1  0
  3 25  1  0
  4 26  1  0
  4 27  1  0
  5 28  1  0
  5 29  1  0
  6 30  1  0
  6 31  1  0
  7 32  1  0
  7 33  1  0
  8 34  1  0
  8 35  1  0
  9 36  1  0
  9 37  1  0
 10 38  1  0
 10 39  1  0
 11 40  1  0
 11 41  1  0
 12 42  1  0
 12 43  1  0
 13 44  1  0
 13 45  1  0
 14 46  1  0
 14 47  1  0
 15 48  1  0
 15 49  1  0
 18 50  1  0
M  END
$$$$
