
     RDKit          3D

 52 53  0  0  0  0  0  0  0  0999 V2000
    0.6840    0.0000    0.0000 Cl  0  0  0  0  0  0  0  0  0  0  0  0
   -0.1735   -1.1935    0.6234 O   0  0  0  0  0  0  0  0  0  0  0  0
   -0.6640   -0.0530    0.4467 C   0  0  0  0  0  0  0  0  0  0  0  0
    0.1368    1.0464    0.6558 O   0  0  0  0  0  0  0  0  0  0  0  0
    1.4742    0.9578    1.0503 C   0  0  0  0  0  0  0  0  0  0  0  0
    2.2805    0.2610    0.0188 C   0  0  0  0  0  0  0  0  0  0  0  0
    3.6628    0.1171    0.3248 N   0  0  0  0  0  0  0  0  0  0  0  0
    4.4587    1.2845    0.3555 C   0  0  0  0  0  0  0  0  0  0  0  0
    5.9044    0.8975    0.1445 C   0  0  0  0  0  0  0  0  0  0  0  0
    6.2211   -0.1860    0.9555 O   0  0  0  0  0  0  0  0  0  0  0  0
    5.5992   -1.3570    0.5263 C   0  0  0  0  0  0  0  0  0  0  0  0
    4.3079   -1.0527   -0.2112 C   0  0  0  0  0  0  0  0  0  0  0  0
   -2.1066    0.1054    0.0125 C   0  0  0  0  0  0  0  0  0  0  0  0
   -2.6621   -1.2526   -0.1843 C   0  0  0  0  0  0  0  0  0  0  0  0
   -3.8866   -1.5987    0.3346 C   0  0  0  0  0  0  0  0  0  0  0  0
   -4.4308   -2.8640    0.1572 C   0  0  0  0  0  0  0  0  0  0  0  0
   -3.7549   -3.8271   -0.5530 C   0  0  0  0  0  0  0  0  0  0  0  0
   -2.5226   -3.4910   -1.0798 C   0  0  0  0  0  0  0  0  0  0  0  0
   -1.9854   -2.2250   -0.8984 C   0  0  0  0  0  0  0  0  0  0  0  0
   -2.1618    0.9348   -1.2534 C   0  0  0  0  0  0  0  0  0  0  0  0
   -2.0974    2.4199   -0.9597 C   0  0  0  0  0  0  0  0  0  0  0  0
   -3.2986    2.8680   -0.1547 C   0  0  0  0  0  0  0  0  0  0  0  0
   -3.9438    1.6626    0.5329 C   0  0  0  0  0  0  0  0  0  0  0  0
   -2.8315    0.8418    1.0961 C   0  0  0  0  0  0  0  0  0  0  0  0
   -0.6840    0.0000    0.0000 H   0  0  0  0  0  0  0  0  0  0  0  0
    1.8264    1.9886    1.2750 H   0  0  0  0  0  0  0  0  0  0  0  0
    1.4842    0.3296    1.9915 H   0  0  0  0  0  0  0  0  0  0  0  0
    1.8607   -0.7217   -0.2067 H   0  0  0  0  0  0  0  0  0  0  0  0
    2.2272    0.8964   -0.9134 H   0  0  0  0  0  0  0  0  0  0  0  0
    4.4201    1.8451    1.3147 H   0  0  0  0  0  0  0  0  0  0  0  0
    4.1086    1.9586   -0.4775 H   0  0  0  0  0  0  0  0  0  0  0  0
    6.6211    1.7018    0.3629 H   0  0  0  0  0  0  0  0  0  0  0  0
    6.0536    0.5372   -0.9082 H   0  0  0  0  0  0  0  0  0  0  0  0
    6.2822   -1.8418   -0.1988 H   0  0  0  0  0  0  0  0  0  0  0  0
    5.3562   -2.0161    1.3824 H   0  0  0  0  0  0  0  0  0  0  0  0
    3.6837   -1.9454   -0.1810 H   0  0  0  0  0  0  0  0  0  0  0  0
    4.5809   -0.8371   -1.2660 H   0  0  0  0  0  0  0  0  0  0  0  0
   -4.4952   -0.9130    0.9093 H   0  0  0  0  0  0  0  0  0  0  0  0
   -5.3895   -3.1408    0.5609 H   0  0  0  0  0  0  0  0  0  0  0  0
   -4.1790   -4.8329   -0.6987 H   0  0  0  0  0  0  0  0  0  0  0  0
   -1.9933   -4.2491   -1.6371 H   0  0  0  0  0  0  0  0  0  0  0  0
   -1.0202   -2.0483   -1.3487 H   0  0  0  0  0  0  0  0  0  0  0  0
   -3.0608    0.7562   -1.8424 H   0  0  0  0  0  0  0  0  0  0  0  0
   -1.2571    0.6937   -1.8507 H   0  0  0  0  0  0  0  0  0  0  0  0
   -2.1202    2.9474   -1.9310 H   0  0  0  0  0  0  0  0  0  0  0  0
   -1.1357    2.6996   -0.4658 H   0  0  0  0  0  0  0  0  0  0  0  0
   -2.9637    3.6202    0.5719 H   0  0  0  0  0  0  0  0  0  0  0  0
   -4.0099    3.3560   -0.8469 H   0  0  0  0  0  0  0  0  0  0  0  0
   -4.5199    1.1535   -0.2841 H   0  0  0  0  0  0  0  0  0  0  0  0
   -4.6688    2.0197    1.2653 H   0  0  0  0  0  0  0  0  0  0  0  0
   -3.1280    0.1882    1.9393 H   0  0  0  0  0  0  0  0  0  0  0  0
   -2.0897    1.5579    1.5435 H   0  0  0  0  0  0  0  0  0  0  0  0
  2  3  2  0
  3  4  1  0
  4  5  1  0
  5  6  1  0
  6  7  1  0
  7  8  1  0
  8  9  1  0
  9 10  1  0
 10 11  1  0
 11 12  1  0
  3 13  1  0
 13 14  1  0
 14 15  2  0
 15 16  1  0
 16 17  2  0
 17 18  1  0
 18 19  2  0
 13 20  1  0
 20 21  1  0
 21 22  1  0
 22 23  1  0
 23 24  1  0
 12  7  1  0
 24 13  1  0
 19 14  1  0
  1 25  1  0
  5 26  1  0
  5 27  1  0
  6 28  1  0
  6 29  1  0
  8 30  1  0
  8 31  1  0
  9 32  1  0
  9 33  1  0
 11 34  1  0
 11 35  1  0
 12 36  1  0
 12 37  1  0
 15 38  1  0
 16 39  1  0
 17 40  1  0
 18 41  1  0
 19 42  1  0
 20 43  1  0
 20 44  1  0
 21 45  1  0
 21 46  1  0
 22 47  1  0
 22 48  1  0
 23 49  1  0
 23 50  1  0
 24 51  1  0
 24 52  1  0
M  END
$$$$
