
     RDKit          3D

 60 62  0  0  0  0  0  0  0  0999 V2000
    0.0889   -4.6554   -1.3200 C   0  0  0  0  0  0  0  0  0  0  0  0
    0.0900   -3.8707   -0.0057 C   0  0  0  0  0  0  0  0  0  0  0  0
   -0.1146   -4.8137    1.1819 C   0  0  0  0  0  0  0  0  0  0  0  0
   -0.9265   -2.7693   -0.0142 C   0  0  0  0  0  0  0  0  0  0  0  0
   -2.3185   -2.8646   -0.2034 C   0  0  0  0  0  0  0  0  0  0  0  0
   -2.9405   -1.6897   -0.1539 N   0  0  0  0  0  0  0  0  0  0  0  0
   -1.9469   -0.7785    0.0808 N   0  0  0  0  0  0  0  0  0  0  0  0
   -2.0474    0.6346    0.2226 C   0  0  0  0  0  0  0  0  0  0  0  0
   -3.2732    1.3012    0.1356 N   0  0  0  0  0  0  0  0  0  0  0  0
   -4.5373    0.7409   -0.3119 C   0  0  0  0  0  0  0  0  0  0  0  0
   -5.5651    1.8481   -0.3780 C   0  0  0  0  0  0  0  0  0  0  0  0
   -6.2544    2.2459    0.7774 C   0  0  0  0  0  0  0  0  0  0  0  0
   -7.1805    3.2885    0.7258 C   0  0  0  0  0  0  0  0  0  0  0  0
   -7.4211    3.9487   -0.4780 C   0  0  0  0  0  0  0  0  0  0  0  0
   -6.7348    3.5690   -1.6306 C   0  0  0  0  0  0  0  0  0  0  0  0
   -5.8084    2.5260   -1.5817 C   0  0  0  0  0  0  0  0  0  0  0  0
   -0.9081    1.3151    0.4485 C   0  0  0  0  0  0  0  0  0  0  0  0
    0.3861    0.5610    0.5406 C   0  0  0  0  0  0  0  0  0  0  0  0
    1.5343    1.2871    0.7823 N   0  0  0  0  0  0  0  0  0  0  0  0
    2.7869    0.6434    1.1394 C   0  0  0  0  0  0  0  0  0  0  0  0
    3.9315    1.6580    1.1545 C   0  0  0  0  0  0  0  0  0  0  0  0
    4.2211    2.3206   -0.1957 C   0  0  0  0  0  0  0  0  0  0  0  0
    4.6334    1.3881   -1.3404 C   0  0  0  0  0  0  0  0  0  0  0  0
    5.9846    0.6901   -1.1422 C   0  0  0  0  0  0  0  0  0  0  0  0
    5.8548   -0.7312   -0.5943 C   0  0  0  0  0  0  0  0  0  0  0  0
    7.1710   -1.3513   -0.4888 N   0  0  0  0  0  0  0  0  0  0  0  0
    0.4577   -0.7373    0.4003 N   0  0  0  0  0  0  0  0  0  0  0  0
   -0.7022   -1.4182    0.1696 C   0  0  0  0  0  0  0  0  0  0  0  0
   -0.8651   -5.1689   -1.4844 H   0  0  0  0  0  0  0  0  0  0  0  0
    0.2601   -3.9895   -2.1727 H   0  0  0  0  0  0  0  0  0  0  0  0
    0.8812   -5.4117   -1.3207 H   0  0  0  0  0  0  0  0  0  0  0  0
    1.0877   -3.4238    0.1014 H   0  0  0  0  0  0  0  0  0  0  0  0
   -1.0798   -5.3292    1.1258 H   0  0  0  0  0  0  0  0  0  0  0  0
   -0.0866   -4.2632    2.1286 H   0  0  0  0  0  0  0  0  0  0  0  0
    0.6721   -5.5752    1.2129 H   0  0  0  0  0  0  0  0  0  0  0  0
   -2.9087   -3.7553   -0.3784 H   0  0  0  0  0  0  0  0  0  0  0  0
   -3.2130    2.3119    0.0592 H   0  0  0  0  0  0  0  0  0  0  0  0
   -4.8913   -0.0293    0.3827 H   0  0  0  0  0  0  0  0  0  0  0  0
   -4.4312    0.2836   -1.3028 H   0  0  0  0  0  0  0  0  0  0  0  0
   -6.0649    1.7435    1.7244 H   0  0  0  0  0  0  0  0  0  0  0  0
   -7.7099    3.5887    1.6265 H   0  0  0  0  0  0  0  0  0  0  0  0
   -8.1418    4.7612   -0.5172 H   0  0  0  0  0  0  0  0  0  0  0  0
   -6.9197    4.0871   -2.5683 H   0  0  0  0  0  0  0  0  0  0  0  0
   -5.2782    2.2409   -2.4877 H   0  0  0  0  0  0  0  0  0  0  0  0
   -0.8823    2.3882    0.5673 H   0  0  0  0  0  0  0  0  0  0  0  0
    1.4068    2.2135    1.1723 H   0  0  0  0  0  0  0  0  0  0  0  0
    2.6900    0.2042    2.1390 H   0  0  0  0  0  0  0  0  0  0  0  0
    3.0136   -0.1712    0.4444 H   0  0  0  0  0  0  0  0  0  0  0  0
    4.8400    1.1736    1.5292 H   0  0  0  0  0  0  0  0  0  0  0  0
    3.6932    2.4507    1.8762 H   0  0  0  0  0  0  0  0  0  0  0  0
    5.0112    3.0678   -0.0489 H   0  0  0  0  0  0  0  0  0  0  0  0
    3.3353    2.8837   -0.5149 H   0  0  0  0  0  0  0  0  0  0  0  0
    3.8423    0.6628   -1.5596 H   0  0  0  0  0  0  0  0  0  0  0  0
    4.7183    2.0159   -2.2374 H   0  0  0  0  0  0  0  0  0  0  0  0
    6.4813    0.6340   -2.1200 H   0  0  0  0  0  0  0  0  0  0  0  0
    6.6356    1.2942   -0.4988 H   0  0  0  0  0  0  0  0  0  0  0  0
    5.3852   -0.7322    0.3923 H   0  0  0  0  0  0  0  0  0  0  0  0
    5.2304   -1.3354   -1.2613 H   0  0  0  0  0  0  0  0  0  0  0  0
    7.7533   -0.8218    0.1586 H   0  0  0  0  0  0  0  0  0  0  0  0
    7.0742   -2.2853   -0.0927 H   0  0  0  0  0  0  0  0  0  0  0  0
  1  2  1  0
  2  3  1  0
  2  4  1  0
  4  5  1  0
  5  6  2  0
  6  7  1  0
  7  8  1  0
  8  9  1  0
  9 10  1  0
 10 11  1  0
 11 12  2  0
 12 13  1  0
 13 14  2  0
 14 15  1  0
 15 16  2  0
  8 17  2  0
 17 18  1  0
 18 19  1  0
 19 20  1  0
 20 21  1  0
 21 22  1  0
 22 23  1  0
 23 24  1  0
 24 25  1  0
 25 26  1  0
 18 27  2  0
 27 28  1  0
 28  4  2  0
 28  7  1  0
 16 11  1  0
  1 29  1  0
  1 30  1  0
  1 31  1  0
  2 32  1  0
  3 33  1  0
  3 34  1  0
  3 35  1  0
  5 36  1  0
  9 37  1  0
 10 38  1  0
 10 39  1  0
 12 40  1  0
 13 41  1  0
 14 42  1  0
 15 43  1  0
 16 44  1  0
 17 45  1  0
 19 46  1  0
 20 47  1  0
 20 48  1  0
 21 49  1  0
 21 50  1  0
 22 51  1  0
 22 52  1  0
 23 53  1  0
 23 54  1  0
 24 55  1  0
 24 56  1  0
 25 57  1  0
 25 58  1  0
 26 59  1  0
 26 60  1  0
M  END
$$$$
