
     RDKit          3D

 42 44  0  0  0  0  0  0  0  0999 V2000
   -0.0153    5.3031    0.2216 C   0  0  0  0  0  0  0  0  0  0  0  0
    0.5571    4.0337   -0.0697 O   0  0  0  0  0  0  0  0  0  0  0  0
   -0.2742    2.9401    0.0054 C   0  0  0  0  0  0  0  0  0  0  0  0
   -1.6129    2.9771    0.3966 C   0  0  0  0  0  0  0  0  0  0  0  0
   -2.3603    1.7957    0.4526 C   0  0  0  0  0  0  0  0  0  0  0  0
   -1.7882    0.5568    0.1286 C   0  0  0  0  0  0  0  0  0  0  0  0
   -2.5747   -0.6866    0.1938 C   0  0  0  0  0  0  0  0  0  0  0  0
   -2.6310   -1.5635   -0.9031 C   0  0  0  0  0  0  0  0  0  0  0  0
   -3.3727   -2.7463   -0.8434 C   0  0  0  0  0  0  0  0  0  0  0  0
   -4.0707   -3.0735    0.3160 C   0  0  0  0  0  0  0  0  0  0  0  0
   -4.0281   -2.2192    1.4148 C   0  0  0  0  0  0  0  0  0  0  0  0
   -3.2866   -1.0360    1.3535 C   0  0  0  0  0  0  0  0  0  0  0  0
   -0.4384    0.5331   -0.2608 C   0  0  0  0  0  0  0  0  0  0  0  0
    0.3116    1.7097   -0.3514 C   0  0  0  0  0  0  0  0  0  0  0  0
    1.7111    1.7225   -0.6619 N   0  0  0  0  0  0  0  0  0  0  0  0
    2.4519    0.5949   -1.6593 S   0  0  0  0  0  6  0  0  0  0  0  0
    1.4804    0.1666   -2.6418 O   0  0  0  0  0  0  0  0  0  0  0  0
    3.7212    1.1830   -2.0337 O   0  0  0  0  0  0  0  0  0  0  0  0
    2.8367   -0.7521   -0.5683 C   0  0  0  0  0  0  0  0  0  0  0  0
    2.9479   -0.5157    0.8096 C   0  0  0  0  0  0  0  0  0  0  0  0
    3.2150   -1.5759    1.6733 C   0  0  0  0  0  0  0  0  0  0  0  0
    3.3398   -1.2848    3.3641 Cl  0  0  0  0  0  0  0  0  0  0  0  0
    3.3800   -2.8680    1.1832 C   0  0  0  0  0  0  0  0  0  0  0  0
    3.2843   -3.0937   -0.1887 C   0  0  0  0  0  0  0  0  0  0  0  0
    3.5056   -4.6978   -0.7879 Cl  0  0  0  0  0  0  0  0  0  0  0  0
    3.0171   -2.0404   -1.0722 C   0  0  0  0  0  0  0  0  0  0  0  0
    2.9592   -2.2741   -2.4166 O   0  0  0  0  0  0  0  0  0  0  0  0
    0.7656    6.0586    0.0923 H   0  0  0  0  0  0  0  0  0  0  0  0
   -0.3565    5.3519    1.2608 H   0  0  0  0  0  0  0  0  0  0  0  0
   -0.8264    5.5403   -0.4748 H   0  0  0  0  0  0  0  0  0  0  0  0
   -2.1093    3.9033    0.6657 H   0  0  0  0  0  0  0  0  0  0  0  0
   -3.4076    1.8510    0.7460 H   0  0  0  0  0  0  0  0  0  0  0  0
   -2.1012   -1.3234   -1.8241 H   0  0  0  0  0  0  0  0  0  0  0  0
   -3.4056   -3.4084   -1.7048 H   0  0  0  0  0  0  0  0  0  0  0  0
   -4.6478   -3.9933    0.3627 H   0  0  0  0  0  0  0  0  0  0  0  0
   -4.5696   -2.4735    2.3223 H   0  0  0  0  0  0  0  0  0  0  0  0
   -3.2582   -0.3903    2.2288 H   0  0  0  0  0  0  0  0  0  0  0  0
    0.0088   -0.4278   -0.4955 H   0  0  0  0  0  0  0  0  0  0  0  0
    2.1271    2.6538   -0.7358 H   0  0  0  0  0  0  0  0  0  0  0  0
    2.8301    0.4860    1.2157 H   0  0  0  0  0  0  0  0  0  0  0  0
    3.5875   -3.6900    1.8630 H   0  0  0  0  0  0  0  0  0  0  0  0
    3.0971   -3.2270   -2.5766 H   0  0  0  0  0  0  0  0  0  0  0  0
  1  2  1  0
  2  3  1  0
  3  4  2  0
  4  5  1  0
  5  6  2  0
  6  7  1  0
  7  8  2  0
  8  9  1  0
  9 10  2  0
 10 11  1  0
 11 12  2  0
  6 13  1  0
 13 14  2  0
 14 15  1  0
 15 16  1  0
 16 17  2  0
 16 18  2  0
 16 19  1  0
 19 20  2  0
 20 21  1  0
 21 22  1  0
 21 23  2  0
 23 24  1  0
 24 25  1  0
 24 26  2  0
 26 27  1  0
 14  3  1  0
 26 19  1  0
 12  7  1  0
  1 28  1  0
  1 29  1  0
  1 30  1  0
  4 31  1  0
  5 32  1  0
  8 33  1  0
  9 34  1  0
 10 35  1  0
 11 36  1  0
 12 37  1  0
 13 38  1  0
 15 39  1  0
 20 40  1  0
 23 41  1  0
 27 42  1  0
M  END
$$$$
