
     RDKit          3D

 50 53  0  0  0  0  0  0  0  0999 V2000
   -6.7966   -0.2303    2.9206 C   0  0  0  0  0  0  0  0  0  0  0  0
   -7.1623   -0.2392    1.5118 N   0  0  0  0  0  0  0  0  0  0  0  0
   -6.0894   -0.2978    0.6077 C   0  0  0  0  0  0  0  0  0  0  0  0
   -4.8314   -0.2252    1.0880 N   0  0  0  0  0  0  0  0  0  0  0  0
   -3.7996   -0.2366    0.2286 C   0  0  0  0  0  0  0  0  0  0  0  0
   -2.5347   -0.1868    0.8110 N   0  0  0  0  0  0  0  0  0  0  0  0
   -1.3043   -0.1736    0.2594 C   0  0  0  0  0  0  0  0  0  0  0  0
   -0.9049   -0.1782   -1.0936 C   0  0  0  0  0  0  0  0  0  0  0  0
    0.4276   -0.1685   -1.2411 N   0  0  0  0  0  0  0  0  0  0  0  0
    0.8909   -0.1452    0.0363 N   0  0  0  0  0  0  0  0  0  0  0  0
    2.3337   -0.1217    0.2501 C   0  0  1  0  0  0  0  0  0  0  0  0
    2.9975   -1.3962   -0.2906 C   0  0  0  0  0  0  0  0  0  0  0  0
    4.5122   -1.2804   -0.1386 C   0  0  0  0  0  0  0  0  0  0  0  0
    5.1053   -0.1424   -0.8613 N   0  0  0  0  0  0  0  0  0  0  0  0
    6.1175    0.5142   -0.0004 C   0  0  0  0  0  0  0  0  0  0  0  0
    7.0876    1.3802   -0.8263 C   0  0  0  0  0  0  0  0  0  0  0  0
    8.2336    0.7132   -0.2193 O   0  0  0  0  0  0  0  0  0  0  0  0
    7.3617   -0.3823    0.1819 C   0  0  0  0  0  0  0  0  0  0  0  0
    4.0962    0.8442   -1.3176 C   0  0  0  0  0  0  0  0  0  0  0  0
    2.9592    1.1497   -0.3335 C   0  0  2  0  0  0  0  0  0  0  0  0
    3.4673    1.8925    0.7017 F   0  0  0  0  0  0  0  0  0  0  0  0
   -0.1214   -0.1594    0.9533 C   0  0  0  0  0  0  0  0  0  0  0  0
    0.1741   -0.1841    2.6290 Cl  0  0  0  0  0  0  0  0  0  0  0  0
   -3.9536   -0.3041   -1.0974 N   0  0  0  0  0  0  0  0  0  0  0  0
   -5.2160   -0.3674   -1.5590 C   0  0  0  0  0  0  0  0  0  0  0  0
   -6.3304   -0.3672   -0.7494 C   0  0  0  0  0  0  0  0  0  0  0  0
   -7.6933   -0.4138   -1.3375 C   0  0  0  0  0  0  0  0  0  0  0  0
   -7.7006   -0.8566   -2.6281 F   0  0  0  0  0  0  0  0  0  0  0  0
   -8.3127    0.7969   -1.3674 F   0  0  0  0  0  0  0  0  0  0  0  0
   -8.5375   -1.2552   -0.6727 F   0  0  0  0  0  0  0  0  0  0  0  0
   -7.7080   -0.2076    3.5281 H   0  0  0  0  0  0  0  0  0  0  0  0
   -6.2414   -1.1347    3.1911 H   0  0  0  0  0  0  0  0  0  0  0  0
   -6.2105    0.6580    3.1795 H   0  0  0  0  0  0  0  0  0  0  0  0
   -7.8510   -0.9631    1.3151 H   0  0  0  0  0  0  0  0  0  0  0  0
   -2.6540   -0.1661    1.8189 H   0  0  0  0  0  0  0  0  0  0  0  0
   -1.5231   -0.1908   -1.9816 H   0  0  0  0  0  0  0  0  0  0  0  0
    2.4973   -0.1024    1.3352 H   0  0  0  0  0  0  0  0  0  0  0  0
    2.7384   -1.5687   -1.3464 H   0  0  0  0  0  0  0  0  0  0  0  0
    2.6345   -2.2728    0.2625 H   0  0  0  0  0  0  0  0  0  0  0  0
    4.7328   -1.2317    0.9360 H   0  0  0  0  0  0  0  0  0  0  0  0
    4.9810   -2.2025   -0.5012 H   0  0  0  0  0  0  0  0  0  0  0  0
    5.7574    0.9807    0.9224 H   0  0  0  0  0  0  0  0  0  0  0  0
    7.0659    2.4459   -0.5726 H   0  0  0  0  0  0  0  0  0  0  0  0
    7.0976    1.2542   -1.9161 H   0  0  0  0  0  0  0  0  0  0  0  0
    7.4856   -1.2314   -0.5022 H   0  0  0  0  0  0  0  0  0  0  0  0
    7.5592   -0.6967    1.2107 H   0  0  0  0  0  0  0  0  0  0  0  0
    3.6589    0.4546   -2.2489 H   0  0  0  0  0  0  0  0  0  0  0  0
    4.5830    1.7848   -1.6032 H   0  0  0  0  0  0  0  0  0  0  0  0
    2.2216    1.7961   -0.8277 H   0  0  0  0  0  0  0  0  0  0  0  0
   -5.3005   -0.4342   -2.6450 H   0  0  0  0  0  0  0  0  0  0  0  0
  1  2  1  0
  2  3  1  0
  3  4  2  0
  4  5  1  0
  5  6  1  0
  6  7  1  0
  7  8  1  0
  8  9  2  0
  9 10  1  0
 10 11  1  0
 11 12  1  0
 12 13  1  0
 13 14  1  0
 14 15  1  0
 15 16  1  0
 16 17  1  0
 17 18  1  0
 14 19  1  0
 19 20  1  0
 20 21  1  0
 10 22  1  0
 22 23  1  0
  5 24  2  0
 24 25  1  0
 25 26  2  0
 26 27  1  0
 27 28  1  0
 27 29  1  0
 27 30  1  0
 26  3  1  0
 22  7  2  0
 20 11  1  0
 18 15  1  0
  1 31  1  0
  1 32  1  0
  1 33  1  0
  2 34  1  0
  6 35  1  0
  8 36  1  0
 11 37  1  1
 12 38  1  0
 12 39  1  0
 13 40  1  0
 13 41  1  0
 15 42  1  0
 16 43  1  0
 16 44  1  0
 18 45  1  0
 18 46  1  0
 19 47  1  0
 19 48  1  0
 20 49  1  6
 25 50  1  0
M  END
$$$$
