
     RDKit          3D

 56 59  0  0  0  0  0  0  0  0999 V2000
   -5.9547    3.8753   -0.5918 C   0  0  0  0  0  0  0  0  0  0  0  0
   -5.4707    3.4969    0.7914 C   0  0  0  0  0  0  0  0  0  0  0  0
   -3.6884    3.5664    0.9463 S   0  0  0  0  0  6  0  0  0  0  0  0
   -3.2342    4.8783    0.5362 O   0  0  0  0  0  0  0  0  0  0  0  0
   -3.3050    3.0202    2.2301 O   0  0  0  0  0  0  0  0  0  0  0  0
   -3.1571    2.4605   -0.2278 N   0  0  0  0  0  0  0  0  0  0  0  0
   -3.5344    1.0256   -0.0294 C   0  0  0  0  0  0  0  0  0  0  0  0
   -2.4311    0.2389   -0.7428 C   0  0  0  0  0  0  0  0  0  0  0  0
   -2.3759   -1.2002   -0.4074 C   0  0  0  0  0  0  0  0  0  0  0  0
   -1.5264   -2.1053   -0.8382 N   0  0  0  0  0  0  0  0  0  0  0  0
   -1.9266   -3.2226   -0.1491 C   0  0  0  0  0  0  0  0  0  0  0  0
   -1.2124   -4.5085   -0.2439 C   0  0  0  0  0  0  0  0  0  0  0  0
   -3.0022   -3.0485    0.6287 N   0  0  0  0  0  0  0  0  0  0  0  0
   -3.3043   -1.7001    0.4580 O   0  0  0  0  0  0  0  0  0  0  0  0
   -1.1953    1.0647   -0.3727 C   0  0  0  0  0  0  0  0  0  0  0  0
   -0.4935    0.7678    0.9803 C   0  0  0  0  0  0  0  0  0  0  0  0
    0.5620    0.1420    0.1959 N   0  0  0  0  0  0  0  0  0  0  0  0
    1.1986   -1.0477    0.4689 C   0  0  0  0  0  0  0  0  0  0  0  0
    1.1303   -1.5806    1.5742 O   0  0  0  0  0  0  0  0  0  0  0  0
    1.9993   -1.6326   -0.7005 C   0  0  0  0  0  0  0  0  0  0  0  0
    2.9307   -2.6466   -0.3562 O   0  0  0  0  0  0  0  0  0  0  0  0
    4.1936   -2.2422   -0.0211 C   0  0  0  0  0  0  0  0  0  0  0  0
    5.1751   -3.2274   -0.1408 C   0  0  0  0  0  0  0  0  0  0  0  0
    6.5059   -2.9439    0.1642 C   0  0  0  0  0  0  0  0  0  0  0  0
    6.8618   -1.6695    0.6009 C   0  0  0  0  0  0  0  0  0  0  0  0
    5.8888   -0.6733    0.7397 C   0  0  0  0  0  0  0  0  0  0  0  0
    6.2769    0.6827    1.2498 C   0  0  0  0  0  0  0  0  0  0  0  0
    4.5506   -0.9720    0.4387 C   0  0  0  0  0  0  0  0  0  0  0  0
    0.1430    0.7310   -1.0660 C   0  0  0  0  0  0  0  0  0  0  0  0
   -1.6844    2.5055   -0.4955 C   0  0  0  0  0  0  0  0  0  0  0  0
   -5.6230    4.8817   -0.8629 H   0  0  0  0  0  0  0  0  0  0  0  0
   -5.5794    3.1859   -1.3533 H   0  0  0  0  0  0  0  0  0  0  0  0
   -7.0489    3.8582   -0.6337 H   0  0  0  0  0  0  0  0  0  0  0  0
   -5.8694    4.1943    1.5335 H   0  0  0  0  0  0  0  0  0  0  0  0
   -5.7935    2.4893    1.0644 H   0  0  0  0  0  0  0  0  0  0  0  0
   -3.5710    0.7821    1.0388 H   0  0  0  0  0  0  0  0  0  0  0  0
   -4.5158    0.8272   -0.4717 H   0  0  0  0  0  0  0  0  0  0  0  0
   -2.5959    0.3196   -1.8268 H   0  0  0  0  0  0  0  0  0  0  0  0
   -0.4559   -4.5809    0.5432 H   0  0  0  0  0  0  0  0  0  0  0  0
   -1.9001   -5.3530   -0.1421 H   0  0  0  0  0  0  0  0  0  0  0  0
   -0.7101   -4.5990   -1.2113 H   0  0  0  0  0  0  0  0  0  0  0  0
   -0.1201    1.6316    1.5392 H   0  0  0  0  0  0  0  0  0  0  0  0
   -1.0165    0.0947    1.6650 H   0  0  0  0  0  0  0  0  0  0  0  0
    1.2701   -2.1050   -1.3687 H   0  0  0  0  0  0  0  0  0  0  0  0
    2.4768   -0.8343   -1.2824 H   0  0  0  0  0  0  0  0  0  0  0  0
    4.8992   -4.2239   -0.4767 H   0  0  0  0  0  0  0  0  0  0  0  0
    7.2619   -3.7178    0.0652 H   0  0  0  0  0  0  0  0  0  0  0  0
    7.9008   -1.4586    0.8425 H   0  0  0  0  0  0  0  0  0  0  0  0
    7.1485    1.0566    0.7054 H   0  0  0  0  0  0  0  0  0  0  0  0
    5.4698    1.4087    1.1097 H   0  0  0  0  0  0  0  0  0  0  0  0
    6.5119    0.6283    2.3158 H   0  0  0  0  0  0  0  0  0  0  0  0
    3.8032   -0.2010    0.5927 H   0  0  0  0  0  0  0  0  0  0  0  0
    0.0795    0.0348   -1.9058 H   0  0  0  0  0  0  0  0  0  0  0  0
    0.7654    1.5870   -1.3433 H   0  0  0  0  0  0  0  0  0  0  0  0
   -1.5579    2.8718   -1.5199 H   0  0  0  0  0  0  0  0  0  0  0  0
   -1.1495    3.1869    0.1712 H   0  0  0  0  0  0  0  0  0  0  0  0
  1  2  1  0
  2  3  1  0
  3  4  2  0
  3  5  2  0
  3  6  1  0
  6  7  1  0
  7  8  1  0
  8  9  1  0
  9 10  2  0
 10 11  1  0
 11 12  1  0
 11 13  2  0
 13 14  1  0
  8 15  1  0
 15 16  1  0
 16 17  1  0
 17 18  1  0
 18 19  2  0
 18 20  1  0
 20 21  1  0
 21 22  1  0
 22 23  2  0
 23 24  1  0
 24 25  2  0
 25 26  1  0
 26 27  1  0
 26 28  2  0
 17 29  1  0
 15 30  1  0
 30  6  1  0
 14  9  1  0
 29 15  1  0
 28 22  1  0
  1 31  1  0
  1 32  1  0
  1 33  1  0
  2 34  1  0
  2 35  1  0
  7 36  1  0
  7 37  1  0
  8 38  1  0
 12 39  1  0
 12 40  1  0
 12 41  1  0
 16 42  1  0
 16 43  1  0
 20 44  1  0
 20 45  1  0
 23 46  1  0
 24 47  1  0
 25 48  1  0
 27 49  1  0
 27 50  1  0
 27 51  1  0
 28 52  1  0
 29 53  1  0
 29 54  1  0
 30 55  1  0
 30 56  1  0
M  END
$$$$
