
     RDKit          3D

 63 67  0  0  0  0  0  0  0  0999 V2000
    3.5231    0.7293    2.4976 C   0  0  0  0  0  0  0  0  0  0  0  0
    4.9274    0.9662    2.0931 C   0  0  0  0  0  0  0  0  0  0  0  0
    5.7551    1.6202    2.9156 N   0  0  0  0  0  0  0  0  0  0  0  0
    6.9622    1.6961    2.2531 O   0  0  0  0  0  0  0  0  0  0  0  0
    6.8555    1.0945    1.0400 C   0  0  0  0  0  0  0  0  0  0  0  0
    8.0750    1.1068    0.2107 C   0  0  0  0  0  0  0  0  0  0  0  0
    5.5776    0.5999    0.8810 C   0  0  0  0  0  0  0  0  0  0  0  0
    5.0080   -0.1370   -0.2795 C   0  0  0  0  0  0  0  0  0  0  0  0
    4.1331    0.7256   -1.1177 C   0  0  0  0  0  0  0  0  0  0  0  0
    4.3844    1.7620   -1.9893 C   0  0  0  0  0  0  0  0  0  0  0  0
    3.1264    2.1720   -2.4869 C   0  0  0  0  0  0  0  0  0  0  0  0
    2.1675    1.3725   -1.8884 C   0  0  0  0  0  0  0  0  0  0  0  0
    0.7244    1.3656   -2.0791 C   0  0  0  0  0  0  0  0  0  0  0  0
    0.2006    2.0239   -2.9814 O   0  0  0  0  0  0  0  0  0  0  0  0
   -0.0795    0.6066   -1.2372 N   0  0  0  0  0  0  0  0  0  0  0  0
    0.3112   -0.1420   -0.0529 C   0  0  0  0  0  0  0  0  0  0  0  0
   -0.9938   -0.4945    0.6519 C   0  0  0  0  0  0  0  0  0  0  0  0
   -2.0014   -0.5527   -0.4995 C   0  0  0  0  0  0  0  0  0  0  0  0
   -3.4195   -0.5420   -0.0956 N   0  0  0  0  0  0  0  0  0  0  0  0
   -4.0835    0.4997    0.5717 C   0  0  0  0  0  0  0  0  0  0  0  0
   -5.1919    0.3551    1.0800 O   0  0  0  0  0  0  0  0  0  0  0  0
   -3.4620    1.8564    0.6365 C   0  0  0  0  0  0  0  0  0  0  0  0
   -3.9359    2.9324   -0.3188 C   0  0  0  0  0  0  0  0  0  0  0  0
   -4.2726    3.0385    1.1352 C   0  0  0  0  0  0  0  0  0  0  0  0
   -4.1765   -1.8107   -0.2482 C   0  0  0  0  0  0  0  0  0  0  0  0
   -4.3234   -2.2381   -1.7198 C   0  0  0  0  0  0  0  0  0  0  0  0
   -4.3692   -3.7543   -1.8613 C   0  0  0  0  0  0  0  0  0  0  0  0
   -5.1109   -4.3239   -0.7908 O   0  0  0  0  0  0  0  0  0  0  0  0
   -4.4655   -4.1996    0.4767 C   0  0  0  0  0  0  0  0  0  0  0  0
   -3.6099   -2.9418    0.6127 C   0  0  0  0  0  0  0  0  0  0  0  0
   -1.5124    0.5172   -1.4796 C   0  0  0  0  0  0  0  0  0  0  0  0
    2.7930    0.4811   -1.0569 O   0  0  0  0  0  0  0  0  0  0  0  0
    2.8740    1.5029    2.0759 H   0  0  0  0  0  0  0  0  0  0  0  0
    3.4132    0.7466    3.5878 H   0  0  0  0  0  0  0  0  0  0  0  0
    3.1720   -0.2457    2.1450 H   0  0  0  0  0  0  0  0  0  0  0  0
    7.8485    0.8696   -0.8327 H   0  0  0  0  0  0  0  0  0  0  0  0
    8.5486    2.0934    0.2345 H   0  0  0  0  0  0  0  0  0  0  0  0
    8.7936    0.3702    0.5821 H   0  0  0  0  0  0  0  0  0  0  0  0
    5.8127   -0.5415   -0.9052 H   0  0  0  0  0  0  0  0  0  0  0  0
    4.4434   -1.0047    0.0833 H   0  0  0  0  0  0  0  0  0  0  0  0
    5.3549    2.1708   -2.2346 H   0  0  0  0  0  0  0  0  0  0  0  0
    2.9222    2.9580   -3.2014 H   0  0  0  0  0  0  0  0  0  0  0  0
    0.8337   -1.0470   -0.3803 H   0  0  0  0  0  0  0  0  0  0  0  0
    0.9665    0.4538    0.5875 H   0  0  0  0  0  0  0  0  0  0  0  0
   -1.2414    0.2714    1.3900 H   0  0  0  0  0  0  0  0  0  0  0  0
   -0.9214   -1.4422    1.1943 H   0  0  0  0  0  0  0  0  0  0  0  0
   -1.8177   -1.5104   -1.0047 H   0  0  0  0  0  0  0  0  0  0  0  0
   -2.4254    1.8881    0.9413 H   0  0  0  0  0  0  0  0  0  0  0  0
   -3.1994    3.6191   -0.7204 H   0  0  0  0  0  0  0  0  0  0  0  0
   -4.7412    2.6940   -1.0059 H   0  0  0  0  0  0  0  0  0  0  0  0
   -3.7611    3.7904    1.7255 H   0  0  0  0  0  0  0  0  0  0  0  0
   -5.3033    2.8728    1.4321 H   0  0  0  0  0  0  0  0  0  0  0  0
   -5.2010   -1.6504    0.1099 H   0  0  0  0  0  0  0  0  0  0  0  0
   -3.5368   -1.8412   -2.3696 H   0  0  0  0  0  0  0  0  0  0  0  0
   -5.2605   -1.8092   -2.0987 H   0  0  0  0  0  0  0  0  0  0  0  0
   -3.3612   -4.1857   -1.8807 H   0  0  0  0  0  0  0  0  0  0  0  0
   -4.8568   -4.0246   -2.8033 H   0  0  0  0  0  0  0  0  0  0  0  0
   -3.8564   -5.0936    0.6505 H   0  0  0  0  0  0  0  0  0  0  0  0
   -5.2552   -4.1974    1.2353 H   0  0  0  0  0  0  0  0  0  0  0  0
   -2.5886   -3.1829    0.2947 H   0  0  0  0  0  0  0  0  0  0  0  0
   -3.5376   -2.6471    1.6657 H   0  0  0  0  0  0  0  0  0  0  0  0
   -1.6996    0.2286   -2.5198 H   0  0  0  0  0  0  0  0  0  0  0  0
   -1.9354    1.5089   -1.3318 H   0  0  0  0  0  0  0  0  0  0  0  0
  1  2  1  0
  2  3  2  0
  3  4  1  0
  4  5  1  0
  5  6  1  0
  5  7  2  0
  7  8  1  0
  8  9  1  0
  9 10  2  0
 10 11  1  0
 11 12  2  0
 12 13  1  0
 13 14  2  0
 13 15  1  0
 15 16  1  0
 16 17  1  0
 17 18  1  0
 18 19  1  0
 19 20  1  0
 20 21  2  0
 20 22  1  0
 22 23  1  0
 23 24  1  0
 19 25  1  0
 25 26  1  0
 26 27  1  0
 27 28  1  0
 28 29  1  0
 29 30  1  0
 18 31  1  0
 12 32  1  0
  7  2  1  0
 32  9  1  0
 31 15  1  0
 24 22  1  0
 30 25  1  0
  1 33  1  0
  1 34  1  0
  1 35  1  0
  6 36  1  0
  6 37  1  0
  6 38  1  0
  8 39  1  0
  8 40  1  0
 10 41  1  0
 11 42  1  0
 16 43  1  0
 16 44  1  0
 17 45  1  0
 17 46  1  0
 18 47  1  0
 22 48  1  0
 23 49  1  0
 23 50  1  0
 24 51  1  0
 24 52  1  0
 25 53  1  0
 26 54  1  0
 26 55  1  0
 27 56  1  0
 27 57  1  0
 29 58  1  0
 29 59  1  0
 30 60  1  0
 30 61  1  0
 31 62  1  0
 31 63  1  0
M  END
$$$$
