
     RDKit          3D

 60 64  0  0  0  0  0  0  0  0999 V2000
   -1.0230    0.9688    1.4649 O   0  0  0  0  0  0  0  0  0  0  0  0
   -0.1214    0.6452    0.6960 C   0  0  0  0  0  0  0  0  0  0  0  0
   -0.2285   -0.4000   -0.1827 N   0  0  0  0  0  0  0  0  0  0  0  0
   -1.4768   -1.1134   -0.4200 C   0  0  1  0  0  0  0  0  0  0  0  0
   -2.2876   -0.4736   -1.5750 C   0  0  0  0  0  0  0  0  0  0  0  0
   -2.8483    0.7936   -1.2172 O   0  0  0  0  0  0  0  0  0  0  0  0
   -4.0164    0.8247   -0.5036 C   0  0  0  0  0  0  0  0  0  0  0  0
   -4.8148   -0.2941   -0.1694 C   0  0  0  0  0  0  0  0  0  0  0  0
   -6.0019   -0.1481    0.5647 C   0  0  0  0  0  0  0  0  0  0  0  0
   -6.3472    1.1267    0.9394 C   0  0  0  0  0  0  0  0  0  0  0  0
   -7.4461    1.5772    1.6619 N   0  0  0  0  0  0  0  0  0  0  0  0
   -7.3552    2.9704    1.7965 C   0  0  0  0  0  0  0  0  0  0  0  0
   -8.1437    3.6978    2.3731 O   0  0  0  0  0  0  0  0  0  0  0  0
   -6.1811    3.3615    1.1372 N   0  0  0  0  0  0  0  0  0  0  0  0
   -5.5650    2.2298    0.6139 C   0  0  0  0  0  0  0  0  0  0  0  0
   -4.3996    2.1130   -0.1041 C   0  0  0  0  0  0  0  0  0  0  0  0
   -1.1765   -2.5770   -0.6993 C   0  0  0  0  0  0  0  0  0  0  0  0
   -0.4947   -2.9833   -1.8588 C   0  0  0  0  0  0  0  0  0  0  0  0
   -0.2307   -4.3343   -2.0920 C   0  0  0  0  0  0  0  0  0  0  0  0
   -0.6385   -5.2951   -1.1697 C   0  0  0  0  0  0  0  0  0  0  0  0
   -1.3060   -4.9067   -0.0104 C   0  0  0  0  0  0  0  0  0  0  0  0
   -1.5710   -3.5566    0.2255 C   0  0  0  0  0  0  0  0  0  0  0  0
    1.1866    1.3701    0.6742 C   0  0  0  0  0  0  0  0  0  0  0  0
    1.3814    2.3325    1.5943 C   0  0  0  0  0  0  0  0  0  0  0  0
    2.6106    3.0791    1.6560 C   0  0  0  0  0  0  0  0  0  0  0  0
    3.5898    2.8271    0.7824 C   0  0  0  0  0  0  0  0  0  0  0  0
    3.4448    1.8569   -0.1945 N   0  0  0  0  0  0  0  0  0  0  0  0
    4.5503    1.6045   -1.1183 C   0  0  0  0  0  0  0  0  0  0  0  0
    5.6117    0.7099   -0.5150 C   0  0  0  0  0  0  0  0  0  0  0  0
    5.3886   -0.6722   -0.3832 C   0  0  0  0  0  0  0  0  0  0  0  0
    6.3598   -1.4991    0.1876 C   0  0  0  0  0  0  0  0  0  0  0  0
    7.5567   -0.9479    0.6293 C   0  0  0  0  0  0  0  0  0  0  0  0
    8.4862   -1.7437    1.1752 F   0  0  0  0  0  0  0  0  0  0  0  0
    7.7881    0.4156    0.5051 C   0  0  0  0  0  0  0  0  0  0  0  0
    8.9425    0.9461    0.9314 F   0  0  0  0  0  0  0  0  0  0  0  0
    6.8260    1.2477   -0.0616 C   0  0  0  0  0  0  0  0  0  0  0  0
    2.2819    1.0882   -0.3114 C   0  0  0  0  0  0  0  0  0  0  0  0
    2.1352    0.2173   -1.1715 O   0  0  0  0  0  0  0  0  0  0  0  0
    0.5494   -0.5736   -0.8173 H   0  0  0  0  0  0  0  0  0  0  0  0
   -2.0685   -1.0420    0.5000 H   0  0  0  0  0  0  0  0  0  0  0  0
   -1.6172   -0.2723   -2.4204 H   0  0  0  0  0  0  0  0  0  0  0  0
   -3.0581   -1.1443   -1.9736 H   0  0  0  0  0  0  0  0  0  0  0  0
   -4.5368   -1.3002   -0.4661 H   0  0  0  0  0  0  0  0  0  0  0  0
   -6.6115   -1.0054    0.8229 H   0  0  0  0  0  0  0  0  0  0  0  0
   -8.1946    1.0250    2.0450 H   0  0  0  0  0  0  0  0  0  0  0  0
   -5.8569    4.3123    1.0816 H   0  0  0  0  0  0  0  0  0  0  0  0
   -3.7905    2.9746   -0.3474 H   0  0  0  0  0  0  0  0  0  0  0  0
   -0.1544   -2.2514   -2.5884 H   0  0  0  0  0  0  0  0  0  0  0  0
    0.2983   -4.6367   -2.9923 H   0  0  0  0  0  0  0  0  0  0  0  0
   -0.4299   -6.3462   -1.3507 H   0  0  0  0  0  0  0  0  0  0  0  0
   -1.6161   -5.6553    0.7144 H   0  0  0  0  0  0  0  0  0  0  0  0
   -2.0838   -3.2732    1.1430 H   0  0  0  0  0  0  0  0  0  0  0  0
    0.6174    2.5756    2.3290 H   0  0  0  0  0  0  0  0  0  0  0  0
    2.7203    3.8378    2.4246 H   0  0  0  0  0  0  0  0  0  0  0  0
    4.5274    3.3745    0.8140 H   0  0  0  0  0  0  0  0  0  0  0  0
    4.9823    2.5675   -1.4201 H   0  0  0  0  0  0  0  0  0  0  0  0
    4.1792    1.1426   -2.0415 H   0  0  0  0  0  0  0  0  0  0  0  0
    4.4523   -1.1119   -0.7251 H   0  0  0  0  0  0  0  0  0  0  0  0
    6.1879   -2.5658    0.2907 H   0  0  0  0  0  0  0  0  0  0  0  0
    7.0376    2.3097   -0.1425 H   0  0  0  0  0  0  0  0  0  0  0  0
  1  2  2  0
  2  3  1  0
  3  4  1  0
  4  5  1  0
  5  6  1  0
  6  7  1  0
  7  8  2  0
  8  9  1  0
  9 10  2  0
 10 11  1  0
 11 12  1  0
 12 13  2  0
 12 14  1  0
 14 15  1  0
 15 16  2  0
  4 17  1  0
 17 18  2  0
 18 19  1  0
 19 20  2  0
 20 21  1  0
 21 22  2  0
  2 23  1  0
 23 24  2  0
 24 25  1  0
 25 26  2  0
 26 27  1  0
 27 28  1  0
 28 29  1  0
 29 30  2  0
 30 31  1  0
 31 32  2  0
 32 33  1  0
 32 34  1  0
 34 35  1  0
 34 36  2  0
 27 37  1  0
 37 38  2  0
 16  7  1  0
 22 17  1  0
 37 23  1  0
 15 10  1  0
 36 29  1  0
  3 39  1  0
  4 40  1  1
  5 41  1  0
  5 42  1  0
  8 43  1  0
  9 44  1  0
 11 45  1  0
 14 46  1  0
 16 47  1  0
 18 48  1  0
 19 49  1  0
 20 50  1  0
 21 51  1  0
 22 52  1  0
 24 53  1  0
 25 54  1  0
 26 55  1  0
 28 56  1  0
 28 57  1  0
 30 58  1  0
 31 59  1  0
 36 60  1  0
M  END
$$$$
