
     RDKit          3D

 31 33  0  0  0  0  0  0  0  0999 V2000
   -3.3229   -0.7144    1.4091 N   0  0  0  0  0  0  0  0  0  0  0  0
   -3.5548    0.5294    0.3107 S   0  0  0  0  0  6  0  0  0  0  0  0
   -4.0342   -0.0330   -0.9231 O   0  0  0  0  0  0  0  0  0  0  0  0
   -4.3085    1.5180    1.0482 O   0  0  0  0  0  0  0  0  0  0  0  0
   -1.8890    1.1304    0.0586 C   0  0  0  0  0  0  0  0  0  0  0  0
   -1.7537    2.5099    0.2868 C   0  0  0  0  0  0  0  0  0  0  0  0
   -0.5023    3.0808    0.3523 C   0  0  0  0  0  0  0  0  0  0  0  0
    0.6188    2.2693    0.2375 C   0  0  0  0  0  0  0  0  0  0  0  0
    0.5438    0.8732   -0.0037 C   0  0  0  0  0  0  0  0  0  0  0  0
   -0.7455    0.2671   -0.1830 C   0  0  0  0  0  0  0  0  0  0  0  0
   -0.6956   -1.1192   -0.5812 C   0  0  0  0  0  0  0  0  0  0  0  0
   -1.8384   -1.8134   -1.1428 N   0  0  0  0  0  4  0  0  0  0  0  0
   -2.4447   -2.5944   -0.3954 O   0  0  0  0  0  0  0  0  0  0  0  0
   -2.0432   -1.6437   -2.3499 O   0  0  0  0  0  1  0  0  0  0  0  0
    0.4803   -1.8826   -0.6628 C   0  0  0  0  0  0  0  0  0  0  0  0
    1.6889   -1.2812   -0.3881 C   0  0  0  0  0  0  0  0  0  0  0  0
    2.8532   -2.0501   -0.4620 N   0  0  0  0  0  0  0  0  0  0  0  0
    4.1116   -1.5486   -0.2295 C   0  0  0  0  0  0  0  0  0  0  0  0
    5.1102   -2.2497   -0.3038 O   0  0  0  0  0  0  0  0  0  0  0  0
    4.1933   -0.0536    0.1317 C   0  0  0  0  0  0  0  0  0  0  0  0
    5.2616    0.4908    0.3737 O   0  0  0  0  0  0  0  0  0  0  0  0
    3.0068    0.6435    0.1732 N   0  0  0  0  0  0  0  0  0  0  0  0
    1.7373    0.0826   -0.0766 C   0  0  0  0  0  0  0  0  0  0  0  0
   -3.5674   -1.6203    0.9893 H   0  0  0  0  0  0  0  0  0  0  0  0
   -3.8421   -0.5193    2.2671 H   0  0  0  0  0  0  0  0  0  0  0  0
   -2.6247    3.1454    0.4452 H   0  0  0  0  0  0  0  0  0  0  0  0
   -0.3937    4.1483    0.5319 H   0  0  0  0  0  0  0  0  0  0  0  0
    1.5731    2.7819    0.3301 H   0  0  0  0  0  0  0  0  0  0  0  0
    0.4380   -2.9252   -0.9740 H   0  0  0  0  0  0  0  0  0  0  0  0
    2.8211   -3.0338   -0.6993 H   0  0  0  0  0  0  0  0  0  0  0  0
    3.1228    1.6118    0.4300 H   0  0  0  0  0  0  0  0  0  0  0  0
  1  2  1  0
  2  3  2  0
  2  4  2  0
  2  5  1  0
  5  6  2  0
  6  7  1  0
  7  8  2  0
  8  9  1  0
  9 10  2  0
 10 11  1  0
 11 12  1  0
 12 13  2  0
 12 14  1  0
 11 15  2  0
 15 16  1  0
 16 17  1  0
 17 18  1  0
 18 19  2  0
 18 20  1  0
 20 21  2  0
 20 22  1  0
 22 23  1  0
 10  5  1  0
 23 16  2  0
 23  9  1  0
  1 24  1  0
  1 25  1  0
  6 26  1  0
  7 27  1  0
  8 28  1  0
 15 29  1  0
 17 30  1  0
 22 31  1  0
M  CHG  2  12   1  14  -1
M  END
$$$$
