
     RDKit          3D

 66 69  0  0  0  0  0  0  0  0999 V2000
   -8.0615    3.0005   -0.5846 C   0  0  0  0  0  0  0  0  0  0  0  0
   -7.1611    1.7745   -0.7540 C   0  0  0  0  0  0  0  0  0  0  0  0
   -7.7911    0.8066   -1.7556 C   0  0  0  0  0  0  0  0  0  0  0  0
   -6.9028    1.1222    0.6202 C   0  0  0  0  0  0  0  0  0  0  0  0
   -5.8862    0.0733    0.5849 N   0  0  0  0  0  0  0  0  0  0  0  0
   -4.5489    0.4795    0.5743 C   0  0  0  0  0  0  0  0  0  0  0  0
   -4.1936    1.6520    0.6279 O   0  0  0  0  0  0  0  0  0  0  0  0
   -3.4935   -0.6274    0.5168 C   0  0  0  0  0  0  0  0  0  0  0  0
   -2.0463   -0.2718    0.4274 C   0  0  0  0  0  0  0  0  0  0  0  0
   -1.5940    0.8302   -0.3055 C   0  0  0  0  0  0  0  0  0  0  0  0
   -0.2251    1.1101   -0.3816 C   0  0  0  0  0  0  0  0  0  0  0  0
    0.7046    0.2917    0.2719 C   0  0  0  0  0  0  0  0  0  0  0  0
    2.1501    0.6312    0.1576 C   0  0  0  0  0  0  0  0  0  0  0  0
    2.5613    1.2561   -0.8131 O   0  0  0  0  0  0  0  0  0  0  0  0
    2.9584    0.2323    1.2012 N   0  0  0  0  0  0  0  0  0  0  0  0
    4.3699    0.5787    1.2359 C   0  0  0  0  0  0  0  0  0  0  0  0
    5.2124   -0.2687    0.2634 C   0  0  0  0  0  0  0  0  0  0  0  0
    6.6675   -0.0941    0.4436 N   0  0  0  0  0  0  0  0  0  0  0  0
    7.1112    1.2512    0.0141 C   0  0  0  0  0  0  0  0  0  0  0  0
    8.6470    1.4213    0.1004 C   0  0  0  0  0  0  0  0  0  0  0  0
    9.3702    0.4023   -0.6831 N   0  0  0  0  0  0  0  0  0  0  0  0
   10.8138    0.5515   -0.5225 C   0  0  0  0  0  0  0  0  0  0  0  0
    8.9305   -0.9394   -0.2579 C   0  0  0  0  0  0  0  0  0  0  0  0
    7.3969   -1.1056   -0.3542 C   0  0  0  0  0  0  0  0  0  0  0  0
    0.2579   -0.8308    0.9785 C   0  0  0  0  0  0  0  0  0  0  0  0
   -1.1111   -1.1099    1.0534 C   0  0  0  0  0  0  0  0  0  0  0  0
   -3.8114   -1.8881    0.5610 N   0  0  0  0  0  0  0  0  0  0  0  0
   -5.1632   -2.2498    0.6061 C   0  0  0  0  0  0  0  0  0  0  0  0
   -5.4488   -3.6205    0.6369 C   0  0  0  0  0  0  0  0  0  0  0  0
   -6.7635   -4.0778    0.6609 C   0  0  0  0  0  0  0  0  0  0  0  0
   -7.8061   -3.1601    0.6501 C   0  0  0  0  0  0  0  0  0  0  0  0
   -7.5340   -1.7883    0.6204 C   0  0  0  0  0  0  0  0  0  0  0  0
   -6.2130   -1.3139    0.6023 C   0  0  0  0  0  0  0  0  0  0  0  0
   -7.6015    3.7311    0.0891 H   0  0  0  0  0  0  0  0  0  0  0  0
   -9.0367    2.7229   -0.1702 H   0  0  0  0  0  0  0  0  0  0  0  0
   -8.2304    3.4959   -1.5466 H   0  0  0  0  0  0  0  0  0  0  0  0
   -6.2074    2.1164   -1.1751 H   0  0  0  0  0  0  0  0  0  0  0  0
   -8.7442    0.4145   -1.3858 H   0  0  0  0  0  0  0  0  0  0  0  0
   -7.9843    1.3095   -2.7095 H   0  0  0  0  0  0  0  0  0  0  0  0
   -7.1270   -0.0376   -1.9637 H   0  0  0  0  0  0  0  0  0  0  0  0
   -7.8323    0.7711    1.0763 H   0  0  0  0  0  0  0  0  0  0  0  0
   -6.5380    1.8995    1.3058 H   0  0  0  0  0  0  0  0  0  0  0  0
   -2.2854    1.4790   -0.8376 H   0  0  0  0  0  0  0  0  0  0  0  0
    0.1148    1.9710   -0.9554 H   0  0  0  0  0  0  0  0  0  0  0  0
    2.5399   -0.1084    2.0553 H   0  0  0  0  0  0  0  0  0  0  0  0
    4.7072    0.4181    2.2659 H   0  0  0  0  0  0  0  0  0  0  0  0
    4.4605    1.6461    1.0084 H   0  0  0  0  0  0  0  0  0  0  0  0
    4.9602   -1.3212    0.4517 H   0  0  0  0  0  0  0  0  0  0  0  0
    4.9181   -0.0634   -0.7738 H   0  0  0  0  0  0  0  0  0  0  0  0
    6.6615    2.0156    0.6572 H   0  0  0  0  0  0  0  0  0  0  0  0
    6.7862    1.4539   -1.0154 H   0  0  0  0  0  0  0  0  0  0  0  0
    8.9022    2.4193   -0.2761 H   0  0  0  0  0  0  0  0  0  0  0  0
    8.9500    1.3829    1.1558 H   0  0  0  0  0  0  0  0  0  0  0  0
   11.3457   -0.1871   -1.1324 H   0  0  0  0  0  0  0  0  0  0  0  0
   11.1322    0.4310    0.5193 H   0  0  0  0  0  0  0  0  0  0  0  0
   11.1384    1.5388   -0.8695 H   0  0  0  0  0  0  0  0  0  0  0  0
    9.3983   -1.6967   -0.8986 H   0  0  0  0  0  0  0  0  0  0  0  0
    9.2483   -1.1423    0.7740 H   0  0  0  0  0  0  0  0  0  0  0  0
    7.1419   -2.1083    0.0099 H   0  0  0  0  0  0  0  0  0  0  0  0
    7.0962   -1.0543   -1.4097 H   0  0  0  0  0  0  0  0  0  0  0  0
    0.9570   -1.5160    1.4491 H   0  0  0  0  0  0  0  0  0  0  0  0
   -1.4454   -1.9916    1.5977 H   0  0  0  0  0  0  0  0  0  0  0  0
   -4.6287   -4.3345    0.6362 H   0  0  0  0  0  0  0  0  0  0  0  0
   -6.9693   -5.1446    0.6824 H   0  0  0  0  0  0  0  0  0  0  0  0
   -8.8362   -3.5087    0.6626 H   0  0  0  0  0  0  0  0  0  0  0  0
   -8.3881   -1.1212    0.6037 H   0  0  0  0  0  0  0  0  0  0  0  0
  1  2  1  0
  2  3  1  0
  2  4  1  0
  4  5  1  0
  5  6  1  0
  6  7  2  0
  6  8  1  0
  8  9  1  0
  9 10  2  0
 10 11  1  0
 11 12  2  0
 12 13  1  0
 13 14  2  0
 13 15  1  0
 15 16  1  0
 16 17  1  0
 17 18  1  0
 18 19  1  0
 19 20  1  0
 20 21  1  0
 21 22  1  0
 21 23  1  0
 23 24  1  0
 12 25  1  0
 25 26  2  0
  8 27  2  0
 27 28  1  0
 28 29  2  0
 29 30  1  0
 30 31  2  0
 31 32  1  0
 32 33  2  0
 33  5  1  0
 26  9  1  0
 33 28  1  0
 24 18  1  0
  1 34  1  0
  1 35  1  0
  1 36  1  0
  2 37  1  0
  3 38  1  0
  3 39  1  0
  3 40  1  0
  4 41  1  0
  4 42  1  0
 10 43  1  0
 11 44  1  0
 15 45  1  0
 16 46  1  0
 16 47  1  0
 17 48  1  0
 17 49  1  0
 19 50  1  0
 19 51  1  0
 20 52  1  0
 20 53  1  0
 22 54  1  0
 22 55  1  0
 22 56  1  0
 23 57  1  0
 23 58  1  0
 24 59  1  0
 24 60  1  0
 25 61  1  0
 26 62  1  0
 29 63  1  0
 30 64  1  0
 31 65  1  0
 32 66  1  0
M  END
$$$$
