
     RDKit          3D

 48 51  0  0  0  0  0  0  0  0999 V2000
   -4.5421    1.4446    3.3860 C   0  0  0  0  0  0  0  0  0  0  0  0
   -4.8170    1.4888    1.9471 N   0  0  0  0  0  0  0  0  0  0  0  0
   -4.6502    0.1632    1.3282 C   0  0  0  0  0  0  0  0  0  0  0  0
   -3.9487    0.1932   -0.0290 C   0  0  0  0  0  0  0  0  0  0  0  0
   -2.5701    0.8606    0.1053 C   0  0  0  0  0  0  0  0  0  0  0  0
   -1.8882    1.0395   -1.2303 C   0  0  0  0  0  0  0  0  0  0  0  0
   -2.3911    1.7007   -2.3368 C   0  0  0  0  0  0  0  0  0  0  0  0
   -1.4594    1.6420   -3.3377 N   0  0  0  0  0  0  0  0  0  0  0  0
   -0.3400    0.9721   -2.9067 C   0  0  0  0  0  0  0  0  0  0  0  0
    0.8543    0.6882   -3.5759 C   0  0  0  0  0  0  0  0  0  0  0  0
    1.8536   -0.0002   -2.8714 C   0  0  0  0  0  0  0  0  0  0  0  0
    1.6670   -0.3988   -1.5497 C   0  0  0  0  0  0  0  0  0  0  0  0
    2.6487   -1.0639   -0.7823 N   0  0  0  0  0  0  0  0  0  0  0  0
    3.8949   -1.4979   -1.1959 C   0  0  0  0  0  0  0  0  0  0  0  0
    4.3368   -1.5017   -2.3378 O   0  0  0  0  0  0  0  0  0  0  0  0
    4.7537   -2.0448   -0.1063 C   0  0  0  0  0  0  0  0  0  0  0  0
    4.7482   -1.4832    1.1808 C   0  0  0  0  0  0  0  0  0  0  0  0
    5.5672   -2.0195    2.1763 C   0  0  0  0  0  0  0  0  0  0  0  0
    6.3956   -3.0976    1.8804 C   0  0  0  0  0  0  0  0  0  0  0  0
    7.1793   -3.6086    2.8393 F   0  0  0  0  0  0  0  0  0  0  0  0
    6.4271   -3.6487    0.6037 C   0  0  0  0  0  0  0  0  0  0  0  0
    5.6076   -3.1191   -0.3954 C   0  0  0  0  0  0  0  0  0  0  0  0
    0.4499   -0.1111   -0.9069 C   0  0  0  0  0  0  0  0  0  0  0  0
   -0.5736    0.5861   -1.5883 C   0  0  0  0  0  0  0  0  0  0  0  0
   -2.6453    2.1802    0.8991 C   0  0  0  0  0  0  0  0  0  0  0  0
   -4.0810    2.5569    1.2635 C   0  0  0  0  0  0  0  0  0  0  0  0
   -3.4925    1.2056    3.5981 H   0  0  0  0  0  0  0  0  0  0  0  0
   -5.1716    0.6958    3.8781 H   0  0  0  0  0  0  0  0  0  0  0  0
   -4.7796    2.4053    3.8578 H   0  0  0  0  0  0  0  0  0  0  0  0
   -4.0821   -0.5134    1.9835 H   0  0  0  0  0  0  0  0  0  0  0  0
   -5.6443   -0.2868    1.2072 H   0  0  0  0  0  0  0  0  0  0  0  0
   -3.8352   -0.8307   -0.4089 H   0  0  0  0  0  0  0  0  0  0  0  0
   -4.5782    0.7213   -0.7599 H   0  0  0  0  0  0  0  0  0  0  0  0
   -1.9476    0.1777    0.6984 H   0  0  0  0  0  0  0  0  0  0  0  0
   -3.3331    2.2100   -2.4939 H   0  0  0  0  0  0  0  0  0  0  0  0
   -1.5600    2.0605   -4.2506 H   0  0  0  0  0  0  0  0  0  0  0  0
    1.0170    0.9909   -4.6065 H   0  0  0  0  0  0  0  0  0  0  0  0
    2.7827   -0.2039   -3.3965 H   0  0  0  0  0  0  0  0  0  0  0  0
    2.3811   -1.2775    0.1692 H   0  0  0  0  0  0  0  0  0  0  0  0
    4.1388   -0.6138    1.4130 H   0  0  0  0  0  0  0  0  0  0  0  0
    5.5773   -1.5955    3.1753 H   0  0  0  0  0  0  0  0  0  0  0  0
    7.0917   -4.4818    0.3935 H   0  0  0  0  0  0  0  0  0  0  0  0
    5.6352   -3.5434   -1.3976 H   0  0  0  0  0  0  0  0  0  0  0  0
    0.2831   -0.4139    0.1209 H   0  0  0  0  0  0  0  0  0  0  0  0
   -2.1910    3.0114    0.3447 H   0  0  0  0  0  0  0  0  0  0  0  0
   -2.0513    2.0786    1.8185 H   0  0  0  0  0  0  0  0  0  0  0  0
   -4.6240    2.8036    0.3432 H   0  0  0  0  0  0  0  0  0  0  0  0
   -4.0936    3.4791    1.8538 H   0  0  0  0  0  0  0  0  0  0  0  0
  1  2  1  0
  2  3  1  0
  3  4  1  0
  4  5  1  0
  5  6  1  0
  6  7  2  0
  7  8  1  0
  8  9  1  0
  9 10  2  0
 10 11  1  0
 11 12  2  0
 12 13  1  0
 13 14  1  0
 14 15  2  0
 14 16  1  0
 16 17  2  0
 17 18  1  0
 18 19  2  0
 19 20  1  0
 19 21  1  0
 21 22  2  0
 12 23  1  0
 23 24  2  0
  5 25  1  0
 25 26  1  0
 26  2  1  0
 24  6  1  0
 24  9  1  0
 22 16  1  0
  1 27  1  0
  1 28  1  0
  1 29  1  0
  3 30  1  0
  3 31  1  0
  4 32  1  0
  4 33  1  0
  5 34  1  0
  7 35  1  0
  8 36  1  0
 10 37  1  0
 11 38  1  0
 13 39  1  0
 17 40  1  0
 18 41  1  0
 21 42  1  0
 22 43  1  0
 23 44  1  0
 25 45  1  0
 25 46  1  0
 26 47  1  0
 26 48  1  0
M  END
$$$$
