
     RDKit          3D

 40 43  0  0  0  0  0  0  0  0999 V2000
    4.3775    2.7042   -0.3990 C   0  0  0  0  0  0  0  0  0  0  0  0
    4.0658    1.5265    0.3346 O   0  0  0  0  0  0  0  0  0  0  0  0
    2.9201    0.8644   -0.0167 C   0  0  0  0  0  0  0  0  0  0  0  0
    2.0738    1.2011   -1.0705 C   0  0  0  0  0  0  0  0  0  0  0  0
    0.9331    0.4349   -1.3185 C   0  0  0  0  0  0  0  0  0  0  0  0
    0.6276   -0.6716   -0.5137 C   0  0  0  0  0  0  0  0  0  0  0  0
   -0.5845   -1.4193   -0.8035 C   0  0  0  0  0  0  0  0  0  0  0  0
   -0.5530   -2.6464   -1.4413 C   0  0  0  0  0  0  0  0  0  0  0  0
   -1.8447   -3.0721   -1.5947 N   0  0  0  0  0  0  0  0  0  0  0  0
   -2.7067   -2.1385   -1.0908 C   0  0  0  0  0  0  0  0  0  0  0  0
   -4.0465   -2.2654   -1.1213 N   0  0  0  0  0  0  0  0  0  0  0  0
   -4.6923   -1.2170   -0.5661 C   0  0  0  0  0  0  0  0  0  0  0  0
   -4.0909   -0.1016   -0.0053 C   0  0  0  0  0  0  0  0  0  0  0  0
   -2.6950   -0.0267    0.0074 C   0  0  0  0  0  0  0  0  0  0  0  0
   -2.0256    1.1174    0.5941 C   0  0  0  0  0  0  0  0  0  0  0  0
   -2.0688    2.4698    0.1315 C   0  0  0  0  0  0  0  0  0  0  0  0
   -1.3301    3.3180    0.9271 C   0  0  0  0  0  0  0  0  0  0  0  0
   -0.6028    2.4974    2.2396 S   0  0  0  0  0  0  0  0  0  0  0  0
   -1.2812    1.0037    1.7518 C   0  0  0  0  0  0  0  0  0  0  0  0
   -1.9582   -1.0844   -0.5693 C   0  0  0  0  0  0  0  0  0  0  0  0
    1.4766   -1.0177    0.5536 C   0  0  0  0  0  0  0  0  0  0  0  0
    1.1073   -2.1019    1.3099 O   0  0  0  0  0  0  0  0  0  0  0  0
    1.9048   -2.4130    2.4438 C   0  0  0  0  0  0  0  0  0  0  0  0
    2.6202   -0.2440    0.7858 C   0  0  0  0  0  0  0  0  0  0  0  0
    5.2937    3.1281    0.0232 H   0  0  0  0  0  0  0  0  0  0  0  0
    3.5863    3.4546   -0.2980 H   0  0  0  0  0  0  0  0  0  0  0  0
    4.5722    2.4725   -1.4513 H   0  0  0  0  0  0  0  0  0  0  0  0
    2.2676    2.0503   -1.7163 H   0  0  0  0  0  0  0  0  0  0  0  0
    0.2749    0.7093   -2.1399 H   0  0  0  0  0  0  0  0  0  0  0  0
    0.2755   -3.2484   -1.7905 H   0  0  0  0  0  0  0  0  0  0  0  0
   -2.1458   -3.9351   -2.0220 H   0  0  0  0  0  0  0  0  0  0  0  0
   -5.7768   -1.2997   -0.5802 H   0  0  0  0  0  0  0  0  0  0  0  0
   -4.6991    0.6868    0.4250 H   0  0  0  0  0  0  0  0  0  0  0  0
   -2.6039    2.8006   -0.7502 H   0  0  0  0  0  0  0  0  0  0  0  0
   -1.1815    4.3816    0.8031 H   0  0  0  0  0  0  0  0  0  0  0  0
   -1.0838    0.1104    2.3300 H   0  0  0  0  0  0  0  0  0  0  0  0
    2.9184   -2.7005    2.1459 H   0  0  0  0  0  0  0  0  0  0  0  0
    1.4504   -3.2727    2.9456 H   0  0  0  0  0  0  0  0  0  0  0  0
    1.9202   -1.5825    3.1574 H   0  0  0  0  0  0  0  0  0  0  0  0
    3.3049   -0.4730    1.5956 H   0  0  0  0  0  0  0  0  0  0  0  0
  1  2  1  0
  2  3  1  0
  3  4  2  0
  4  5  1  0
  5  6  2  0
  6  7  1  0
  7  8  2  0
  8  9  1  0
  9 10  1  0
 10 11  2  0
 11 12  1  0
 12 13  2  0
 13 14  1  0
 14 15  1  0
 15 16  1  0
 16 17  2  0
 17 18  1  0
 18 19  1  0
 14 20  2  0
  6 21  1  0
 21 22  1  0
 22 23  1  0
 21 24  2  0
 24  3  1  0
 20  7  1  0
 20 10  1  0
 19 15  2  0
  1 25  1  0
  1 26  1  0
  1 27  1  0
  4 28  1  0
  5 29  1  0
  8 30  1  0
  9 31  1  0
 12 32  1  0
 13 33  1  0
 16 34  1  0
 17 35  1  0
 19 36  1  0
 23 37  1  0
 23 38  1  0
 23 39  1  0
 24 40  1  0
M  END
$$$$
