
     RDKit          3D

 78 80  0  0  0  0  0  0  0  0999 V2000
    1.1836    4.5389    0.3876 C   0  0  0  0  0  0  0  0  0  0  0  0
    0.3656    3.3840    0.3546 O   0  0  0  0  0  0  0  0  0  0  0  0
    0.9167    2.1321    0.6255 C   0  0  0  0  0  0  0  0  0  0  0  0
    2.2363    1.9985    0.9313 C   0  0  0  0  0  0  0  0  0  0  0  0
    2.7514    0.7544    1.1925 C   0  0  0  0  0  0  0  0  0  0  0  0
    4.1837    0.5939    1.4751 C   0  0  0  0  0  0  0  0  0  0  0  0
    4.7826    1.4742    2.1367 O   0  0  0  0  0  0  0  0  0  0  0  0
    4.9016   -0.5539    1.0003 N   0  0  0  0  0  0  0  0  0  0  0  0
    6.3081   -0.6510    1.3478 C   0  0  0  0  0  0  0  0  0  0  0  0
    7.0463    0.0744    0.2015 C   0  0  0  0  0  0  0  0  0  0  0  0
    8.4685   -0.4265    0.2742 C   0  0  0  0  0  0  0  0  0  0  0  0
    8.4928   -1.7609   -0.3141 N   0  0  0  0  0  0  0  0  0  0  0  0
    9.6605   -2.4673    0.1746 C   0  0  0  0  0  0  0  0  0  0  0  0
    7.3018   -2.5003    0.0778 C   0  0  0  0  0  0  0  0  0  0  0  0
    6.7903   -2.0603    1.4574 C   0  0  0  0  0  0  0  0  0  0  0  0
    1.9323   -0.3455    1.1439 C   0  0  0  0  0  0  0  0  0  0  0  0
    2.4310   -1.6007    1.4117 F   0  0  0  0  0  0  0  0  0  0  0  0
    0.5864   -0.2012    0.8315 C   0  0  0  0  0  0  0  0  0  0  0  0
    0.0398    1.0320    0.5647 C   0  0  0  0  0  0  0  0  0  0  0  0
   -1.3034    1.2084    0.2141 N   0  0  0  0  0  0  0  0  0  0  0  0
   -2.3653    0.2922    0.3546 C   0  0  0  0  0  0  0  0  0  0  0  0
   -2.2471   -0.9295    0.8976 N   0  0  0  0  0  0  0  0  0  0  0  0
   -3.2456   -1.8065    1.0759 C   0  0  0  0  0  0  0  0  0  0  0  0
   -4.4967   -1.4591    0.6842 C   0  0  0  0  0  0  0  0  0  0  0  0
   -4.6503   -0.1914    0.1108 C   0  0  0  0  0  0  0  0  0  0  0  0
   -3.6126    0.6503   -0.0453 N   0  0  0  0  0  0  0  0  0  0  0  0
   -5.8791    0.3483   -0.3611 N   0  0  0  0  0  0  0  0  0  0  0  0
   -5.7965    1.0660   -1.6214 C   0  0  0  0  0  0  0  0  0  0  0  0
   -4.6201    0.7176   -2.4654 C   0  0  0  0  0  0  0  0  0  0  0  0
   -3.8406    1.9514   -2.7656 C   0  0  0  0  0  0  0  0  0  0  0  0
   -4.5552    3.1046   -2.1132 C   0  0  0  0  0  0  0  0  0  0  0  0
   -5.7950    2.5671   -1.4569 C   0  0  0  0  0  0  0  0  0  0  0  0
   -7.1558    0.2507    0.3208 C   0  0  0  0  0  0  0  0  0  0  0  0
   -7.7476   -1.1201    0.3135 C   0  0  0  0  0  0  0  0  0  0  0  0
   -8.8259   -1.0805    1.2068 F   0  0  0  0  0  0  0  0  0  0  0  0
   -8.3433   -1.3947   -0.9298 F   0  0  0  0  0  0  0  0  0  0  0  0
   -6.8902   -2.2212    0.7482 C   0  0  0  0  0  0  0  0  0  0  0  0
   -7.5678   -3.2640    1.0354 O   0  0  0  0  0  0  0  0  0  0  0  0
   -5.5085   -2.4468    0.9376 N   0  0  0  0  0  0  0  0  0  0  0  0
   -5.0102   -3.7114    1.4196 C   0  0  0  0  0  0  0  0  0  0  0  0
    0.6913    0.0000    0.0000 Cl  0  0  0  0  0  0  0  0  0  0  0  0
    0.6839    0.0000    0.0000 Cl  0  0  0  0  0  0  0  0  0  0  0  0
    1.4591    4.7605    1.4395 H   0  0  0  0  0  0  0  0  0  0  0  0
    2.1001    4.3067   -0.2235 H   0  0  0  0  0  0  0  0  0  0  0  0
    0.6429    5.3883   -0.1140 H   0  0  0  0  0  0  0  0  0  0  0  0
    2.8888    2.8705    0.9754 H   0  0  0  0  0  0  0  0  0  0  0  0
    4.4194   -1.2732    0.4241 H   0  0  0  0  0  0  0  0  0  0  0  0
    6.4996   -0.0182    2.2437 H   0  0  0  0  0  0  0  0  0  0  0  0
    6.5560   -0.0693   -0.7621 H   0  0  0  0  0  0  0  0  0  0  0  0
    6.9844    1.1734    0.4319 H   0  0  0  0  0  0  0  0  0  0  0  0
    8.7315   -0.5324    1.3501 H   0  0  0  0  0  0  0  0  0  0  0  0
    9.2018    0.2506   -0.1993 H   0  0  0  0  0  0  0  0  0  0  0  0
    9.3970   -3.0284    1.1141 H   0  0  0  0  0  0  0  0  0  0  0  0
   10.0396   -3.1904   -0.5738 H   0  0  0  0  0  0  0  0  0  0  0  0
   10.4371   -1.7338    0.4297 H   0  0  0  0  0  0  0  0  0  0  0  0
    7.5934   -3.5680    0.1751 H   0  0  0  0  0  0  0  0  0  0  0  0
    6.5106   -2.4728   -0.6934 H   0  0  0  0  0  0  0  0  0  0  0  0
    7.6646   -2.0977    2.1242 H   0  0  0  0  0  0  0  0  0  0  0  0
    5.9883   -2.7866    1.7208 H   0  0  0  0  0  0  0  0  0  0  0  0
    0.0238   -1.1186    0.8121 H   0  0  0  0  0  0  0  0  0  0  0  0
   -1.5452    2.1548   -0.2172 H   0  0  0  0  0  0  0  0  0  0  0  0
   -3.0533   -2.7494    1.5135 H   0  0  0  0  0  0  0  0  0  0  0  0
   -6.7311    0.7997   -2.1649 H   0  0  0  0  0  0  0  0  0  0  0  0
   -4.0167   -0.1521   -2.1222 H   0  0  0  0  0  0  0  0  0  0  0  0
   -4.9927    0.3466   -3.4928 H   0  0  0  0  0  0  0  0  0  0  0  0
   -3.7556    2.1691   -3.8722 H   0  0  0  0  0  0  0  0  0  0  0  0
   -2.7800    1.9297   -2.3807 H   0  0  0  0  0  0  0  0  0  0  0  0
   -4.8078    3.9243   -2.8441 H   0  0  0  0  0  0  0  0  0  0  0  0
   -3.9292    3.5773   -1.3313 H   0  0  0  0  0  0  0  0  0  0  0  0
   -5.8796    2.8827   -0.3845 H   0  0  0  0  0  0  0  0  0  0  0  0
   -6.6864    3.0378   -1.9660 H   0  0  0  0  0  0  0  0  0  0  0  0
   -7.1609    0.6266    1.3552 H   0  0  0  0  0  0  0  0  0  0  0  0
   -7.8416    0.9041   -0.2697 H   0  0  0  0  0  0  0  0  0  0  0  0
   -4.6213   -3.6542    2.4646 H   0  0  0  0  0  0  0  0  0  0  0  0
   -4.3395   -4.2304    0.7330 H   0  0  0  0  0  0  0  0  0  0  0  0
   -5.9195   -4.3734    1.5217 H   0  0  0  0  0  0  0  0  0  0  0  0
   -0.6913    0.0000    0.0000 H   0  0  0  0  0  0  0  0  0  0  0  0
   -0.6839    0.0000    0.0000 H   0  0  0  0  0  0  0  0  0  0  0  0
  1  2  1  0
  2  3  1  0
  3  4  2  0
  4  5  1  0
  5  6  1  0
  6  7  2  0
  6  8  1  0
  8  9  1  0
  9 10  1  0
 10 11  1  0
 11 12  1  0
 12 13  1  0
 12 14  1  0
 14 15  1  0
  5 16  2  0
 16 17  1  0
 16 18  1  0
 18 19  2  0
 19 20  1  0
 20 21  1  0
 21 22  2  0
 22 23  1  0
 23 24  2  0
 24 25  1  0
 25 26  2  0
 25 27  1  0
 27 28  1  0
 28 29  1  0
 29 30  1  0
 30 31  1  0
 31 32  1  0
 27 33  1  0
 33 34  1  0
 34 35  1  0
 34 36  1  0
 34 37  1  0
 37 38  2  0
 37 39  1  0
 39 40  1  0
 19  3  1  0
 26 21  1  0
 32 28  1  0
 15  9  1  0
 39 24  1  0
  1 43  1  0
  1 44  1  0
  1 45  1  0
  4 46  1  0
  8 47  1  0
  9 48  1  0
 10 49  1  0
 10 50  1  0
 11 51  1  0
 11 52  1  0
 13 53  1  0
 13 54  1  0
 13 55  1  0
 14 56  1  0
 14 57  1  0
 15 58  1  0
 15 59  1  0
 18 60  1  0
 20 61  1  0
 23 62  1  0
 28 63  1  0
 29 64  1  0
 29 65  1  0
 30 66  1  0
 30 67  1  0
 31 68  1  0
 31 69  1  0
 32 70  1  0
 32 71  1  0
 33 72  1  0
 33 73  1  0
 40 74  1  0
 40 75  1  0
 40 76  1  0
 41 77  1  0
 42 78  1  0
M  END
$$$$
