
     RDKit          3D

 26 27  0  0  0  0  0  0  0  0999 V2000
    4.2030    0.9514    2.3918 C   0  0  0  0  0  0  0  0  0  0  0  0
    3.5733    0.7576    1.3874 C   0  0  0  0  0  0  0  0  0  0  0  0
    2.8019    0.5212    0.1599 C   0  0  0  0  0  0  0  0  0  0  0  0
    1.3921    0.3584    0.4965 N   0  0  0  0  0  0  0  0  0  0  0  0
    0.5673    0.1758   -0.6965 C   0  0  1  0  0  0  0  0  0  0  0  0
    0.5578   -1.2886   -1.1912 C   0  0  0  0  0  0  0  0  0  0  0  0
   -0.5475   -2.0144   -0.4099 C   0  0  0  0  0  0  0  0  0  0  0  0
   -1.5234   -0.8991   -0.2039 C   0  0  0  0  0  0  0  0  0  0  0  0
   -2.8614   -0.9865    0.1409 C   0  0  0  0  0  0  0  0  0  0  0  0
   -3.5791    0.1990    0.3128 C   0  0  0  0  0  0  0  0  0  0  0  0
   -2.9536    1.4454    0.1505 C   0  0  0  0  0  0  0  0  0  0  0  0
   -1.5999    1.5242   -0.1844 C   0  0  0  0  0  0  0  0  0  0  0  0
   -0.8944    0.3430   -0.3605 C   0  0  0  0  0  0  0  0  0  0  0  0
    4.7554    1.1173    3.2876 H   0  0  0  0  0  0  0  0  0  0  0  0
    3.1894   -0.3735   -0.3386 H   0  0  0  0  0  0  0  0  0  0  0  0
    2.9401    1.3706   -0.5194 H   0  0  0  0  0  0  0  0  0  0  0  0
    1.0811    1.1951    0.9880 H   0  0  0  0  0  0  0  0  0  0  0  0
    0.8452    0.8630   -1.5044 H   0  0  0  0  0  0  0  0  0  0  0  0
    0.3011   -1.2961   -2.2608 H   0  0  0  0  0  0  0  0  0  0  0  0
    1.5232   -1.7970   -1.1023 H   0  0  0  0  0  0  0  0  0  0  0  0
   -0.1815   -2.3823    0.5540 H   0  0  0  0  0  0  0  0  0  0  0  0
   -0.9704   -2.8382   -0.9917 H   0  0  0  0  0  0  0  0  0  0  0  0
   -3.3430   -1.9492    0.2776 H   0  0  0  0  0  0  0  0  0  0  0  0
   -4.6318    0.1573    0.5816 H   0  0  0  0  0  0  0  0  0  0  0  0
   -3.5286    2.3570    0.2940 H   0  0  0  0  0  0  0  0  0  0  0  0
   -1.1162    2.4884   -0.2999 H   0  0  0  0  0  0  0  0  0  0  0  0
  1  2  3  0
  2  3  1  0
  3  4  1  0
  4  5  1  0
  5  6  1  0
  6  7  1  0
  7  8  1  0
  8  9  2  0
  9 10  1  0
 10 11  2  0
 11 12  1  0
 12 13  2  0
 13  5  1  0
 13  8  1  0
  1 14  1  0
  3 15  1  0
  3 16  1  0
  4 17  1  0
  5 18  1  6
  6 19  1  0
  6 20  1  0
  7 21  1  0
  7 22  1  0
  9 23  1  0
 10 24  1  0
 11 25  1  0
 12 26  1  0
M  END
$$$$
