
     RDKit          3D

108115  0  0  0  0  0  0  0  0999 V2000
    3.6050    3.0741   -0.5130 C   0  0  0  0  0  0  0  0  0  0  0  0
    2.8678    1.9583   -1.2436 C   0  0  0  0  0  0  0  0  0  0  0  0
    2.4329    0.8540   -0.3014 C   0  0  0  0  0  0  0  0  0  0  0  0
    1.1250    0.8935    0.2212 C   0  0  0  0  0  0  0  0  0  0  0  0
    0.6679   -0.0574    1.1380 C   0  0  0  0  0  0  0  0  0  0  0  0
   -0.6270   -0.0411    1.6798 N   0  0  0  0  0  0  0  0  0  0  0  0
   -1.7771    0.6985    1.4319 C   0  0  0  0  0  0  0  0  0  0  0  0
   -1.8750    1.5144    0.3714 N   0  0  0  0  0  0  0  0  0  0  0  0
   -3.0407    2.1554    0.1764 C   0  0  0  0  0  0  0  0  0  0  0  0
   -4.1145    2.0288    1.0122 C   0  0  0  0  0  0  0  0  0  0  0  0
   -3.9186    1.1913    2.0830 C   0  0  0  0  0  0  0  0  0  0  0  0
   -4.9639    0.9545    3.0607 C   0  0  0  0  0  0  0  0  0  0  0  0
   -6.2165    0.3779    2.9203 C   0  0  0  0  0  0  0  0  0  0  0  0
   -6.7046   -0.2610    1.7156 C   0  0  0  0  0  0  0  0  0  0  0  0
   -6.0911   -1.4274    1.2488 C   0  0  0  0  0  0  0  0  0  0  0  0
   -6.5424   -2.0356    0.0773 C   0  0  0  0  0  0  0  0  0  0  0  0
   -7.6022   -1.4831   -0.6492 C   0  0  0  0  0  0  0  0  0  0  0  0
   -8.0878   -2.0432   -1.8013 O   0  0  0  0  0  0  0  0  0  0  0  0
   -7.2732   -3.0025   -2.4654 C   0  0  0  0  0  0  0  0  0  0  0  0
   -8.2294   -0.3115   -0.1742 C   0  0  0  0  0  0  0  0  0  0  0  0
   -9.3361    0.3978   -0.9005 C   0  0  0  0  0  0  0  0  0  0  0  0
   -9.4698    1.5982   -0.7016 O   0  0  0  0  0  0  0  0  0  0  0  0
  -10.1067   -0.3807   -1.7321 N   0  0  0  0  0  0  0  0  0  0  0  0
  -11.1694   -0.0171   -2.5938 C   0  0  0  0  0  0  0  0  0  0  0  0
  -11.7648   -1.0714   -3.3008 C   0  0  0  0  0  0  0  0  0  0  0  0
  -11.3125   -2.3214   -3.1170 F   0  0  0  0  0  0  0  0  0  0  0  0
  -12.8173   -0.8750   -4.1971 C   0  0  0  0  0  0  0  0  0  0  0  0
  -13.3088    0.4073   -4.4025 C   0  0  0  0  0  0  0  0  0  0  0  0
  -12.7369    1.4730   -3.7145 C   0  0  0  0  0  0  0  0  0  0  0  0
  -11.6788    1.2631   -2.8207 C   0  0  0  0  0  0  0  0  0  0  0  0
  -11.1875    2.3535   -2.2214 F   0  0  0  0  0  0  0  0  0  0  0  0
   -7.7773    0.2888    1.0129 C   0  0  0  0  0  0  0  0  0  0  0  0
   -6.9443    0.4456    4.0852 N   0  0  0  0  0  0  0  0  0  0  0  0
   -6.1404    1.0145    4.9575 C   0  0  0  0  0  0  0  0  0  0  0  0
   -6.3374    1.3465    6.3278 C   0  0  0  0  0  0  0  0  0  0  0  0
   -5.3428    1.9220    7.0268 C   0  0  0  0  0  0  0  0  0  0  0  0
   -4.0578    2.2165    6.4188 C   0  0  0  0  0  0  0  0  0  0  0  0
   -3.8644    1.9175    5.1252 C   0  0  0  0  0  0  0  0  0  0  0  0
   -4.9035    1.3301    4.3919 N   0  0  0  0  0  0  0  0  0  0  0  0
   -2.7762    0.5180    2.3076 N   0  0  0  0  0  0  0  0  0  0  0  0
    1.5425   -1.0998    1.5040 C   0  0  0  0  0  0  0  0  0  0  0  0
    1.0291   -2.0177    2.3969 O   0  0  0  0  0  0  0  0  0  0  0  0
    1.7017   -3.2701    2.4874 C   0  0  0  0  0  0  0  0  0  0  0  0
    2.8476   -1.1384    0.9980 C   0  0  0  0  0  0  0  0  0  0  0  0
    3.3151   -0.1624    0.1042 C   0  0  0  0  0  0  0  0  0  0  0  0
    4.6336   -0.1680   -0.3823 N   0  0  0  0  0  0  0  0  0  0  0  0
    5.6718   -0.2462    0.6448 C   0  0  0  0  0  0  0  0  0  0  0  0
    6.9864    0.2817    0.0576 C   0  0  0  0  0  0  0  0  0  0  0  0
    7.1252   -0.0199   -1.4554 C   0  0  0  0  0  0  0  0  0  0  0  0
    8.5144   -0.0507   -1.9804 N   0  0  0  0  0  0  0  0  0  0  0  0
    9.2112    1.2366   -1.7633 C   0  0  0  0  0  0  0  0  0  0  0  0
   10.6301    1.2690   -2.3781 C   0  0  0  0  0  0  0  0  0  0  0  0
   11.4636    0.1030   -1.9366 N   0  0  0  0  0  0  0  0  0  0  0  0
   12.2525    0.2424   -0.4354 S   0  0  0  0  0  6  0  0  0  0  0  0
   13.6002    1.3294   -0.8480 C   0  0  0  0  0  0  0  0  0  0  0  0
   11.3812    0.9294    0.4937 O   0  0  0  0  0  0  0  0  0  0  0  0
   12.8250   -1.0455   -0.1047 O   0  0  0  0  0  0  0  0  0  0  0  0
   10.7263   -1.1780   -2.1639 C   0  0  0  0  0  0  0  0  0  0  0  0
    9.3447   -1.1673   -1.4889 C   0  0  0  0  0  0  0  0  0  0  0  0
    6.3186   -1.2789   -1.8242 C   0  0  0  0  0  0  0  0  0  0  0  0
    4.8238   -1.0957   -1.5110 C   0  0  0  0  0  0  0  0  0  0  0  0
    3.8342    3.8955   -1.1989 H   0  0  0  0  0  0  0  0  0  0  0  0
    3.0027    3.4716    0.3108 H   0  0  0  0  0  0  0  0  0  0  0  0
    4.5500    2.7155   -0.0967 H   0  0  0  0  0  0  0  0  0  0  0  0
    3.4978    1.5563   -2.0434 H   0  0  0  0  0  0  0  0  0  0  0  0
    1.9927    2.3742   -1.7574 H   0  0  0  0  0  0  0  0  0  0  0  0
    0.4769    1.7114   -0.0806 H   0  0  0  0  0  0  0  0  0  0  0  0
   -0.7602   -0.6780    2.4580 H   0  0  0  0  0  0  0  0  0  0  0  0
   -3.0745    2.7950   -0.6997 H   0  0  0  0  0  0  0  0  0  0  0  0
   -5.0398    2.5579    0.8412 H   0  0  0  0  0  0  0  0  0  0  0  0
   -5.2580   -1.8667    1.7987 H   0  0  0  0  0  0  0  0  0  0  0  0
   -6.0402   -2.9447   -0.2337 H   0  0  0  0  0  0  0  0  0  0  0  0
   -7.2244   -3.9335   -1.8961 H   0  0  0  0  0  0  0  0  0  0  0  0
   -7.7535   -3.2260   -3.4215 H   0  0  0  0  0  0  0  0  0  0  0  0
   -6.2769   -2.6059   -2.6729 H   0  0  0  0  0  0  0  0  0  0  0  0
   -9.8532   -1.3650   -1.7774 H   0  0  0  0  0  0  0  0  0  0  0  0
  -13.2415   -1.7312   -4.7148 H   0  0  0  0  0  0  0  0  0  0  0  0
  -14.1284    0.5772   -5.0982 H   0  0  0  0  0  0  0  0  0  0  0  0
  -13.1077    2.4817   -3.8656 H   0  0  0  0  0  0  0  0  0  0  0  0
   -8.2551    1.1976    1.3811 H   0  0  0  0  0  0  0  0  0  0  0  0
   -7.2988    1.1257    6.7743 H   0  0  0  0  0  0  0  0  0  0  0  0
   -5.4715    2.1933    8.0667 H   0  0  0  0  0  0  0  0  0  0  0  0
   -3.2833    2.6703    7.0233 H   0  0  0  0  0  0  0  0  0  0  0  0
   -2.9320    2.1039    4.6048 H   0  0  0  0  0  0  0  0  0  0  0  0
    1.0700   -3.9404    3.0835 H   0  0  0  0  0  0  0  0  0  0  0  0
    1.8318   -3.7230    1.4964 H   0  0  0  0  0  0  0  0  0  0  0  0
    2.6588   -3.1616    3.0109 H   0  0  0  0  0  0  0  0  0  0  0  0
    3.5295   -1.9226    1.2934 H   0  0  0  0  0  0  0  0  0  0  0  0
    5.8036   -1.2826    0.9873 H   0  0  0  0  0  0  0  0  0  0  0  0
    5.4175    0.3539    1.5286 H   0  0  0  0  0  0  0  0  0  0  0  0
    7.8099   -0.1361    0.6454 H   0  0  0  0  0  0  0  0  0  0  0  0
    7.0282    1.3685    0.2045 H   0  0  0  0  0  0  0  0  0  0  0  0
    6.6303    0.8073   -1.9875 H   0  0  0  0  0  0  0  0  0  0  0  0
    8.6303    2.0404   -2.2311 H   0  0  0  0  0  0  0  0  0  0  0  0
    9.2759    1.4738   -0.6956 H   0  0  0  0  0  0  0  0  0  0  0  0
   11.1265    2.2124   -2.1229 H   0  0  0  0  0  0  0  0  0  0  0  0
   10.5667    1.2399   -3.4761 H   0  0  0  0  0  0  0  0  0  0  0  0
   14.2339    1.4445    0.0373 H   0  0  0  0  0  0  0  0  0  0  0  0
   14.1847    0.8792   -1.6552 H   0  0  0  0  0  0  0  0  0  0  0  0
   13.2064    2.3060   -1.1378 H   0  0  0  0  0  0  0  0  0  0  0  0
   11.3101   -2.0330   -1.8114 H   0  0  0  0  0  0  0  0  0  0  0  0
   10.6162   -1.3189   -3.2468 H   0  0  0  0  0  0  0  0  0  0  0  0
    8.8690   -2.1215   -1.7284 H   0  0  0  0  0  0  0  0  0  0  0  0
    9.4714   -1.1273   -0.4026 H   0  0  0  0  0  0  0  0  0  0  0  0
    6.6860   -2.1406   -1.2554 H   0  0  0  0  0  0  0  0  0  0  0  0
    6.4362   -1.5292   -2.8845 H   0  0  0  0  0  0  0  0  0  0  0  0
    4.3803   -2.0812   -1.3129 H   0  0  0  0  0  0  0  0  0  0  0  0
    4.3252   -0.6815   -2.3960 H   0  0  0  0  0  0  0  0  0  0  0  0
  1  2  1  0
  2  3  1  0
  3  4  2  0
  4  5  1  0
  5  6  1  0
  6  7  1  0
  7  8  2  0
  8  9  1  0
  9 10  2  0
 10 11  1  0
 11 12  1  0
 12 13  2  0
 13 14  1  0
 14 15  2  0
 15 16  1  0
 16 17  2  0
 17 18  1  0
 18 19  1  0
 17 20  1  0
 20 21  1  0
 21 22  2  0
 21 23  1  0
 23 24  1  0
 24 25  2  0
 25 26  1  0
 25 27  1  0
 27 28  2  0
 28 29  1  0
 29 30  2  0
 30 31  1  0
 20 32  2  0
 13 33  1  0
 33 34  2  0
 34 35  1  0
 35 36  2  0
 36 37  1  0
 37 38  2  0
 38 39  1  0
 11 40  2  0
  5 41  2  0
 41 42  1  0
 42 43  1  0
 41 44  1  0
 44 45  2  0
 45 46  1  0
 46 47  1  0
 47 48  1  0
 48 49  1  0
 49 50  1  0
 50 51  1  0
 51 52  1  0
 52 53  1  0
 53 54  1  0
 54 55  1  0
 54 56  2  0
 54 57  2  0
 53 58  1  0
 58 59  1  0
 49 60  1  0
 60 61  1  0
 45  3  1  0
 61 46  1  0
 40  7  1  0
 59 50  1  0
 39 12  1  0
 32 14  1  0
 39 34  1  0
 30 24  1  0
  1 62  1  0
  1 63  1  0
  1 64  1  0
  2 65  1  0
  2 66  1  0
  4 67  1  0
  6 68  1  0
  9 69  1  0
 10 70  1  0
 15 71  1  0
 16 72  1  0
 19 73  1  0
 19 74  1  0
 19 75  1  0
 23 76  1  0
 27 77  1  0
 28 78  1  0
 29 79  1  0
 32 80  1  0
 35 81  1  0
 36 82  1  0
 37 83  1  0
 38 84  1  0
 43 85  1  0
 43 86  1  0
 43 87  1  0
 44 88  1  0
 47 89  1  0
 47 90  1  0
 48 91  1  0
 48 92  1  0
 49 93  1  0
 51 94  1  0
 51 95  1  0
 52 96  1  0
 52 97  1  0
 55 98  1  0
 55 99  1  0
 55100  1  0
 58101  1  0
 58102  1  0
 59103  1  0
 59104  1  0
 60105  1  0
 60106  1  0
 61107  1  0
 61108  1  0
M  END
$$$$
