
     RDKit          3D

 27 29  0  0  0  0  0  0  0  0999 V2000
   -2.1886   -0.0503   -3.0480 O   0  0  0  0  0  0  0  0  0  0  0  0
   -2.0106    0.1345   -1.8423 C   0  0  0  0  0  0  0  0  0  0  0  0
   -3.1188    0.4918   -1.1132 N   0  0  0  0  0  0  0  0  0  0  0  0
   -3.1816    1.0313    0.2242 C   0  0  0  0  0  0  0  0  0  0  0  0
   -2.5595    0.1173    1.2671 C   0  0  0  0  0  0  0  0  0  0  0  0
   -1.0557    0.3238    1.3740 C   0  0  0  0  0  0  0  0  0  0  0  0
   -0.2821    0.0402    0.1319 C   0  0  0  0  0  0  0  0  0  0  0  0
   -0.7258   -0.0178   -1.1869 C   0  0  0  0  0  0  0  0  0  0  0  0
    0.3369   -0.3001   -2.0084 O   0  0  0  0  0  0  0  0  0  0  0  0
    1.4472   -0.4140   -1.2428 C   0  0  0  0  0  0  0  0  0  0  0  0
    2.7272   -0.6918   -1.7166 C   0  0  0  0  0  0  0  0  0  0  0  0
    3.7425   -0.7642   -0.7589 C   0  0  0  0  0  0  0  0  0  0  0  0
    3.4621   -0.5650    0.5906 C   0  0  0  0  0  0  0  0  0  0  0  0
    4.5072   -0.6514    1.4657 O   0  0  0  0  0  0  0  0  0  0  0  0
    2.1672   -0.2871    1.0436 C   0  0  0  0  0  0  0  0  0  0  0  0
    1.1304   -0.2117    0.0909 C   0  0  0  0  0  0  0  0  0  0  0  0
   -3.9197    0.6313   -1.7177 H   0  0  0  0  0  0  0  0  0  0  0  0
   -4.2466    1.1588    0.4468 H   0  0  0  0  0  0  0  0  0  0  0  0
   -2.7201    2.0248    0.2199 H   0  0  0  0  0  0  0  0  0  0  0  0
   -2.9988    0.3513    2.2446 H   0  0  0  0  0  0  0  0  0  0  0  0
   -2.7922   -0.9332    1.0531 H   0  0  0  0  0  0  0  0  0  0  0  0
   -0.6839   -0.3213    2.1803 H   0  0  0  0  0  0  0  0  0  0  0  0
   -0.8492    1.3564    1.6840 H   0  0  0  0  0  0  0  0  0  0  0  0
    2.9179   -0.8420   -2.7721 H   0  0  0  0  0  0  0  0  0  0  0  0
    4.7618   -0.9782   -1.0712 H   0  0  0  0  0  0  0  0  0  0  0  0
    4.1768   -0.5004    2.3662 H   0  0  0  0  0  0  0  0  0  0  0  0
    1.9561   -0.1330    2.0953 H   0  0  0  0  0  0  0  0  0  0  0  0
  1  2  2  0
  2  3  1  0
  3  4  1  0
  4  5  1  0
  5  6  1  0
  6  7  1  0
  7  8  2  0
  8  9  1  0
  9 10  1  0
 10 11  2  0
 11 12  1  0
 12 13  2  0
 13 14  1  0
 13 15  1  0
 15 16  2  0
  8  2  1  0
 16 10  1  0
 16  7  1  0
  3 17  1  0
  4 18  1  0
  4 19  1  0
  5 20  1  0
  5 21  1  0
  6 22  1  0
  6 23  1  0
 11 24  1  0
 12 25  1  0
 14 26  1  0
 15 27  1  0
M  END
$$$$
