
     RDKit          3D

 67 69  0  0  0  0  0  0  0  0999 V2000
    6.5431    0.6677    0.4112 C   0  0  0  0  0  0  0  0  0  0  0  0
    5.8060    1.8307   -0.0573 N   0  0  0  0  0  0  0  0  0  0  0  0
    6.6084    2.8395   -0.7247 C   0  0  0  0  0  0  0  0  0  0  0  0
    4.4887    1.7048   -0.4813 C   0  0  0  0  0  0  0  0  0  0  0  0
    4.1077    2.1811   -1.5507 O   0  0  0  0  0  0  0  0  0  0  0  0
    3.6224    1.0339    0.3755 N   0  0  0  0  0  0  0  0  0  0  0  0
    3.7986    1.0543    1.8321 C   0  0  0  0  0  0  0  0  0  0  0  0
    2.4742    1.1554    2.5862 C   0  0  0  0  0  0  0  0  0  0  0  0
    1.5226    0.0183    2.2106 C   0  0  0  0  0  0  0  0  0  0  0  0
    1.5487   -0.3022    0.6997 C   0  0  0  0  0  0  0  0  0  0  0  0
    0.2146   -0.6683    0.1631 N   0  0  0  0  0  0  0  0  0  0  0  0
   -0.7786    0.3193    0.1529 C   0  0  0  0  0  0  0  0  0  0  0  0
   -0.5850    1.4380    0.6308 O   0  0  0  0  0  0  0  0  0  0  0  0
   -2.1247   -0.0400   -0.4632 C   0  0  0  0  0  0  0  0  0  0  0  0
   -3.1187    1.1252   -0.4148 C   0  0  0  0  0  0  0  0  0  0  0  0
   -4.4309    0.8545   -1.1856 C   0  0  0  0  0  0  0  0  0  0  0  0
   -5.1909   -0.3851   -0.6957 C   0  0  0  0  0  0  0  0  0  0  0  0
   -5.7274   -0.2307    0.7275 C   0  0  0  0  0  0  0  0  0  0  0  0
   -6.2352    1.1788    1.0362 C   0  0  0  0  0  0  0  0  0  0  0  0
   -6.5591    1.9657   -0.2259 C   0  0  0  0  0  0  0  0  0  0  0  0
   -5.3454    2.0997   -1.1506 C   0  0  0  0  0  0  0  0  0  0  0  0
    0.0534   -2.0093   -0.4498 C   0  0  0  0  0  0  0  0  0  0  0  0
    0.9263   -2.1924   -1.6942 C   0  0  0  0  0  0  0  0  0  0  0  0
    0.6552   -3.5481   -2.3437 C   0  0  0  0  0  0  0  0  0  0  0  0
    0.1449   -4.5199   -1.4286 O   0  0  0  0  0  0  0  0  0  0  0  0
    0.7364   -4.4260   -0.1382 C   0  0  0  0  0  0  0  0  0  0  0  0
    0.2671   -3.1529    0.5568 C   0  0  0  0  0  0  0  0  0  0  0  0
    2.2598    0.8006   -0.1122 C   0  0  0  0  0  0  0  0  0  0  0  0
    7.1341    0.9545    1.2854 H   0  0  0  0  0  0  0  0  0  0  0  0
    7.2132    0.3299   -0.3865 H   0  0  0  0  0  0  0  0  0  0  0  0
    5.8912   -0.1719    0.6580 H   0  0  0  0  0  0  0  0  0  0  0  0
    6.9539    2.4495   -1.6870 H   0  0  0  0  0  0  0  0  0  0  0  0
    7.4648    3.0961   -0.0951 H   0  0  0  0  0  0  0  0  0  0  0  0
    6.0136    3.7414   -0.8999 H   0  0  0  0  0  0  0  0  0  0  0  0
    4.2945    0.1197    2.1153 H   0  0  0  0  0  0  0  0  0  0  0  0
    4.4489    1.8872    2.1202 H   0  0  0  0  0  0  0  0  0  0  0  0
    1.9965    2.1164    2.3568 H   0  0  0  0  0  0  0  0  0  0  0  0
    2.6552    1.1423    3.6668 H   0  0  0  0  0  0  0  0  0  0  0  0
    0.5170    0.2600    2.5718 H   0  0  0  0  0  0  0  0  0  0  0  0
    1.8135   -0.8875    2.7593 H   0  0  0  0  0  0  0  0  0  0  0  0
    2.1858   -1.1912    0.6040 H   0  0  0  0  0  0  0  0  0  0  0  0
   -1.9627   -0.3234   -1.5090 H   0  0  0  0  0  0  0  0  0  0  0  0
   -2.5316   -0.8889    0.0952 H   0  0  0  0  0  0  0  0  0  0  0  0
   -2.6404    2.0133   -0.8497 H   0  0  0  0  0  0  0  0  0  0  0  0
   -3.3282    1.3778    0.6313 H   0  0  0  0  0  0  0  0  0  0  0  0
   -4.1511    0.6834   -2.2342 H   0  0  0  0  0  0  0  0  0  0  0  0
   -4.5748   -1.2877   -0.7641 H   0  0  0  0  0  0  0  0  0  0  0  0
   -6.0387   -0.5611   -1.3718 H   0  0  0  0  0  0  0  0  0  0  0  0
   -6.5383   -0.9547    0.8747 H   0  0  0  0  0  0  0  0  0  0  0  0
   -4.9495   -0.4959    1.4535 H   0  0  0  0  0  0  0  0  0  0  0  0
   -5.4766    1.7216    1.6132 H   0  0  0  0  0  0  0  0  0  0  0  0
   -7.1207    1.1165    1.6793 H   0  0  0  0  0  0  0  0  0  0  0  0
   -6.9301    2.9630    0.0365 H   0  0  0  0  0  0  0  0  0  0  0  0
   -7.3740    1.4643   -0.7632 H   0  0  0  0  0  0  0  0  0  0  0  0
   -4.7691    2.9880   -0.8641 H   0  0  0  0  0  0  0  0  0  0  0  0
   -5.7132    2.3018   -2.1648 H   0  0  0  0  0  0  0  0  0  0  0  0
   -0.9780   -2.1146   -0.7962 H   0  0  0  0  0  0  0  0  0  0  0  0
    1.9877   -2.1439   -1.4217 H   0  0  0  0  0  0  0  0  0  0  0  0
    0.7663   -1.3885   -2.4220 H   0  0  0  0  0  0  0  0  0  0  0  0
    1.5664   -3.9399   -2.8089 H   0  0  0  0  0  0  0  0  0  0  0  0
   -0.0914   -3.4392   -3.1374 H   0  0  0  0  0  0  0  0  0  0  0  0
    1.8289   -4.4516   -0.2311 H   0  0  0  0  0  0  0  0  0  0  0  0
    0.4378   -5.3032    0.4446 H   0  0  0  0  0  0  0  0  0  0  0  0
   -0.6905   -3.3422    1.0593 H   0  0  0  0  0  0  0  0  0  0  0  0
    0.9721   -2.9041    1.3561 H   0  0  0  0  0  0  0  0  0  0  0  0
    2.3052    0.5113   -1.1692 H   0  0  0  0  0  0  0  0  0  0  0  0
    1.7299    1.7586   -0.0718 H   0  0  0  0  0  0  0  0  0  0  0  0
  1  2  1  0
  2  3  1  0
  2  4  1  0
  4  5  2  0
  4  6  1  0
  6  7  1  0
  7  8  1  0
  8  9  1  0
  9 10  1  0
 10 11  1  0
 11 12  1  0
 12 13  2  0
 12 14  1  0
 14 15  1  0
 15 16  1  0
 16 17  1  0
 17 18  1  0
 18 19  1  0
 19 20  1  0
 20 21  1  0
 11 22  1  0
 22 23  1  0
 23 24  1  0
 24 25  1  0
 25 26  1  0
 26 27  1  0
 10 28  1  0
 28  6  1  0
 21 16  1  0
 27 22  1  0
  1 29  1  0
  1 30  1  0
  1 31  1  0
  3 32  1  0
  3 33  1  0
  3 34  1  0
  7 35  1  0
  7 36  1  0
  8 37  1  0
  8 38  1  0
  9 39  1  0
  9 40  1  0
 10 41  1  0
 14 42  1  0
 14 43  1  0
 15 44  1  0
 15 45  1  0
 16 46  1  0
 17 47  1  0
 17 48  1  0
 18 49  1  0
 18 50  1  0
 19 51  1  0
 19 52  1  0
 20 53  1  0
 20 54  1  0
 21 55  1  0
 21 56  1  0
 22 57  1  0
 23 58  1  0
 23 59  1  0
 24 60  1  0
 24 61  1  0
 26 62  1  0
 26 63  1  0
 27 64  1  0
 27 65  1  0
 28 66  1  0
 28 67  1  0
M  END
$$$$
