
     RDKit          3D

 59 63  0  0  0  0  0  0  0  0999 V2000
   -0.3595    6.4061   -0.2035 C   0  0  0  0  0  0  0  0  0  0  0  0
    0.7822    5.7089   -0.6871 O   0  0  0  0  0  0  0  0  0  0  0  0
    0.8710    4.3798   -0.3677 C   0  0  0  0  0  0  0  0  0  0  0  0
    2.0797    3.7804   -0.7148 C   0  0  0  0  0  0  0  0  0  0  0  0
    2.3284    2.4304   -0.4521 C   0  0  0  0  0  0  0  0  0  0  0  0
    1.3184    1.6837    0.1723 C   0  0  0  0  0  0  0  0  0  0  0  0
    0.0889    2.2505    0.5292 C   0  0  0  0  0  0  0  0  0  0  0  0
   -0.1309    3.6203    0.2463 C   0  0  0  0  0  0  0  0  0  0  0  0
   -0.6983    1.2123    1.1173 C   0  0  0  0  0  0  0  0  0  0  0  0
   -2.0291    1.2846    1.6178 C   0  0  0  0  0  0  0  0  0  0  0  0
   -3.0684    0.4561    1.4037 C   0  0  0  0  0  0  0  0  0  0  0  0
   -3.1550   -0.6905    0.5649 C   0  0  0  0  0  0  0  0  0  0  0  0
   -2.7478   -0.7232   -0.7536 C   0  0  0  0  0  0  0  0  0  0  0  0
   -2.9766   -1.9838   -1.2356 N   0  0  0  0  0  0  0  0  0  0  0  0
   -3.5124   -2.7809   -0.2499 C   0  0  0  0  0  0  0  0  0  0  0  0
   -3.8872   -4.1297   -0.2909 C   0  0  0  0  0  0  0  0  0  0  0  0
   -4.4161   -4.6926    0.8736 C   0  0  0  0  0  0  0  0  0  0  0  0
   -4.5649   -3.9341    2.0313 C   0  0  0  0  0  0  0  0  0  0  0  0
   -4.1852   -2.5868    2.0559 C   0  0  0  0  0  0  0  0  0  0  0  0
   -3.6481   -1.9905    0.8948 C   0  0  0  0  0  0  0  0  0  0  0  0
   -4.2073    0.9667    2.2035 C   0  0  0  0  0  0  0  0  0  0  0  0
   -5.3289    0.4988    2.2710 O   0  0  0  0  0  0  0  0  0  0  0  0
   -3.7837    2.0696    2.8505 N   0  0  0  0  0  0  0  0  0  0  0  0
   -2.4998    2.3414    2.5456 C   0  0  0  0  0  0  0  0  0  0  0  0
   -1.8649    3.2914    2.9656 O   0  0  0  0  0  0  0  0  0  0  0  0
    0.0664    0.0643    1.1188 C   0  0  0  0  0  0  0  0  0  0  0  0
    1.2764    0.3568    0.5465 N   0  0  0  0  0  0  0  0  0  0  0  0
    2.3469   -0.6140    0.3635 C   0  0  0  0  0  0  0  0  0  0  0  0
    2.2835   -1.2683   -1.0156 C   0  0  0  0  0  0  0  0  0  0  0  0
    3.3398   -2.3646   -1.1900 C   0  0  0  0  0  0  0  0  0  0  0  0
    4.7204   -1.9042   -0.9734 N   0  0  0  0  0  0  0  0  0  0  0  0
    5.6278   -3.0544   -0.9047 C   0  0  0  0  0  0  0  0  0  0  0  0
    5.1676   -0.9923   -2.0304 C   0  0  0  0  0  0  0  0  0  0  0  0
   -1.2740    6.0406   -0.6819 H   0  0  0  0  0  0  0  0  0  0  0  0
   -0.2444    7.4613   -0.4708 H   0  0  0  0  0  0  0  0  0  0  0  0
   -0.4312    6.3453    0.8880 H   0  0  0  0  0  0  0  0  0  0  0  0
    2.8516    4.3780   -1.1948 H   0  0  0  0  0  0  0  0  0  0  0  0
    3.2800    1.9862   -0.7253 H   0  0  0  0  0  0  0  0  0  0  0  0
   -1.0822    4.0585    0.5221 H   0  0  0  0  0  0  0  0  0  0  0  0
   -2.3153    0.0374   -1.3918 H   0  0  0  0  0  0  0  0  0  0  0  0
   -2.7757   -2.2938   -2.1761 H   0  0  0  0  0  0  0  0  0  0  0  0
   -3.7777   -4.7228   -1.1932 H   0  0  0  0  0  0  0  0  0  0  0  0
   -4.7206   -5.7366    0.8731 H   0  0  0  0  0  0  0  0  0  0  0  0
   -4.9856   -4.3875    2.9255 H   0  0  0  0  0  0  0  0  0  0  0  0
   -4.3182   -2.0077    2.9650 H   0  0  0  0  0  0  0  0  0  0  0  0
   -4.3567    2.6294    3.4582 H   0  0  0  0  0  0  0  0  0  0  0  0
   -0.1521   -0.9361    1.4720 H   0  0  0  0  0  0  0  0  0  0  0  0
    3.2957   -0.0932    0.5299 H   0  0  0  0  0  0  0  0  0  0  0  0
    2.2444   -1.3654    1.1555 H   0  0  0  0  0  0  0  0  0  0  0  0
    1.2929   -1.7197   -1.1592 H   0  0  0  0  0  0  0  0  0  0  0  0
    2.3796   -0.5104   -1.8018 H   0  0  0  0  0  0  0  0  0  0  0  0
    3.1065   -3.1544   -0.4633 H   0  0  0  0  0  0  0  0  0  0  0  0
    3.2323   -2.8158   -2.1851 H   0  0  0  0  0  0  0  0  0  0  0  0
    5.6307   -3.6347   -1.8348 H   0  0  0  0  0  0  0  0  0  0  0  0
    6.6527   -2.7254   -0.6989 H   0  0  0  0  0  0  0  0  0  0  0  0
    5.3445   -3.7207   -0.0820 H   0  0  0  0  0  0  0  0  0  0  0  0
    6.2046   -0.6824   -1.8564 H   0  0  0  0  0  0  0  0  0  0  0  0
    5.1091   -1.4509   -3.0241 H   0  0  0  0  0  0  0  0  0  0  0  0
    4.5756   -0.0718   -2.0368 H   0  0  0  0  0  0  0  0  0  0  0  0
  1  2  1  0
  2  3  1  0
  3  4  2  0
  4  5  1  0
  5  6  2  0
  6  7  1  0
  7  8  2  0
  7  9  1  0
  9 10  1  0
 10 11  2  0
 11 12  1  0
 12 13  2  0
 13 14  1  0
 14 15  1  0
 15 16  2  0
 16 17  1  0
 17 18  2  0
 18 19  1  0
 19 20  2  0
 11 21  1  0
 21 22  2  0
 21 23  1  0
 23 24  1  0
 24 25  2  0
  9 26  2  0
 26 27  1  0
 27 28  1  0
 28 29  1  0
 29 30  1  0
 30 31  1  0
 31 32  1  0
 31 33  1  0
  8  3  1  0
 24 10  1  0
 27  6  1  0
 20 12  1  0
 20 15  1  0
  1 34  1  0
  1 35  1  0
  1 36  1  0
  4 37  1  0
  5 38  1  0
  8 39  1  0
 13 40  1  0
 14 41  1  0
 16 42  1  0
 17 43  1  0
 18 44  1  0
 19 45  1  0
 23 46  1  0
 26 47  1  0
 28 48  1  0
 28 49  1  0
 29 50  1  0
 29 51  1  0
 30 52  1  0
 30 53  1  0
 32 54  1  0
 32 55  1  0
 32 56  1  0
 33 57  1  0
 33 58  1  0
 33 59  1  0
M  END
$$$$
