
     RDKit          3D

 58 63  0  0  0  0  0  0  0  0999 V2000
   -0.7904   -3.0740   -1.2915 C   0  0  0  0  0  0  0  0  0  0  0  0
   -2.2284   -2.5365   -1.4607 C   0  0  0  0  0  0  0  0  0  0  0  0
   -2.6336   -2.7327   -2.9382 C   0  0  0  0  0  0  0  0  0  0  0  0
   -3.1513   -3.3702   -0.6427 C   0  0  0  0  0  0  0  0  0  0  0  0
   -3.8563   -4.0331    0.0002 N   0  0  0  0  0  0  0  0  0  0  0  0
   -2.2542   -1.0678   -0.9967 C   0  0  0  0  0  0  0  0  0  0  0  0
   -2.3651    0.0088   -1.8905 C   0  0  0  0  0  0  0  0  0  0  0  0
   -2.3170    1.3367   -1.4431 C   0  0  0  0  0  0  0  0  0  0  0  0
   -2.1356    1.6377   -0.0891 C   0  0  0  0  0  0  0  0  0  0  0  0
   -2.0040    2.9938    0.3561 N   0  0  0  0  0  0  0  0  0  0  0  0
   -2.9015    3.9697   -0.1221 C   0  0  0  0  0  0  0  0  0  0  0  0
   -3.6784    3.8247   -1.0624 O   0  0  0  0  0  0  0  0  0  0  0  0
   -2.8763    5.1785    0.5185 O   0  0  0  0  0  0  0  0  0  0  0  0
   -2.6604    5.1307    1.9269 C   0  0  0  0  0  0  0  0  0  0  0  0
   -1.4151    4.3800    2.2177 C   0  0  0  0  0  0  0  0  0  0  0  0
   -0.6324    4.6591    3.3194 C   0  0  0  0  0  0  0  0  0  0  0  0
    0.4845    3.9772    3.6289 N   0  0  0  0  0  0  0  0  0  0  0  0
    0.8952    3.0135    2.7937 C   0  0  0  0  0  0  0  0  0  0  0  0
    2.0779    2.3583    3.1081 C   0  0  0  0  0  0  0  0  0  0  0  0
    2.6170    1.3601    2.2919 C   0  0  0  0  0  0  0  0  0  0  0  0
    1.9919    1.0212    1.0951 C   0  0  0  0  0  0  0  0  0  0  0  0
    2.5109   -0.0364    0.2228 C   0  0  0  0  0  0  0  0  0  0  0  0
    2.8388    0.1940   -1.1100 C   0  0  0  0  0  0  0  0  0  0  0  0
    3.2750   -0.7531   -1.9761 N   0  0  0  0  0  0  0  0  0  0  0  0
    3.4030   -2.0100   -1.5201 C   0  0  0  0  0  0  0  0  0  0  0  0
    3.8421   -3.0083   -2.3791 C   0  0  0  0  0  0  0  0  0  0  0  0
    3.9893   -4.3321   -1.9541 C   0  0  0  0  0  0  0  0  0  0  0  0
    3.6878   -4.6745   -0.6414 C   0  0  0  0  0  0  0  0  0  0  0  0
    3.2450   -3.6926    0.2421 C   0  0  0  0  0  0  0  0  0  0  0  0
    3.1035   -2.3617   -0.1879 C   0  0  0  0  0  0  0  0  0  0  0  0
    2.6577   -1.3509    0.6767 C   0  0  0  0  0  0  0  0  0  0  0  0
    0.8104    1.7028    0.7643 C   0  0  0  0  0  0  0  0  0  0  0  0
    0.1905    2.6536    1.6250 C   0  0  0  0  0  0  0  0  0  0  0  0
   -1.0608    3.3126    1.3970 C   0  0  0  0  0  0  0  0  0  0  0  0
   -2.0784    0.5683    0.8165 C   0  0  0  0  0  0  0  0  0  0  0  0
   -2.1242   -0.7577    0.3705 C   0  0  0  0  0  0  0  0  0  0  0  0
   -0.7113   -4.1161   -1.6252 H   0  0  0  0  0  0  0  0  0  0  0  0
   -0.0738   -2.4819   -1.8740 H   0  0  0  0  0  0  0  0  0  0  0  0
   -0.4629   -3.0497   -0.2458 H   0  0  0  0  0  0  0  0  0  0  0  0
   -1.9275   -2.2465   -3.6222 H   0  0  0  0  0  0  0  0  0  0  0  0
   -3.6347   -2.3302   -3.1386 H   0  0  0  0  0  0  0  0  0  0  0  0
   -2.6575   -3.7971   -3.2059 H   0  0  0  0  0  0  0  0  0  0  0  0
   -2.4748   -0.1470   -2.9611 H   0  0  0  0  0  0  0  0  0  0  0  0
   -2.3757    2.1292   -2.1870 H   0  0  0  0  0  0  0  0  0  0  0  0
   -3.5265    4.6703    2.4165 H   0  0  0  0  0  0  0  0  0  0  0  0
   -2.5805    6.1660    2.2738 H   0  0  0  0  0  0  0  0  0  0  0  0
   -0.8870    5.4551    4.0145 H   0  0  0  0  0  0  0  0  0  0  0  0
    2.6019    2.6338    4.0216 H   0  0  0  0  0  0  0  0  0  0  0  0
    3.5417    0.8720    2.5934 H   0  0  0  0  0  0  0  0  0  0  0  0
    2.7574    1.1879   -1.5428 H   0  0  0  0  0  0  0  0  0  0  0  0
    4.0798   -2.7466   -3.4075 H   0  0  0  0  0  0  0  0  0  0  0  0
    4.3390   -5.0890   -2.6517 H   0  0  0  0  0  0  0  0  0  0  0  0
    3.8011   -5.7025   -0.3046 H   0  0  0  0  0  0  0  0  0  0  0  0
    3.0123   -3.9700    1.2675 H   0  0  0  0  0  0  0  0  0  0  0  0
    2.4039   -1.5954    1.7063 H   0  0  0  0  0  0  0  0  0  0  0  0
    0.3558    1.4691   -0.1954 H   0  0  0  0  0  0  0  0  0  0  0  0
   -1.9901    0.7469    1.8860 H   0  0  0  0  0  0  0  0  0  0  0  0
   -2.0476   -1.5482    1.1166 H   0  0  0  0  0  0  0  0  0  0  0  0
  1  2  1  0
  2  3  1  0
  2  4  1  0
  4  5  3  0
  2  6  1  0
  6  7  2  0
  7  8  1  0
  8  9  2  0
  9 10  1  0
 10 11  1  0
 11 12  2  0
 11 13  1  0
 13 14  1  0
 14 15  1  0
 15 16  2  0
 16 17  1  0
 17 18  2  0
 18 19  1  0
 19 20  2  0
 20 21  1  0
 21 22  1  0
 22 23  2  0
 23 24  1  0
 24 25  2  0
 25 26  1  0
 26 27  2  0
 27 28  1  0
 28 29  2  0
 29 30  1  0
 30 31  2  0
 21 32  2  0
 32 33  1  0
 33 34  2  0
  9 35  1  0
 35 36  2  0
 36  6  1  0
 34 10  1  0
 34 15  1  0
 33 18  1  0
 31 22  1  0
 30 25  1  0
  1 37  1  0
  1 38  1  0
  1 39  1  0
  3 40  1  0
  3 41  1  0
  3 42  1  0
  7 43  1  0
  8 44  1  0
 14 45  1  0
 14 46  1  0
 16 47  1  0
 19 48  1  0
 20 49  1  0
 23 50  1  0
 26 51  1  0
 27 52  1  0
 28 53  1  0
 29 54  1  0
 31 55  1  0
 32 56  1  0
 35 57  1  0
 36 58  1  0
M  END
$$$$
