
     RDKit          3D

 42 42  0  0  0  0  0  0  0  0999 V2000
   -5.0553    1.5405    1.0019 C   0  0  0  0  0  0  0  0  0  0  0  0
   -4.1580    0.5649    0.2298 C   0  0  0  0  0  0  0  0  0  0  0  0
   -5.0496   -0.5156   -0.3900 C   0  0  0  0  0  0  0  0  0  0  0  0
   -3.2054   -0.0776    1.1782 C   0  0  0  0  0  0  0  0  0  0  0  0
   -2.2548   -1.0576    0.5821 C   0  0  2  0  0  0  0  0  0  0  0  0
   -1.4663   -0.3699   -0.4081 N   0  0  0  0  0  0  0  0  0  0  0  0
   -0.0707   -0.2340   -0.1939 C   0  0  0  0  0  0  0  0  0  0  0  0
    0.4069   -0.7326    0.8709 O   0  0  0  0  0  0  0  0  0  0  0  0
    0.8383    0.4418   -1.1226 C   0  0  0  0  0  0  0  0  0  0  0  0
    2.1806    0.3920   -0.5881 N   0  0  0  0  0  0  0  0  0  0  0  0
    3.2979    0.9511   -1.2357 C   0  0  0  0  0  0  0  0  0  0  0  0
    3.1364    1.5276   -2.3376 O   0  0  0  0  0  0  0  0  0  0  0  0
    4.6025    0.8417   -0.6053 C   0  0  0  0  0  0  0  0  0  0  0  0
    5.0589    1.8116    0.2679 C   0  0  0  0  0  0  0  0  0  0  0  0
    6.2986    1.6938    0.8579 C   0  0  0  0  0  0  0  0  0  0  0  0
    6.8187    2.9628    1.9590 Cl  0  0  0  0  0  0  0  0  0  0  0  0
    7.1189    0.6147    0.6001 C   0  0  0  0  0  0  0  0  0  0  0  0
    6.6640   -0.3523   -0.2703 C   0  0  0  0  0  0  0  0  0  0  0  0
    5.4248   -0.2294   -0.8568 C   0  0  0  0  0  0  0  0  0  0  0  0
    4.8946   -1.4920   -1.9592 Cl  0  0  0  0  0  0  0  0  0  0  0  0
   -2.9417   -2.3601    0.0122 B   0  0  0  0  0  0  0  0  0  0  0  0
   -2.6417   -2.8712   -1.3318 O   0  0  0  0  0  0  0  0  0  0  0  0
   -3.4027   -3.3807    0.9812 O   0  0  0  0  0  0  0  0  0  0  0  0
   -5.4424    2.3147    0.3232 H   0  0  0  0  0  0  0  0  0  0  0  0
   -5.8257    0.9990    1.5532 H   0  0  0  0  0  0  0  0  0  0  0  0
   -4.3748    2.0474    1.7388 H   0  0  0  0  0  0  0  0  0  0  0  0
   -3.6717    1.1566   -0.5532 H   0  0  0  0  0  0  0  0  0  0  0  0
   -5.2296   -1.3110    0.3581 H   0  0  0  0  0  0  0  0  0  0  0  0
   -4.5325   -0.8713   -1.2949 H   0  0  0  0  0  0  0  0  0  0  0  0
   -6.0337   -0.0750   -0.6809 H   0  0  0  0  0  0  0  0  0  0  0  0
   -3.7645   -0.5188    2.0321 H   0  0  0  0  0  0  0  0  0  0  0  0
   -2.5794    0.7427    1.6238 H   0  0  0  0  0  0  0  0  0  0  0  0
   -1.6002   -1.4020    1.4246 H   0  0  0  0  0  0  0  0  0  0  0  0
   -1.8573    0.0366   -1.2768 H   0  0  0  0  0  0  0  0  0  0  0  0
    0.5382    1.5283   -1.1410 H   0  0  0  0  0  0  0  0  0  0  0  0
    0.7852    0.0549   -2.1579 H   0  0  0  0  0  0  0  0  0  0  0  0
    2.3489   -0.0881    0.3408 H   0  0  0  0  0  0  0  0  0  0  0  0
    4.4196    2.6482    0.4659 H   0  0  0  0  0  0  0  0  0  0  0  0
    8.0940    0.5446    1.0789 H   0  0  0  0  0  0  0  0  0  0  0  0
    7.2914   -1.2023   -0.4835 H   0  0  0  0  0  0  0  0  0  0  0  0
   -2.3436   -2.1611   -1.9367 H   0  0  0  0  0  0  0  0  0  0  0  0
   -2.7167   -4.1130    0.9876 H   0  0  0  0  0  0  0  0  0  0  0  0
  1  2  1  0
  2  3  1  0
  2  4  1  0
  4  5  1  0
  5  6  1  0
  6  7  1  0
  7  8  2  0
  7  9  1  0
  9 10  1  0
 10 11  1  0
 11 12  2  0
 11 13  1  0
 13 14  2  0
 14 15  1  0
 15 16  1  0
 15 17  2  0
 17 18  1  0
 18 19  2  0
 19 20  1  0
  5 21  1  0
 21 22  1  0
 21 23  1  0
 19 13  1  0
  1 24  1  0
  1 25  1  0
  1 26  1  0
  2 27  1  0
  3 28  1  0
  3 29  1  0
  3 30  1  0
  4 31  1  0
  4 32  1  0
  5 33  1  1
  6 34  1  0
  9 35  1  0
  9 36  1  0
 10 37  1  0
 14 38  1  0
 17 39  1  0
 18 40  1  0
 22 41  1  0
 23 42  1  0
M  END
$$$$
