
     RDKit          3D

 29 30  0  0  0  0  0  0  0  0999 V2000
    5.3209    0.5012    0.1334 C   0  0  0  0  0  0  0  0  0  0  0  0
    4.2457    0.7560   -0.7617 O   0  0  0  0  0  0  0  0  0  0  0  0
    3.0215    0.2543   -0.4154 C   0  0  0  0  0  0  0  0  0  0  0  0
    2.7422   -0.5274    0.7062 C   0  0  0  0  0  0  0  0  0  0  0  0
    1.4381   -0.9791    0.9401 C   0  0  0  0  0  0  0  0  0  0  0  0
    0.4019   -0.6407    0.0616 C   0  0  0  0  0  0  0  0  0  0  0  0
   -0.9574   -1.1865    0.3192 C   0  0  0  0  0  0  0  0  0  0  0  0
   -1.0586   -2.2971    0.8410 O   0  0  0  0  0  0  0  0  0  0  0  0
   -2.0700   -0.4231   -0.0261 N   0  0  0  0  0  0  0  0  0  0  0  0
   -3.3700   -1.0497    0.0032 C   0  0  0  0  0  0  0  0  0  0  0  0
   -4.3149    0.0479   -0.4231 C   0  0  0  0  0  0  0  0  0  0  0  0
   -3.6908    1.2834    0.1994 C   0  0  0  0  0  0  0  0  0  0  0  0
   -2.2153    0.9536    0.2202 C   0  0  0  0  0  0  0  0  0  0  0  0
   -1.3407    1.7811    0.4198 O   0  0  0  0  0  0  0  0  0  0  0  0
    0.6848    0.1237   -1.0739 C   0  0  0  0  0  0  0  0  0  0  0  0
    1.9888    0.5727   -1.3024 C   0  0  0  0  0  0  0  0  0  0  0  0
    5.5285   -0.5716    0.2044 H   0  0  0  0  0  0  0  0  0  0  0  0
    5.1250    0.9330    1.1205 H   0  0  0  0  0  0  0  0  0  0  0  0
    6.2144    0.9868   -0.2707 H   0  0  0  0  0  0  0  0  0  0  0  0
    3.5129   -0.8087    1.4158 H   0  0  0  0  0  0  0  0  0  0  0  0
    1.2332   -1.5979    1.8115 H   0  0  0  0  0  0  0  0  0  0  0  0
   -3.5813   -1.3845    1.0263 H   0  0  0  0  0  0  0  0  0  0  0  0
   -3.3937   -1.9171   -0.6637 H   0  0  0  0  0  0  0  0  0  0  0  0
   -5.3446   -0.1224   -0.0972 H   0  0  0  0  0  0  0  0  0  0  0  0
   -4.3137    0.1431   -1.5160 H   0  0  0  0  0  0  0  0  0  0  0  0
   -3.8834    2.1779   -0.3978 H   0  0  0  0  0  0  0  0  0  0  0  0
   -4.0324    1.4339    1.2281 H   0  0  0  0  0  0  0  0  0  0  0  0
   -0.0937    0.3792   -1.7862 H   0  0  0  0  0  0  0  0  0  0  0  0
    2.2027    1.1779   -2.1802 H   0  0  0  0  0  0  0  0  0  0  0  0
  1  2  1  0
  2  3  1  0
  3  4  2  0
  4  5  1  0
  5  6  2  0
  6  7  1  0
  7  8  2  0
  7  9  1  0
  9 10  1  0
 10 11  1  0
 11 12  1  0
 12 13  1  0
 13 14  2  0
  6 15  1  0
 15 16  2  0
 16  3  1  0
 13  9  1  0
  1 17  1  0
  1 18  1  0
  1 19  1  0
  4 20  1  0
  5 21  1  0
 10 22  1  0
 10 23  1  0
 11 24  1  0
 11 25  1  0
 12 26  1  0
 12 27  1  0
 15 28  1  0
 16 29  1  0
M  END
$$$$
