
     RDKit          3D

 42 42  0  0  0  0  0  0  0  0999 V2000
   -3.6513   -1.1645   -0.6230 C   0  0  0  0  0  0  0  0  0  0  0  0
   -2.9456   -1.4374    0.5900 N   0  0  0  0  0  0  0  0  0  0  0  0
   -1.8793   -2.3783    0.4550 C   0  0  0  0  0  0  0  0  0  0  0  0
   -0.7161   -1.8651   -0.3629 C   0  0  0  0  0  0  0  0  0  0  0  0
   -0.0849   -0.6389    0.2338 C   0  0  1  0  0  0  0  0  0  0  0  0
    0.9854   -0.1430   -0.4971 O   0  0  0  0  0  0  0  0  0  0  0  0
    2.2936   -0.0128   -0.2400 C   0  0  0  0  0  0  0  0  0  0  0  0
    2.8425   -0.4115    0.9538 C   0  0  0  0  0  0  0  0  0  0  0  0
    4.2025   -0.2751    1.2181 C   0  0  0  0  0  0  0  0  0  0  0  0
    5.0140    0.2736    0.2558 C   0  0  0  0  0  0  0  0  0  0  0  0
    4.5010    0.6851   -0.9534 C   0  0  0  0  0  0  0  0  0  0  0  0
    3.1353    0.5338   -1.1835 C   0  0  0  0  0  0  0  0  0  0  0  0
    2.5571    0.9674   -2.4628 C   0  0  0  0  0  0  0  0  0  0  0  0
   -1.0060    0.4835    0.4707 C   0  0  0  0  0  0  0  0  0  0  0  0
   -1.5200    0.6623    1.7381 C   0  0  0  0  0  0  0  0  0  0  0  0
   -2.3894    1.7076    2.0110 C   0  0  0  0  0  0  0  0  0  0  0  0
   -2.7659    2.5982    1.0262 C   0  0  0  0  0  0  0  0  0  0  0  0
   -2.2374    2.4062   -0.2562 C   0  0  0  0  0  0  0  0  0  0  0  0
   -1.3766    1.3687   -0.5208 C   0  0  0  0  0  0  0  0  0  0  0  0
    0.6830    0.0000    0.0000 Cl  0  0  0  0  0  0  0  0  0  0  0  0
   -3.0692   -1.3805   -1.5371 H   0  0  0  0  0  0  0  0  0  0  0  0
   -4.6059   -1.7554   -0.6916 H   0  0  0  0  0  0  0  0  0  0  0  0
   -3.9418   -0.0961   -0.6421 H   0  0  0  0  0  0  0  0  0  0  0  0
   -3.6179   -1.7300    1.3258 H   0  0  0  0  0  0  0  0  0  0  0  0
   -2.2111   -3.3755    0.1375 H   0  0  0  0  0  0  0  0  0  0  0  0
   -1.4616   -2.5343    1.4941 H   0  0  0  0  0  0  0  0  0  0  0  0
    0.0757   -2.6712   -0.2931 H   0  0  0  0  0  0  0  0  0  0  0  0
   -0.9540   -1.7755   -1.4236 H   0  0  0  0  0  0  0  0  0  0  0  0
    0.3091   -0.9616    1.2215 H   0  0  0  0  0  0  0  0  0  0  0  0
    2.2596   -0.8431    1.7341 H   0  0  0  0  0  0  0  0  0  0  0  0
    4.6509   -0.5833    2.1517 H   0  0  0  0  0  0  0  0  0  0  0  0
    6.0806    0.3927    0.4326 H   0  0  0  0  0  0  0  0  0  0  0  0
    5.1680    1.1187   -1.7001 H   0  0  0  0  0  0  0  0  0  0  0  0
    3.3020    1.6053   -3.0228 H   0  0  0  0  0  0  0  0  0  0  0  0
    2.3650    0.0638   -3.0771 H   0  0  0  0  0  0  0  0  0  0  0  0
    1.6643    1.6128   -2.3453 H   0  0  0  0  0  0  0  0  0  0  0  0
   -1.2766    0.0101    2.5641 H   0  0  0  0  0  0  0  0  0  0  0  0
   -2.7893    1.8474    2.9943 H   0  0  0  0  0  0  0  0  0  0  0  0
   -3.4382    3.4124    1.2212 H   0  0  0  0  0  0  0  0  0  0  0  0
   -2.5139    3.0884   -1.0478 H   0  0  0  0  0  0  0  0  0  0  0  0
   -0.9549    1.1950   -1.4959 H   0  0  0  0  0  0  0  0  0  0  0  0
   -0.6830    0.0000    0.0000 H   0  0  0  0  0  0  0  0  0  0  0  0
  1  2  1  0
  2  3  1  0
  3  4  1  0
  4  5  1  0
  5  6  1  0
  6  7  1  0
  7  8  2  0
  8  9  1  0
  9 10  2  0
 10 11  1  0
 11 12  2  0
 12 13  1  0
  5 14  1  0
 14 15  2  0
 15 16  1  0
 16 17  2  0
 17 18  1  0
 18 19  2  0
 12  7  1  0
 19 14  1  0
  1 21  1  0
  1 22  1  0
  1 23  1  0
  2 24  1  0
  3 25  1  0
  3 26  1  0
  4 27  1  0
  4 28  1  0
  5 29  1  1
  8 30  1  0
  9 31  1  0
 10 32  1  0
 11 33  1  0
 13 34  1  0
 13 35  1  0
 13 36  1  0
 15 37  1  0
 16 38  1  0
 17 39  1  0
 18 40  1  0
 19 41  1  0
 20 42  1  0
M  END
$$$$
