
     RDKit          3D

 69 70  0  0  0  0  0  0  0  0999 V2000
    0.6917    0.0000    0.0000 Cl  0  0  0  0  0  0  0  0  0  0  0  0
    0.6868    0.0000    0.0000 Cl  0  0  0  0  0  0  0  0  0  0  0  0
    8.1804   -0.3057    0.2104 C   0  0  0  0  0  0  0  0  0  0  0  0
    7.6842    0.2611   -0.9580 C   0  0  0  0  0  0  0  0  0  0  0  0
    6.4752   -0.1442   -1.4901 C   0  0  0  0  0  0  0  0  0  0  0  0
    5.7776   -1.1239   -0.8307 C   0  0  0  0  0  0  0  0  0  0  0  0
    4.4696   -1.5719   -1.3924 C   0  0  0  0  0  0  0  0  0  0  0  0
    3.3115   -0.7677   -0.8440 C   0  0  0  0  0  0  0  0  0  0  0  0
    3.2616   -0.9247    0.6443 C   0  0  0  0  0  0  0  0  0  0  0  0
    2.1926   -0.1989    1.2554 N   0  0  0  0  0  0  0  0  0  0  0  0
    0.8874   -0.7286    0.9245 C   0  0  0  0  0  0  0  0  0  0  0  0
   -0.2131    0.0144    1.6676 C   0  0  0  0  0  0  0  0  0  0  0  0
   -0.0395    1.4106    1.6616 N   0  0  0  0  0  0  0  0  0  0  0  0
   -1.1220    2.2470    1.9787 C   0  0  0  0  0  0  0  0  0  0  0  0
   -2.2003    2.2655    0.9325 C   0  0  0  0  0  0  0  0  0  0  0  0
   -2.7708    1.0580    0.7061 O   0  0  0  0  0  0  0  0  0  0  0  0
   -3.7692    1.0453   -0.2480 C   0  0  0  0  0  0  0  0  0  0  0  0
   -3.4563    0.2171   -1.4273 C   0  0  0  0  0  0  0  0  0  0  0  0
   -3.7137    0.6042   -2.7343 C   0  0  0  0  0  0  0  0  0  0  0  0
   -3.3952   -0.2020   -3.8082 C   0  0  0  0  0  0  0  0  0  0  0  0
   -2.8032   -1.4339   -3.6165 C   0  0  0  0  0  0  0  0  0  0  0  0
   -2.5412   -1.8330   -2.3266 C   0  0  0  0  0  0  0  0  0  0  0  0
   -2.8655   -1.0166   -1.2636 C   0  0  0  0  0  0  0  0  0  0  0  0
   -5.0987    0.7449    0.2864 C   0  0  0  0  0  0  0  0  0  0  0  0
   -5.9002   -0.1440   -0.3854 C   0  0  0  0  0  0  0  0  0  0  0  0
   -7.1631   -0.4731    0.0559 C   0  0  0  0  0  0  0  0  0  0  0  0
   -7.6237    0.1204    1.2156 C   0  0  0  0  0  0  0  0  0  0  0  0
   -6.8402    1.0153    1.9093 C   0  0  0  0  0  0  0  0  0  0  0  0
   -5.5831    1.3201    1.4380 C   0  0  0  0  0  0  0  0  0  0  0  0
    1.2682    1.8643    2.0105 C   0  0  0  0  0  0  0  0  0  0  0  0
    2.2621    1.2209    1.0398 C   0  0  0  0  0  0  0  0  0  0  0  0
    6.2639   -1.6813    0.3171 C   0  0  0  0  0  0  0  0  0  0  0  0
    7.4712   -1.2773    0.8491 C   0  0  0  0  0  0  0  0  0  0  0  0
   -0.6917    0.0000    0.0000 H   0  0  0  0  0  0  0  0  0  0  0  0
   -0.6868    0.0000    0.0000 H   0  0  0  0  0  0  0  0  0  0  0  0
    9.1273    0.0166    0.6216 H   0  0  0  0  0  0  0  0  0  0  0  0
    8.2763    1.0302   -1.4363 H   0  0  0  0  0  0  0  0  0  0  0  0
    6.1583    0.3420   -2.3978 H   0  0  0  0  0  0  0  0  0  0  0  0
    4.3416   -2.6514   -1.2039 H   0  0  0  0  0  0  0  0  0  0  0  0
    4.5033   -1.4138   -2.4844 H   0  0  0  0  0  0  0  0  0  0  0  0
    3.5006    0.2906   -1.1113 H   0  0  0  0  0  0  0  0  0  0  0  0
    2.3970   -1.1752   -1.3264 H   0  0  0  0  0  0  0  0  0  0  0  0
    3.1532   -1.9892    0.9282 H   0  0  0  0  0  0  0  0  0  0  0  0
    4.2132   -0.5288    1.0557 H   0  0  0  0  0  0  0  0  0  0  0  0
    0.7187   -0.5587   -0.1527 H   0  0  0  0  0  0  0  0  0  0  0  0
    0.8176   -1.7828    1.2198 H   0  0  0  0  0  0  0  0  0  0  0  0
   -1.2064   -0.3643    1.4042 H   0  0  0  0  0  0  0  0  0  0  0  0
   -0.0737   -0.3172    2.7485 H   0  0  0  0  0  0  0  0  0  0  0  0
   -0.7872    3.3046    2.1384 H   0  0  0  0  0  0  0  0  0  0  0  0
   -1.6048    1.8457    2.9051 H   0  0  0  0  0  0  0  0  0  0  0  0
   -2.9218    3.0985    1.0876 H   0  0  0  0  0  0  0  0  0  0  0  0
   -1.6716    2.5565   -0.0264 H   0  0  0  0  0  0  0  0  0  0  0  0
   -3.8272    2.1200   -0.6079 H   0  0  0  0  0  0  0  0  0  0  0  0
   -4.1793    1.5708   -2.9000 H   0  0  0  0  0  0  0  0  0  0  0  0
   -3.5903    0.0881   -4.8276 H   0  0  0  0  0  0  0  0  0  0  0  0
   -2.5549   -2.0630   -4.4757 H   0  0  0  0  0  0  0  0  0  0  0  0
   -2.0715   -2.8110   -2.1884 H   0  0  0  0  0  0  0  0  0  0  0  0
   -2.6297   -1.3977   -0.2707 H   0  0  0  0  0  0  0  0  0  0  0  0
   -5.5931   -0.6495   -1.3129 H   0  0  0  0  0  0  0  0  0  0  0  0
   -7.7916   -1.1888   -0.4986 H   0  0  0  0  0  0  0  0  0  0  0  0
   -8.6365   -0.1424    1.5686 H   0  0  0  0  0  0  0  0  0  0  0  0
   -7.2378    1.4694    2.8296 H   0  0  0  0  0  0  0  0  0  0  0  0
   -4.9914    2.0308    2.0105 H   0  0  0  0  0  0  0  0  0  0  0  0
    1.3423    2.9510    2.0377 H   0  0  0  0  0  0  0  0  0  0  0  0
    1.5207    1.4153    3.0109 H   0  0  0  0  0  0  0  0  0  0  0  0
    2.0484    1.5357    0.0059 H   0  0  0  0  0  0  0  0  0  0  0  0
    3.2952    1.5716    1.2732 H   0  0  0  0  0  0  0  0  0  0  0  0
    5.6941   -2.4607    0.8294 H   0  0  0  0  0  0  0  0  0  0  0  0
    7.8546   -1.7293    1.7686 H   0  0  0  0  0  0  0  0  0  0  0  0
  3  4  2  0
  4  5  1  0
  5  6  2  0
  6  7  1  0
  7  8  1  0
  8  9  1  0
  9 10  1  0
 10 11  1  0
 11 12  1  0
 12 13  1  0
 13 14  1  0
 14 15  1  0
 15 16  1  0
 16 17  1  0
 17 18  1  0
 18 19  2  0
 19 20  1  0
 20 21  2  0
 21 22  1  0
 22 23  2  0
 17 24  1  0
 24 25  2  0
 25 26  1  0
 26 27  2  0
 27 28  1  0
 28 29  2  0
 13 30  1  0
 30 31  1  0
  6 32  1  0
 32 33  2  0
 33  3  1  0
 31 10  1  0
 23 18  1  0
 29 24  1  0
  1 34  1  0
  2 35  1  0
  3 36  1  0
  4 37  1  0
  5 38  1  0
  7 39  1  0
  7 40  1  0
  8 41  1  0
  8 42  1  0
  9 43  1  0
  9 44  1  0
 11 45  1  0
 11 46  1  0
 12 47  1  0
 12 48  1  0
 14 49  1  0
 14 50  1  0
 15 51  1  0
 15 52  1  0
 17 53  1  0
 19 54  1  0
 20 55  1  0
 21 56  1  0
 22 57  1  0
 23 58  1  0
 25 59  1  0
 26 60  1  0
 27 61  1  0
 28 62  1  0
 29 63  1  0
 30 64  1  0
 30 65  1  0
 31 66  1  0
 31 67  1  0
 32 68  1  0
 33 69  1  0
M  END
$$$$
