
     RDKit          3D

 50 49  0  0  0  0  0  0  0  0999 V2000
    0.5676   -2.6283    0.3636 O   0  0  0  0  0  0  0  0  0  0  0  0
    0.5569   -2.0366    1.4303 C   0  0  0  0  0  0  0  0  0  0  0  0
    0.6847   -2.7347    2.5815 O   0  0  0  0  0  0  0  0  0  0  0  0
    0.4255   -0.5396    1.6991 C   0  0  0  0  0  0  0  0  0  0  0  0
    0.1565    0.3110    0.5152 N   0  0  0  0  0  0  0  0  0  0  0  0
   -1.1708    0.0725   -0.0965 C   0  0  0  0  0  0  0  0  0  0  0  0
   -2.3644    0.4939    0.7987 C   0  0  0  0  0  0  0  0  0  0  0  0
   -3.6697    0.3153    0.1201 N   0  0  0  0  0  0  0  0  0  0  0  0
   -4.6960    1.2010    0.7291 C   0  0  0  0  0  0  0  0  0  0  0  0
   -4.5105    2.6633    0.3274 C   0  0  0  0  0  0  0  0  0  0  0  0
   -3.6927    3.1527   -0.4339 O   0  0  0  0  0  0  0  0  0  0  0  0
   -5.4085    3.4649    0.9458 O   0  0  0  0  0  0  0  0  0  0  0  0
   -4.1021   -1.1030    0.1826 C   0  0  0  0  0  0  0  0  0  0  0  0
   -5.2310   -1.4205   -0.7965 C   0  0  0  0  0  0  0  0  0  0  0  0
   -5.8218   -0.6700   -1.5549 O   0  0  0  0  0  0  0  0  0  0  0  0
   -5.5769   -2.7273   -0.7468 O   0  0  0  0  0  0  0  0  0  0  0  0
    1.2056    0.2520   -0.5281 C   0  0  0  0  0  0  0  0  0  0  0  0
    2.6534    0.5102   -0.0334 C   0  0  0  0  0  0  0  0  0  0  0  0
    3.6713    0.6196   -1.1022 N   0  0  0  0  0  0  0  0  0  0  0  0
    3.6967   -0.5269   -2.0419 C   0  0  0  0  0  0  0  0  0  0  0  0
    3.9350   -1.8939   -1.4077 C   0  0  0  0  0  0  0  0  0  0  0  0
    4.3087   -2.1519   -0.2750 O   0  0  0  0  0  0  0  0  0  0  0  0
    3.7056   -2.8961   -2.2845 O   0  0  0  0  0  0  0  0  0  0  0  0
    5.0156    0.8757   -0.5357 C   0  0  0  0  0  0  0  0  0  0  0  0
    5.1161    2.2784    0.0434 C   0  0  0  0  0  0  0  0  0  0  0  0
    5.0838    2.5759    1.2279 O   0  0  0  0  0  0  0  0  0  0  0  0
    5.2319    3.2381   -0.8988 O   0  0  0  0  0  0  0  0  0  0  0  0
    0.8001   -3.6616    2.2839 H   0  0  0  0  0  0  0  0  0  0  0  0
   -0.3685   -0.4004    2.4395 H   0  0  0  0  0  0  0  0  0  0  0  0
    1.3448   -0.2032    2.1904 H   0  0  0  0  0  0  0  0  0  0  0  0
   -1.2466    0.6717   -1.0144 H   0  0  0  0  0  0  0  0  0  0  0  0
   -1.2654   -0.9733   -0.4059 H   0  0  0  0  0  0  0  0  0  0  0  0
   -2.2069    1.5491    1.0547 H   0  0  0  0  0  0  0  0  0  0  0  0
   -2.3681   -0.0551    1.7474 H   0  0  0  0  0  0  0  0  0  0  0  0
   -4.6705    1.1250    1.8228 H   0  0  0  0  0  0  0  0  0  0  0  0
   -5.7002    0.9287    0.3880 H   0  0  0  0  0  0  0  0  0  0  0  0
   -5.1933    4.3525    0.5882 H   0  0  0  0  0  0  0  0  0  0  0  0
   -3.2752   -1.7625   -0.1010 H   0  0  0  0  0  0  0  0  0  0  0  0
   -4.4282   -1.3660    1.1959 H   0  0  0  0  0  0  0  0  0  0  0  0
   -6.2851   -2.7991   -1.4216 H   0  0  0  0  0  0  0  0  0  0  0  0
    0.9808    1.0245   -1.2758 H   0  0  0  0  0  0  0  0  0  0  0  0
    1.1570   -0.7093   -1.0495 H   0  0  0  0  0  0  0  0  0  0  0  0
    2.6329    1.4535    0.5264 H   0  0  0  0  0  0  0  0  0  0  0  0
    2.9454   -0.2705    0.6766 H   0  0  0  0  0  0  0  0  0  0  0  0
    2.7507   -0.5604   -2.5932 H   0  0  0  0  0  0  0  0  0  0  0  0
    4.4810   -0.3656   -2.7914 H   0  0  0  0  0  0  0  0  0  0  0  0
    3.8548   -3.7100   -1.7592 H   0  0  0  0  0  0  0  0  0  0  0  0
    5.2857    0.1598    0.2488 H   0  0  0  0  0  0  0  0  0  0  0  0
    5.7914    0.8038   -1.3086 H   0  0  0  0  0  0  0  0  0  0  0  0
    5.2127    4.0729   -0.3880 H   0  0  0  0  0  0  0  0  0  0  0  0
  1  2  2  0
  2  3  1  0
  2  4  1  0
  4  5  1  0
  5  6  1  0
  6  7  1  0
  7  8  1  0
  8  9  1  0
  9 10  1  0
 10 11  2  0
 10 12  1  0
  8 13  1  0
 13 14  1  0
 14 15  2  0
 14 16  1  0
  5 17  1  0
 17 18  1  0
 18 19  1  0
 19 20  1  0
 20 21  1  0
 21 22  2  0
 21 23  1  0
 19 24  1  0
 24 25  1  0
 25 26  2  0
 25 27  1  0
  3 28  1  0
  4 29  1  0
  4 30  1  0
  6 31  1  0
  6 32  1  0
  7 33  1  0
  7 34  1  0
  9 35  1  0
  9 36  1  0
 12 37  1  0
 13 38  1  0
 13 39  1  0
 16 40  1  0
 17 41  1  0
 17 42  1  0
 18 43  1  0
 18 44  1  0
 20 45  1  0
 20 46  1  0
 23 47  1  0
 24 48  1  0
 24 49  1  0
 27 50  1  0
M  END
$$$$
