
     RDKit          3D

 67 71  0  0  0  0  0  0  0  0999 V2000
    0.2638    1.6315    0.6266 O   0  0  0  0  0  0  0  0  0  0  0  0
    0.6017    0.5703    0.1075 C   0  0  0  0  0  0  0  0  0  0  0  0
   -0.3167   -0.3735   -0.2628 N   0  0  0  0  0  0  0  0  0  0  0  0
   -1.7560   -0.1034   -0.2229 C   0  0  2  0  0  0  0  0  0  0  0  0
   -2.2749   -0.0502    1.2261 C   0  0  0  0  0  0  0  0  0  0  0  0
   -3.6047   -0.7432    1.5486 C   0  0  0  0  0  0  0  0  0  0  0  0
   -4.8645   -0.2872    0.7741 C   0  0  1  0  0  0  0  0  0  0  0  0
   -5.6611    0.8599    1.3817 C   0  0  0  0  0  0  0  0  0  0  0  0
   -5.1191    1.8227    2.2467 C   0  0  0  0  0  0  0  0  0  0  0  0
   -5.9128    2.8620    2.7533 C   0  0  0  0  0  0  0  0  0  0  0  0
   -7.2586    2.9580    2.4033 C   0  0  0  0  0  0  0  0  0  0  0  0
   -7.8063    2.0116    1.5488 C   0  0  0  0  0  0  0  0  0  0  0  0
   -9.0990    2.1007    1.2099 F   0  0  0  0  0  0  0  0  0  0  0  0
   -7.0223    0.9781    1.0471 C   0  0  0  0  0  0  0  0  0  0  0  0
   -7.5774    0.0753    0.2218 F   0  0  0  0  0  0  0  0  0  0  0  0
   -4.5906   -0.0059   -0.7136 C   0  0  0  0  0  0  0  0  0  0  0  0
   -3.7916   -1.0665   -1.3201 N   0  0  0  0  0  0  0  0  0  0  0  0
   -4.4553   -1.9978   -2.2525 C   0  0  0  0  0  0  0  0  0  0  0  0
   -4.5518   -1.4975   -3.6955 C   0  0  0  0  0  0  0  0  0  0  0  0
   -5.2093   -2.3911   -4.4678 F   0  0  0  0  0  0  0  0  0  0  0  0
   -3.3408   -1.2860   -4.2503 F   0  0  0  0  0  0  0  0  0  0  0  0
   -5.2393   -0.3331   -3.7566 F   0  0  0  0  0  0  0  0  0  0  0  0
   -2.4209   -1.1527   -1.1445 C   0  0  0  0  0  0  0  0  0  0  0  0
   -1.7470   -2.0073   -1.7269 O   0  0  0  0  0  0  0  0  0  0  0  0
    1.9226    0.2245   -0.1345 N   0  0  0  0  0  0  0  0  0  0  0  0
    2.3429   -1.0715   -0.6734 C   0  0  0  0  0  0  0  0  0  0  0  0
    3.8534   -1.2684   -0.6555 C   0  0  0  0  0  0  0  0  0  0  0  0
    4.5494   -0.0717   -1.3129 C   0  0  0  0  0  0  0  0  0  0  0  0
    5.9937   -0.2126   -1.3148 N   0  0  0  0  0  0  0  0  0  0  0  0
    6.7654   -0.4740   -2.4722 C   0  0  0  0  0  0  0  0  0  0  0  0
    6.3701   -0.5790   -3.6214 O   0  0  0  0  0  0  0  0  0  0  0  0
    8.0912   -0.6011   -2.0533 N   0  0  0  0  0  0  0  0  0  0  0  0
    8.1543   -0.4461   -0.6798 C   0  0  0  0  0  0  0  0  0  0  0  0
    9.2583   -0.5239    0.0665 N   0  0  0  0  0  0  0  0  0  0  0  0
    9.0364   -0.3457    1.3906 C   0  0  0  0  0  0  0  0  0  0  0  0
    7.7802   -0.0965    1.9583 C   0  0  0  0  0  0  0  0  0  0  0  0
    6.6533   -0.0255    1.1333 C   0  0  0  0  0  0  0  0  0  0  0  0
    6.8631   -0.2084   -0.2125 C   0  0  0  0  0  0  0  0  0  0  0  0
    4.0621    1.2867   -0.7761 C   0  0  0  0  0  0  0  0  0  0  0  0
    2.9752    1.1446    0.2847 C   0  0  0  0  0  0  0  0  0  0  0  0
   -0.0476   -1.0024   -1.0083 H   0  0  0  0  0  0  0  0  0  0  0  0
   -1.8935    0.8753   -0.7010 H   0  0  0  0  0  0  0  0  0  0  0  0
   -1.5222   -0.4936    1.8955 H   0  0  0  0  0  0  0  0  0  0  0  0
   -2.3252    1.0048    1.5244 H   0  0  0  0  0  0  0  0  0  0  0  0
   -3.4617   -1.8182    1.3616 H   0  0  0  0  0  0  0  0  0  0  0  0
   -3.7880   -0.6728    2.6294 H   0  0  0  0  0  0  0  0  0  0  0  0
   -5.5318   -1.1630    0.8210 H   0  0  0  0  0  0  0  0  0  0  0  0
   -4.0758    1.7916    2.5507 H   0  0  0  0  0  0  0  0  0  0  0  0
   -5.4766    3.6012    3.4235 H   0  0  0  0  0  0  0  0  0  0  0  0
   -7.8810    3.7584    2.7905 H   0  0  0  0  0  0  0  0  0  0  0  0
   -4.0702    0.9503   -0.8382 H   0  0  0  0  0  0  0  0  0  0  0  0
   -5.5295    0.0898   -1.2720 H   0  0  0  0  0  0  0  0  0  0  0  0
   -3.9075   -2.9490   -2.2529 H   0  0  0  0  0  0  0  0  0  0  0  0
   -5.4565   -2.2137   -1.8573 H   0  0  0  0  0  0  0  0  0  0  0  0
    1.8538   -1.8697   -0.1031 H   0  0  0  0  0  0  0  0  0  0  0  0
    1.9812   -1.1227   -1.7059 H   0  0  0  0  0  0  0  0  0  0  0  0
    4.1924   -1.3980    0.3791 H   0  0  0  0  0  0  0  0  0  0  0  0
    4.1120   -2.1942   -1.1824 H   0  0  0  0  0  0  0  0  0  0  0  0
    4.2506   -0.0955   -2.3708 H   0  0  0  0  0  0  0  0  0  0  0  0
    8.8774   -0.7965   -2.6472 H   0  0  0  0  0  0  0  0  0  0  0  0
    9.9237   -0.4138    2.0172 H   0  0  0  0  0  0  0  0  0  0  0  0
    7.6891    0.0364    3.0325 H   0  0  0  0  0  0  0  0  0  0  0  0
    5.6754    0.1620    1.5530 H   0  0  0  0  0  0  0  0  0  0  0  0
    4.8853    1.8932   -0.3797 H   0  0  0  0  0  0  0  0  0  0  0  0
    3.6475    1.8577   -1.6173 H   0  0  0  0  0  0  0  0  0  0  0  0
    3.3947    0.7453    1.2133 H   0  0  0  0  0  0  0  0  0  0  0  0
    2.5666    2.1309    0.5242 H   0  0  0  0  0  0  0  0  0  0  0  0
  1  2  2  0
  2  3  1  0
  3  4  1  0
  4  5  1  0
  5  6  1  0
  6  7  1  0
  7  8  1  0
  8  9  2  0
  9 10  1  0
 10 11  2  0
 11 12  1  0
 12 13  1  0
 12 14  2  0
 14 15  1  0
  7 16  1  0
 16 17  1  0
 17 18  1  0
 18 19  1  0
 19 20  1  0
 19 21  1  0
 19 22  1  0
 17 23  1  0
 23 24  2  0
  2 25  1  0
 25 26  1  0
 26 27  1  0
 27 28  1  0
 28 29  1  0
 29 30  1  0
 30 31  2  0
 30 32  1  0
 32 33  1  0
 33 34  2  0
 34 35  1  0
 35 36  2  0
 36 37  1  0
 37 38  2  0
 28 39  1  0
 39 40  1  0
 23  4  1  0
 40 25  1  0
 14  8  1  0
 38 29  1  0
 38 33  1  0
  3 41  1  0
  4 42  1  6
  5 43  1  0
  5 44  1  0
  6 45  1  0
  6 46  1  0
  7 47  1  6
  9 48  1  0
 10 49  1  0
 11 50  1  0
 16 51  1  0
 16 52  1  0
 18 53  1  0
 18 54  1  0
 26 55  1  0
 26 56  1  0
 27 57  1  0
 27 58  1  0
 28 59  1  0
 32 60  1  0
 35 61  1  0
 36 62  1  0
 37 63  1  0
 39 64  1  0
 39 65  1  0
 40 66  1  0
 40 67  1  0
M  END
$$$$
