
     RDKit          3D

 35 36  0  0  0  0  0  0  0  0999 V2000
    0.5258   -0.9771   -2.9527 N   0  0  0  0  0  0  0  0  0  0  0  0
    0.0949   -0.3268   -2.0925 C   0  0  0  0  0  0  0  0  0  0  0  0
   -0.4672    0.4541   -1.0289 C   0  0  0  0  0  0  0  0  0  0  0  0
    0.2584    1.3314   -0.2844 C   0  0  0  0  0  0  0  0  0  0  0  0
   -0.2756    2.0983    0.7475 N   0  0  0  0  0  0  0  0  0  0  0  0
    1.9804    1.5732   -0.6343 S   0  0  0  0  0  0  0  0  0  0  0  0
    2.6394    0.1615    0.2401 C   0  0  0  0  0  0  0  0  0  0  0  0
    2.5176    0.0428    1.6269 C   0  0  0  0  0  0  0  0  0  0  0  0
    3.0489   -1.0686    2.2899 C   0  0  0  0  0  0  0  0  0  0  0  0
    3.6763   -2.0925    1.5776 C   0  0  0  0  0  0  0  0  0  0  0  0
    4.3073   -3.1402    2.2561 N   0  0  0  0  0  0  0  0  0  0  0  0
    3.8560   -1.9356    0.2018 C   0  0  0  0  0  0  0  0  0  0  0  0
    3.3277   -0.8265   -0.4673 C   0  0  0  0  0  0  0  0  0  0  0  0
   -1.9004    0.2119   -0.7276 C   0  0  0  0  0  0  0  0  0  0  0  0
   -2.2102   -0.8395    0.1545 C   0  0  0  0  0  0  0  0  0  0  0  0
   -3.5340   -1.1303    0.4823 C   0  0  0  0  0  0  0  0  0  0  0  0
   -4.5661   -0.3748   -0.0630 C   0  0  0  0  0  0  0  0  0  0  0  0
   -4.2758    0.6746   -0.9349 C   0  0  0  0  0  0  0  0  0  0  0  0
   -2.9460    0.9824   -1.2822 C   0  0  0  0  0  0  0  0  0  0  0  0
   -2.6750    2.1505   -2.2009 C   0  0  0  0  0  0  0  0  0  0  0  0
   -2.1112    3.1963   -1.5332 F   0  0  0  0  0  0  0  0  0  0  0  0
   -3.7971    2.6528   -2.7882 F   0  0  0  0  0  0  0  0  0  0  0  0
   -1.8277    1.8496   -3.2203 F   0  0  0  0  0  0  0  0  0  0  0  0
    0.2770    2.9443    0.8788 H   0  0  0  0  0  0  0  0  0  0  0  0
   -1.2637    2.3104    0.6422 H   0  0  0  0  0  0  0  0  0  0  0  0
    2.0201    0.8165    2.2064 H   0  0  0  0  0  0  0  0  0  0  0  0
    2.9684   -1.1244    3.3722 H   0  0  0  0  0  0  0  0  0  0  0  0
    4.4611   -3.9658    1.6855 H   0  0  0  0  0  0  0  0  0  0  0  0
    3.8893   -3.3628    3.1536 H   0  0  0  0  0  0  0  0  0  0  0  0
    4.4096   -2.6776   -0.3676 H   0  0  0  0  0  0  0  0  0  0  0  0
    3.4655   -0.7438   -1.5434 H   0  0  0  0  0  0  0  0  0  0  0  0
   -1.4161   -1.4411    0.5965 H   0  0  0  0  0  0  0  0  0  0  0  0
   -3.7580   -1.9477    1.1639 H   0  0  0  0  0  0  0  0  0  0  0  0
   -5.5990   -0.6016    0.1920 H   0  0  0  0  0  0  0  0  0  0  0  0
   -5.1004    1.2570   -1.3464 H   0  0  0  0  0  0  0  0  0  0  0  0
  1  2  3  0
  2  3  1  0
  3  4  2  0
  4  5  1  0
  4  6  1  0
  6  7  1  0
  7  8  2  0
  8  9  1  0
  9 10  2  0
 10 11  1  0
 10 12  1  0
 12 13  2  0
  3 14  1  0
 14 15  2  0
 15 16  1  0
 16 17  2  0
 17 18  1  0
 18 19  2  0
 19 20  1  0
 20 21  1  0
 20 22  1  0
 20 23  1  0
 13  7  1  0
 19 14  1  0
  5 24  1  0
  5 25  1  0
  8 26  1  0
  9 27  1  0
 11 28  1  0
 11 29  1  0
 12 30  1  0
 13 31  1  0
 15 32  1  0
 16 33  1  0
 17 34  1  0
 18 35  1  0
M  END
$$$$
