
     RDKit          3D

 60 63  0  0  0  0  0  0  0  0999 V2000
   -2.9787    1.7108   -0.3040 C   0  0  0  0  0  0  0  0  0  0  0  0
   -3.5493    0.3694   -0.1420 N   0  0  0  0  0  0  0  0  0  0  0  0
   -2.9350   -0.3229    1.0041 C   0  0  0  0  0  0  0  0  0  0  0  0
   -2.6160   -1.8026    0.7398 C   0  0  0  0  0  0  0  0  0  0  0  0
   -1.8211   -2.0670   -0.5390 C   0  0  0  0  0  0  0  0  0  0  0  0
   -0.5679   -1.3451   -0.5976 N   0  0  0  0  0  0  0  0  0  0  0  0
    0.5446   -1.7456    0.1227 C   0  0  0  0  0  0  0  0  0  0  0  0
    0.5466   -2.7780    0.7899 O   0  0  0  0  0  0  0  0  0  0  0  0
    1.7008   -0.8246    0.0406 C   0  0  0  0  0  0  0  0  0  0  0  0
    1.9016    0.2768   -0.8734 C   0  0  0  0  0  0  0  0  0  0  0  0
    3.1164    0.7937   -0.5252 C   0  0  0  0  0  0  0  0  0  0  0  0
    3.5709    0.0218    0.4821 N   0  0  0  0  0  0  0  0  0  0  0  0
    2.7557   -0.9380    0.8867 N   0  0  0  0  0  0  0  0  0  0  0  0
    4.8633    0.4009    1.0197 C   0  0  0  0  0  0  0  0  0  0  0  0
    5.3611    1.4042   -0.0503 C   0  0  1  0  0  0  0  0  0  0  0  0
    6.2404    0.7572   -0.9849 O   0  0  0  0  0  0  0  0  0  0  0  0
    7.5532    0.6089   -0.6481 C   0  0  0  0  0  0  0  0  0  0  0  0
    8.3442   -0.0203   -1.6074 C   0  0  0  0  0  0  0  0  0  0  0  0
    9.7004   -0.2276   -1.3677 C   0  0  0  0  0  0  0  0  0  0  0  0
   10.2254    0.2068   -0.1631 C   0  0  0  0  0  0  0  0  0  0  0  0
    9.4947    0.8195    0.7924 N   0  0  0  0  0  0  0  0  0  0  0  0
    8.1773    1.0033    0.5284 C   0  0  0  0  0  0  0  0  0  0  0  0
    4.0872    1.8552   -0.8456 C   0  0  0  0  0  0  0  0  0  0  0  0
   -5.0319    0.4159   -0.1432 C   0  0  0  0  0  0  0  0  0  0  0  0
   -5.6585    1.3375    0.9340 C   0  0  0  0  0  0  0  0  0  0  0  0
   -7.1205    1.0080    1.2518 C   0  0  0  0  0  0  0  0  0  0  0  0
   -7.8466    0.4188    0.0525 C   0  0  0  0  0  0  0  0  0  0  0  0
   -7.1998   -0.8842   -0.4173 C   0  0  0  0  0  0  0  0  0  0  0  0
   -5.6977   -0.9684   -0.1220 C   0  0  0  0  0  0  0  0  0  0  0  0
   -3.4159    2.2211   -1.1695 H   0  0  0  0  0  0  0  0  0  0  0  0
   -3.1235    2.3387    0.5820 H   0  0  0  0  0  0  0  0  0  0  0  0
   -1.9024    1.6449   -0.5005 H   0  0  0  0  0  0  0  0  0  0  0  0
   -1.9829    0.1586    1.2673 H   0  0  0  0  0  0  0  0  0  0  0  0
   -3.5492   -0.2429    1.9081 H   0  0  0  0  0  0  0  0  0  0  0  0
   -2.0513   -2.1818    1.6011 H   0  0  0  0  0  0  0  0  0  0  0  0
   -3.5353   -2.3945    0.7040 H   0  0  0  0  0  0  0  0  0  0  0  0
   -2.3994   -1.7861   -1.4251 H   0  0  0  0  0  0  0  0  0  0  0  0
   -1.6059   -3.1391   -0.6144 H   0  0  0  0  0  0  0  0  0  0  0  0
   -0.5975   -0.4145   -0.9848 H   0  0  0  0  0  0  0  0  0  0  0  0
    1.2486    0.6161   -1.6637 H   0  0  0  0  0  0  0  0  0  0  0  0
    5.4776   -0.4966    1.1206 H   0  0  0  0  0  0  0  0  0  0  0  0
    4.6788    0.8836    1.9835 H   0  0  0  0  0  0  0  0  0  0  0  0
    5.8452    2.2892    0.3778 H   0  0  0  0  0  0  0  0  0  0  0  0
    7.9024   -0.3540   -2.5430 H   0  0  0  0  0  0  0  0  0  0  0  0
   10.3289   -0.7176   -2.1026 H   0  0  0  0  0  0  0  0  0  0  0  0
   11.2768    0.0686    0.0729 H   0  0  0  0  0  0  0  0  0  0  0  0
    7.6479    1.4924    1.3375 H   0  0  0  0  0  0  0  0  0  0  0  0
    4.2742    1.9340   -1.9203 H   0  0  0  0  0  0  0  0  0  0  0  0
    3.7216    2.8136   -0.4619 H   0  0  0  0  0  0  0  0  0  0  0  0
   -5.3053    0.8464   -1.1185 H   0  0  0  0  0  0  0  0  0  0  0  0
   -5.0963    1.3080    1.8739 H   0  0  0  0  0  0  0  0  0  0  0  0
   -5.6000    2.3758    0.5819 H   0  0  0  0  0  0  0  0  0  0  0  0
   -7.1578    0.2912    2.0819 H   0  0  0  0  0  0  0  0  0  0  0  0
   -7.6327    1.9127    1.5989 H   0  0  0  0  0  0  0  0  0  0  0  0
   -8.8999    0.2395    0.2955 H   0  0  0  0  0  0  0  0  0  0  0  0
   -7.8363    1.1474   -0.7678 H   0  0  0  0  0  0  0  0  0  0  0  0
   -7.6980   -1.7386    0.0572 H   0  0  0  0  0  0  0  0  0  0  0  0
   -7.3720   -0.9924   -1.4952 H   0  0  0  0  0  0  0  0  0  0  0  0
   -5.2337   -1.6381   -0.8560 H   0  0  0  0  0  0  0  0  0  0  0  0
   -5.5675   -1.4291    0.8649 H   0  0  0  0  0  0  0  0  0  0  0  0
  1  2  1  0
  2  3  1  0
  3  4  1  0
  4  5  1  0
  5  6  1  0
  6  7  1  0
  7  8  2  0
  7  9  1  0
  9 10  1  0
 10 11  2  0
 11 12  1  0
 12 13  1  0
 12 14  1  0
 14 15  1  0
 15 16  1  0
 16 17  1  0
 17 18  2  0
 18 19  1  0
 19 20  2  0
 20 21  1  0
 21 22  2  0
 15 23  1  0
  2 24  1  0
 24 25  1  0
 25 26  1  0
 26 27  1  0
 27 28  1  0
 28 29  1  0
 13  9  2  0
 22 17  1  0
 29 24  1  0
 23 11  1  0
  1 30  1  0
  1 31  1  0
  1 32  1  0
  3 33  1  0
  3 34  1  0
  4 35  1  0
  4 36  1  0
  5 37  1  0
  5 38  1  0
  6 39  1  0
 10 40  1  0
 14 41  1  0
 14 42  1  0
 15 43  1  1
 18 44  1  0
 19 45  1  0
 20 46  1  0
 22 47  1  0
 23 48  1  0
 23 49  1  0
 24 50  1  0
 25 51  1  0
 25 52  1  0
 26 53  1  0
 26 54  1  0
 27 55  1  0
 27 56  1  0
 28 57  1  0
 28 58  1  0
 29 59  1  0
 29 60  1  0
M  END
$$$$
