
     RDKit          3D

 34 35  0  0  0  0  0  0  0  0999 V2000
    3.9394   -1.3046    0.3137 C   0  0  0  0  0  0  0  0  0  0  0  0
    2.9309   -0.2202   -0.0223 C   0  0  0  0  0  0  0  0  0  0  0  0
    2.2291    0.1134    1.1803 O   0  0  0  0  0  0  0  0  0  0  0  0
    1.1396    0.9353    0.8854 C   0  0  0  0  0  0  0  0  0  0  0  0
    1.2273    2.2119    1.2932 C   0  0  0  0  0  0  0  0  0  0  0  0
    0.4426    3.2851    1.1131 C   0  0  0  0  0  0  0  0  0  0  0  0
   -0.6114    3.4539    0.3050 C   0  0  0  0  0  0  0  0  0  0  0  0
   -1.0814    2.4423   -0.7320 C   0  0  0  0  0  0  0  0  0  0  0  0
   -1.4238    2.8939   -1.8087 O   0  0  0  0  0  0  0  0  0  0  0  0
   -1.1130    0.9482   -0.5066 C   0  0  0  0  0  0  0  0  0  0  0  0
   -2.0672    0.0350   -0.9043 C   0  0  0  0  0  0  0  0  0  0  0  0
   -3.3028    0.2306   -1.7085 C   0  0  0  0  0  0  0  0  0  0  0  0
   -1.6614   -1.1941   -0.4194 N   0  0  0  0  0  0  0  0  0  0  0  0
   -2.3267   -2.4524   -0.6950 C   0  0  0  0  0  0  0  0  0  0  0  0
   -0.5366   -1.0367    0.3732 C   0  0  0  0  0  0  0  0  0  0  0  0
    0.0589   -2.1557    1.1567 C   0  0  0  0  0  0  0  0  0  0  0  0
   -0.1403    0.2854    0.2498 C   0  0  0  0  0  0  0  0  0  0  0  0
    4.6227   -1.4761   -0.5233 H   0  0  0  0  0  0  0  0  0  0  0  0
    3.4225   -2.2457    0.5383 H   0  0  0  0  0  0  0  0  0  0  0  0
    4.5183   -1.0443    1.2043 H   0  0  0  0  0  0  0  0  0  0  0  0
    2.2545   -0.5891   -0.8013 H   0  0  0  0  0  0  0  0  0  0  0  0
    3.4515    0.6730   -0.3919 H   0  0  0  0  0  0  0  0  0  0  0  0
    2.1200    2.4166    1.8928 H   0  0  0  0  0  0  0  0  0  0  0  0
    0.7337    4.1763    1.6775 H   0  0  0  0  0  0  0  0  0  0  0  0
   -1.1209    4.4116    0.2884 H   0  0  0  0  0  0  0  0  0  0  0  0
   -3.1370   -0.0901   -2.7404 H   0  0  0  0  0  0  0  0  0  0  0  0
   -3.6125    1.2797   -1.7221 H   0  0  0  0  0  0  0  0  0  0  0  0
   -4.1348   -0.3472   -1.2984 H   0  0  0  0  0  0  0  0  0  0  0  0
   -3.1746   -2.5465   -0.0146 H   0  0  0  0  0  0  0  0  0  0  0  0
   -1.6312   -3.2795   -0.5448 H   0  0  0  0  0  0  0  0  0  0  0  0
   -2.6509   -2.4589   -1.7372 H   0  0  0  0  0  0  0  0  0  0  0  0
    0.6892   -1.7885    1.9707 H   0  0  0  0  0  0  0  0  0  0  0  0
   -0.7221   -2.7687    1.6185 H   0  0  0  0  0  0  0  0  0  0  0  0
    0.6683   -2.7939    0.5101 H   0  0  0  0  0  0  0  0  0  0  0  0
  1  2  1  0
  2  3  1  0
  3  4  1  0
  4  5  2  0
  5  6  1  0
  6  7  2  0
  7  8  1  0
  8  9  2  0
  8 10  1  0
 10 11  2  0
 11 12  1  0
 11 13  1  0
 13 14  1  0
 13 15  1  0
 15 16  1  0
 15 17  2  0
 17  4  1  0
 17 10  1  0
  1 18  1  0
  1 19  1  0
  1 20  1  0
  2 21  1  0
  2 22  1  0
  5 23  1  0
  6 24  1  0
  7 25  1  0
 12 26  1  0
 12 27  1  0
 12 28  1  0
 14 29  1  0
 14 30  1  0
 14 31  1  0
 16 32  1  0
 16 33  1  0
 16 34  1  0
M  END
$$$$
