
     RDKit          3D

 32 32  0  0  0  0  0  0  0  0999 V2000
    0.6860    0.0000    0.0000 Cl  0  0  0  0  0  0  0  0  0  0  0  0
    4.1148    0.3941    1.4437 N   0  0  0  0  0  0  0  0  0  0  0  0
    3.0800   -0.6191    1.3241 C   0  0  0  0  0  0  0  0  0  0  0  0
    2.1599   -0.1808    0.2061 C   0  0  0  0  0  0  0  0  0  0  0  0
    1.5539    1.1013    0.4808 N   0  0  0  0  0  0  0  0  0  0  0  0
    0.5282    1.5008   -0.8563 S   0  0  0  0  0  6  0  0  0  0  0  0
    0.0198    2.9165   -0.7413 O   0  0  0  0  0  0  0  0  0  0  0  0
    1.3929    1.4675   -2.0857 O   0  0  0  0  0  0  0  0  0  0  0  0
   -0.7453    0.3556   -1.0715 C   0  0  0  0  0  0  0  0  0  0  0  0
   -0.8763   -0.3638   -2.2426 C   0  0  0  0  0  0  0  0  0  0  0  0
   -1.9139   -1.2627   -2.3500 C   0  0  0  0  0  0  0  0  0  0  0  0
   -2.8223   -1.4644   -1.3259 C   0  0  0  0  0  0  0  0  0  0  0  0
   -2.6971   -0.7471   -0.1500 C   0  0  0  0  0  0  0  0  0  0  0  0
   -3.5615   -0.8963    0.9054 C   0  0  0  0  0  0  0  0  0  0  0  0
   -3.3816   -0.1682    2.0162 N   0  0  0  0  0  0  0  0  0  0  0  0
   -2.3759    0.7192    2.1509 C   0  0  0  0  0  0  0  0  0  0  0  0
   -1.4787    0.9061    1.1168 C   0  0  0  0  0  0  0  0  0  0  0  0
   -1.6504    0.1650   -0.0316 C   0  0  0  0  0  0  0  0  0  0  0  0
   -0.6860    0.0000    0.0000 H   0  0  0  0  0  0  0  0  0  0  0  0
    4.5477    0.3836    2.3928 H   0  0  0  0  0  0  0  0  0  0  0  0
    4.8191    0.2609    0.6869 H   0  0  0  0  0  0  0  0  0  0  0  0
    3.5679   -1.5649    1.0822 H   0  0  0  0  0  0  0  0  0  0  0  0
    2.5564   -0.7401    2.2798 H   0  0  0  0  0  0  0  0  0  0  0  0
    2.6761   -0.1515   -0.7694 H   0  0  0  0  0  0  0  0  0  0  0  0
    1.3751   -0.9580    0.1213 H   0  0  0  0  0  0  0  0  0  0  0  0
    2.2286    1.8426    0.6818 H   0  0  0  0  0  0  0  0  0  0  0  0
   -0.1504   -0.1810   -3.0195 H   0  0  0  0  0  0  0  0  0  0  0  0
   -2.0378   -1.8458   -3.2717 H   0  0  0  0  0  0  0  0  0  0  0  0
   -3.6446   -2.1637   -1.3860 H   0  0  0  0  0  0  0  0  0  0  0  0
   -4.3688   -1.6094    0.7956 H   0  0  0  0  0  0  0  0  0  0  0  0
   -2.2607    1.2885    3.0590 H   0  0  0  0  0  0  0  0  0  0  0  0
   -0.6549    1.6149    1.1915 H   0  0  0  0  0  0  0  0  0  0  0  0
  2  3  1  0
  3  4  1  0
  4  5  1  0
  5  6  1  0
  6  7  2  0
  6  8  2  0
  6  9  1  0
  9 10  2  0
 10 11  1  0
 11 12  2  0
 12 13  1  0
 13 14  2  0
 14 15  1  0
 15 16  2  0
 16 17  1  0
 17 18  2  0
 18  9  1  0
 18 13  1  0
  1 19  1  0
  2 20  1  0
  2 21  1  0
  3 22  1  0
  3 23  1  0
  4 24  1  0
  4 25  1  0
  5 26  1  0
 10 27  1  0
 11 28  1  0
 12 29  1  0
 14 30  1  0
 16 31  1  0
 17 32  1  0
M  END
$$$$
