
     RDKit          3D

 47 48  0  0  0  0  0  0  0  0999 V2000
    5.9393    0.0790    3.9922 C   0  0  0  0  0  0  0  0  0  0  0  0
    6.0438   -0.6248    2.7603 O   0  0  0  0  0  0  0  0  0  0  0  0
    5.3861   -0.0911    1.6883 C   0  0  0  0  0  0  0  0  0  0  0  0
    5.4571   -0.8578    0.5257 C   0  0  0  0  0  0  0  0  0  0  0  0
    4.8262   -0.4368   -0.6447 C   0  0  0  0  0  0  0  0  0  0  0  0
    4.1209    0.7726   -0.6724 C   0  0  0  0  0  0  0  0  0  0  0  0
    3.4298    1.2093   -1.9384 C   0  0  0  0  0  0  0  0  0  0  0  0
    2.0970    0.5042   -2.1459 C   0  0  0  0  0  0  0  0  0  0  0  0
    2.0372   -0.5573   -2.7536 O   0  0  0  0  0  0  0  0  0  0  0  0
    1.0343    1.1885   -1.5791 N   0  0  0  0  0  0  0  0  0  0  0  0
   -0.3307    0.8385   -1.6105 C   0  0  0  0  0  0  0  0  0  0  0  0
   -0.8336   -0.2899   -2.2633 C   0  0  0  0  0  0  0  0  0  0  0  0
   -2.2052   -0.5616   -2.2664 C   0  0  0  0  0  0  0  0  0  0  0  0
   -3.0782    0.3012   -1.6105 C   0  0  0  0  0  0  0  0  0  0  0  0
   -4.8234   -0.0103   -1.6320 S   0  0  0  0  0  6  0  0  0  0  0  0
   -5.0836   -1.1852   -2.4320 O   0  0  0  0  0  0  0  0  0  0  0  0
   -5.4829    1.2511   -1.8896 O   0  0  0  0  0  0  0  0  0  0  0  0
   -5.1354   -0.3819   -0.0310 N   0  0  0  0  0  0  0  0  0  0  0  0
   -4.8069   -1.7017    0.5102 C   0  0  0  0  0  0  0  0  0  0  0  0
   -4.3472   -1.5184    1.9541 C   0  0  0  0  0  0  0  0  0  0  0  0
   -6.0378   -2.5970    0.4434 C   0  0  0  0  0  0  0  0  0  0  0  0
   -2.5944    1.4342   -0.9543 C   0  0  0  0  0  0  0  0  0  0  0  0
   -1.2226    1.6951   -0.9528 C   0  0  0  0  0  0  0  0  0  0  0  0
    4.0512    1.5429    0.4958 C   0  0  0  0  0  0  0  0  0  0  0  0
    4.6793    1.1110    1.6690 C   0  0  0  0  0  0  0  0  0  0  0  0
    6.5015   -0.4824    4.7482 H   0  0  0  0  0  0  0  0  0  0  0  0
    4.8977    0.1375    4.3268 H   0  0  0  0  0  0  0  0  0  0  0  0
    6.3855    1.0758    3.9194 H   0  0  0  0  0  0  0  0  0  0  0  0
    6.0024   -1.7989    0.5318 H   0  0  0  0  0  0  0  0  0  0  0  0
    4.8834   -1.0700   -1.5339 H   0  0  0  0  0  0  0  0  0  0  0  0
    4.0678    0.9946   -2.8046 H   0  0  0  0  0  0  0  0  0  0  0  0
    3.2867    2.2979   -1.9464 H   0  0  0  0  0  0  0  0  0  0  0  0
    1.2635    2.0275   -1.0645 H   0  0  0  0  0  0  0  0  0  0  0  0
   -0.1846   -0.9789   -2.7951 H   0  0  0  0  0  0  0  0  0  0  0  0
   -2.5757   -1.4413   -2.7932 H   0  0  0  0  0  0  0  0  0  0  0  0
   -5.8837    0.1652    0.3892 H   0  0  0  0  0  0  0  0  0  0  0  0
   -3.9854   -2.1575   -0.0555 H   0  0  0  0  0  0  0  0  0  0  0  0
   -4.0806   -2.4790    2.4053 H   0  0  0  0  0  0  0  0  0  0  0  0
   -3.4670   -0.8674    2.0029 H   0  0  0  0  0  0  0  0  0  0  0  0
   -5.1325   -1.0581    2.5658 H   0  0  0  0  0  0  0  0  0  0  0  0
   -6.8780   -2.1672    1.0023 H   0  0  0  0  0  0  0  0  0  0  0  0
   -5.8212   -3.5836    0.8613 H   0  0  0  0  0  0  0  0  0  0  0  0
   -6.3711   -2.7366   -0.5893 H   0  0  0  0  0  0  0  0  0  0  0  0
   -3.2756    2.1133   -0.4517 H   0  0  0  0  0  0  0  0  0  0  0  0
   -0.8638    2.5829   -0.4379 H   0  0  0  0  0  0  0  0  0  0  0  0
    3.5110    2.4866    0.5079 H   0  0  0  0  0  0  0  0  0  0  0  0
    4.5989    1.7369    2.5488 H   0  0  0  0  0  0  0  0  0  0  0  0
  1  2  1  0
  2  3  1  0
  3  4  2  0
  4  5  1  0
  5  6  2  0
  6  7  1  0
  7  8  1  0
  8  9  2  0
  8 10  1  0
 10 11  1  0
 11 12  2  0
 12 13  1  0
 13 14  2  0
 14 15  1  0
 15 16  2  0
 15 17  2  0
 15 18  1  0
 18 19  1  0
 19 20  1  0
 19 21  1  0
 14 22  1  0
 22 23  2  0
  6 24  1  0
 24 25  2  0
 25  3  1  0
 23 11  1  0
  1 26  1  0
  1 27  1  0
  1 28  1  0
  4 29  1  0
  5 30  1  0
  7 31  1  0
  7 32  1  0
 10 33  1  0
 12 34  1  0
 13 35  1  0
 18 36  1  0
 19 37  1  0
 20 38  1  0
 20 39  1  0
 20 40  1  0
 21 41  1  0
 21 42  1  0
 21 43  1  0
 22 44  1  0
 23 45  1  0
 24 46  1  0
 25 47  1  0
M  END
$$$$
