
     RDKit          3D

 69 72  0  0  0  0  0  0  0  0999 V2000
    2.6732   -2.6214    0.4454 C   0  0  0  0  0  0  0  0  0  0  0  0
    2.1303   -1.2270    0.2558 C   0  0  0  0  0  0  0  0  0  0  0  0
    2.9676   -0.1347    0.5564 C   0  0  0  0  0  0  0  0  0  0  0  0
    2.5206    1.1740    0.4010 C   0  0  0  0  0  0  0  0  0  0  0  0
    3.2332    2.3129    0.6509 O   0  0  0  0  0  0  0  0  0  0  0  0
    4.5243    2.2042    1.2461 C   0  0  0  0  0  0  0  0  0  0  0  0
    5.6013    2.0301    0.1801 C   0  0  0  0  0  0  0  0  0  0  0  0
    6.9897    1.9997    0.8012 C   0  0  0  0  0  0  0  0  0  0  0  0
    8.2468    1.6994   -0.4296 S   0  0  0  0  0  6  0  0  0  0  0  0
    9.7491    1.7639    0.5155 C   0  0  0  0  0  0  0  0  0  0  0  0
    8.2601    2.8218   -1.3468 O   0  0  0  0  0  0  0  0  0  0  0  0
    8.0892    0.3392   -0.9064 O   0  0  0  0  0  0  0  0  0  0  0  0
    1.2258    1.3950   -0.0674 C   0  0  0  0  0  0  0  0  0  0  0  0
    0.3701    0.3291   -0.3940 C   0  0  0  0  0  0  0  0  0  0  0  0
   -1.0223    0.6488   -0.8774 C   0  0  0  0  0  0  0  0  0  0  0  0
    0.8196   -1.0040   -0.2341 C   0  0  0  0  0  0  0  0  0  0  0  0
   -0.0593   -2.1364   -0.5775 C   0  0  0  0  0  0  0  0  0  0  0  0
    0.0971   -2.8249   -1.7889 C   0  0  0  0  0  0  0  0  0  0  0  0
   -0.7483   -3.8834   -2.1215 C   0  0  0  0  0  0  0  0  0  0  0  0
   -1.7755   -4.2551   -1.2549 C   0  0  0  0  0  0  0  0  0  0  0  0
   -1.9696   -3.5712   -0.0470 C   0  0  0  0  0  0  0  0  0  0  0  0
   -3.1069   -3.9719    0.8691 C   0  0  0  0  0  0  0  0  0  0  0  0
   -3.5691   -2.9270    1.7316 O   0  0  0  0  0  0  0  0  0  0  0  0
   -4.2860   -1.8916    1.1922 C   0  0  0  0  0  0  0  0  0  0  0  0
   -4.6968   -1.7818   -0.1480 C   0  0  0  0  0  0  0  0  0  0  0  0
   -5.3751   -0.6433   -0.6005 C   0  0  0  0  0  0  0  0  0  0  0  0
   -5.6421    0.3652    0.3061 C   0  0  0  0  0  0  0  0  0  0  0  0
   -5.2697    0.2361    1.6345 C   0  0  0  0  0  0  0  0  0  0  0  0
   -4.5864   -0.8683    2.0973 C   0  0  0  0  0  0  0  0  0  0  0  0
   -5.6194    1.3142    2.4066 O   0  0  0  0  0  0  0  0  0  0  0  0
   -6.5660    2.0228    1.5707 C   0  0  0  0  0  0  0  0  0  0  0  0
   -6.2610    1.7035    0.0969 C   0  0  1  0  0  0  0  0  0  0  0  0
   -5.2780    2.7150   -0.4985 C   0  0  0  0  0  0  0  0  0  0  0  0
   -5.0625    2.4883   -1.9687 C   0  0  0  0  0  0  0  0  0  0  0  0
   -5.8226    1.9423   -2.7505 O   0  0  0  0  0  0  0  0  0  0  0  0
   -3.8984    3.0127   -2.3970 O   0  0  0  0  0  0  0  0  0  0  0  0
   -1.0853   -2.5351    0.2929 C   0  0  0  0  0  0  0  0  0  0  0  0
    3.6161   -2.6106    1.0028 H   0  0  0  0  0  0  0  0  0  0  0  0
    1.9736   -3.2367    1.0201 H   0  0  0  0  0  0  0  0  0  0  0  0
    2.8642   -3.0898   -0.5252 H   0  0  0  0  0  0  0  0  0  0  0  0
    3.9733   -0.3438    0.9048 H   0  0  0  0  0  0  0  0  0  0  0  0
    4.5603    1.4274    2.0186 H   0  0  0  0  0  0  0  0  0  0  0  0
    4.6983    3.1517    1.7705 H   0  0  0  0  0  0  0  0  0  0  0  0
    5.5275    2.8469   -0.5489 H   0  0  0  0  0  0  0  0  0  0  0  0
    5.4225    1.1150   -0.3956 H   0  0  0  0  0  0  0  0  0  0  0  0
    7.2229    2.9559    1.2794 H   0  0  0  0  0  0  0  0  0  0  0  0
    7.0694    1.1983    1.5426 H   0  0  0  0  0  0  0  0  0  0  0  0
    9.8431    2.7559    0.9615 H   0  0  0  0  0  0  0  0  0  0  0  0
    9.7139    0.9930    1.2878 H   0  0  0  0  0  0  0  0  0  0  0  0
   10.5856    1.5776   -0.1616 H   0  0  0  0  0  0  0  0  0  0  0  0
    0.8815    2.4212   -0.1831 H   0  0  0  0  0  0  0  0  0  0  0  0
   -1.7526    0.4364   -0.0918 H   0  0  0  0  0  0  0  0  0  0  0  0
   -1.1171    1.7076   -1.1428 H   0  0  0  0  0  0  0  0  0  0  0  0
   -1.2683    0.0770   -1.7777 H   0  0  0  0  0  0  0  0  0  0  0  0
    0.8841   -2.5318   -2.4808 H   0  0  0  0  0  0  0  0  0  0  0  0
   -0.6107   -4.4111   -3.0615 H   0  0  0  0  0  0  0  0  0  0  0  0
   -2.4320   -5.0760   -1.5348 H   0  0  0  0  0  0  0  0  0  0  0  0
   -3.9503   -4.3982    0.3116 H   0  0  0  0  0  0  0  0  0  0  0  0
   -2.7347   -4.7707    1.5217 H   0  0  0  0  0  0  0  0  0  0  0  0
   -4.4834   -2.5582   -0.8752 H   0  0  0  0  0  0  0  0  0  0  0  0
   -5.6681   -0.5571   -1.6427 H   0  0  0  0  0  0  0  0  0  0  0  0
   -4.2819   -0.9346    3.1356 H   0  0  0  0  0  0  0  0  0  0  0  0
   -7.5717    1.6755    1.8459 H   0  0  0  0  0  0  0  0  0  0  0  0
   -6.5119    3.0936    1.7945 H   0  0  0  0  0  0  0  0  0  0  0  0
   -7.1896    1.6505   -0.4815 H   0  0  0  0  0  0  0  0  0  0  0  0
   -4.3079    2.6627    0.0116 H   0  0  0  0  0  0  0  0  0  0  0  0
   -5.6698    3.7326   -0.3865 H   0  0  0  0  0  0  0  0  0  0  0  0
   -3.8733    2.8057   -3.3550 H   0  0  0  0  0  0  0  0  0  0  0  0
   -1.2108   -2.0068    1.2375 H   0  0  0  0  0  0  0  0  0  0  0  0
  1  2  1  0
  2  3  2  0
  3  4  1  0
  4  5  1  0
  5  6  1  0
  6  7  1  0
  7  8  1  0
  8  9  1  0
  9 10  1  0
  9 11  2  0
  9 12  2  0
  4 13  2  0
 13 14  1  0
 14 15  1  0
 14 16  2  0
 16 17  1  0
 17 18  2  0
 18 19  1  0
 19 20  2  0
 20 21  1  0
 21 22  1  0
 22 23  1  0
 23 24  1  0
 24 25  2  0
 25 26  1  0
 26 27  2  0
 27 28  1  0
 28 29  2  0
 28 30  1  0
 30 31  1  0
 31 32  1  0
 32 33  1  0
 33 34  1  0
 34 35  2  0
 34 36  1  0
 21 37  2  0
 16  2  1  0
 37 17  1  0
 29 24  1  0
 32 27  1  0
  1 38  1  0
  1 39  1  0
  1 40  1  0
  3 41  1  0
  6 42  1  0
  6 43  1  0
  7 44  1  0
  7 45  1  0
  8 46  1  0
  8 47  1  0
 10 48  1  0
 10 49  1  0
 10 50  1  0
 13 51  1  0
 15 52  1  0
 15 53  1  0
 15 54  1  0
 18 55  1  0
 19 56  1  0
 20 57  1  0
 22 58  1  0
 22 59  1  0
 25 60  1  0
 26 61  1  0
 29 62  1  0
 31 63  1  0
 31 64  1  0
 32 65  1  6
 33 66  1  0
 33 67  1  0
 36 68  1  0
 37 69  1  0
M  END
$$$$
