
     RDKit          3D

 20 21  0  0  0  0  0  0  0  0999 V2000
    3.5140    0.1581    0.3064 C   0  0  0  0  0  0  0  0  0  0  0  0
    2.9300   -0.5958   -0.6995 C   0  0  0  0  0  0  0  0  0  0  0  0
    1.5380   -0.6446   -0.8028 C   0  0  0  0  0  0  0  0  0  0  0  0
    0.7452    0.0646    0.1057 C   0  0  0  0  0  0  0  0  0  0  0  0
   -0.7487    0.0709    0.0720 C   0  0  0  0  0  0  0  0  0  0  0  0
   -1.5056   -0.6317   -0.8715 C   0  0  0  0  0  0  0  0  0  0  0  0
   -2.9004   -0.5712   -0.8312 C   0  0  0  0  0  0  0  0  0  0  0  0
   -3.5228    0.1878    0.1474 C   0  0  0  0  0  0  0  0  0  0  0  0
   -2.7207    0.8577    1.0492 C   0  0  0  0  0  0  0  0  0  0  0  0
   -1.3717    0.8138    1.0295 N   0  0  0  0  0  0  0  0  0  0  0  0
    1.3306    0.8024    1.0906 N   0  0  0  0  0  0  0  0  0  0  0  0
    2.6777    0.8349    1.1711 C   0  0  0  0  0  0  0  0  0  0  0  0
    4.5906    0.2176    0.4148 H   0  0  0  0  0  0  0  0  0  0  0  0
    3.5501   -1.1448   -1.4026 H   0  0  0  0  0  0  0  0  0  0  0  0
    1.1052   -1.2404   -1.5969 H   0  0  0  0  0  0  0  0  0  0  0  0
   -1.0425   -1.2313   -1.6454 H   0  0  0  0  0  0  0  0  0  0  0  0
   -3.4927   -1.1150   -1.5617 H   0  0  0  0  0  0  0  0  0  0  0  0
   -4.6026    0.2564    0.2071 H   0  0  0  0  0  0  0  0  0  0  0  0
   -3.1486    1.4685    1.8387 H   0  0  0  0  0  0  0  0  0  0  0  0
    3.0747    1.4422    1.9793 H   0  0  0  0  0  0  0  0  0  0  0  0
  1  2  2  0
  2  3  1  0
  3  4  2  0
  4  5  1  0
  5  6  2  0
  6  7  1  0
  7  8  2  0
  8  9  1  0
  9 10  2  0
  4 11  1  0
 11 12  2  0
 12  1  1  0
 10  5  1  0
  1 13  1  0
  2 14  1  0
  3 15  1  0
  6 16  1  0
  7 17  1  0
  8 18  1  0
  9 19  1  0
 12 20  1  0
M  END
$$$$
