
     RDKit          3D

 57 60  0  0  0  0  0  0  0  0999 V2000
    8.2692    0.7582    1.3004 C   0  0  0  0  0  0  0  0  0  0  0  0
    6.8190    0.3065    1.1575 C   0  0  0  0  0  0  0  0  0  0  0  0
    5.8460    1.3677    1.7026 C   0  0  0  0  0  0  0  0  0  0  0  0
    4.5025    1.3941    0.9615 C   0  0  0  0  0  0  0  0  0  0  0  0
    4.1021    0.0402    0.5731 N   0  0  0  0  0  0  0  0  0  0  0  0
    2.6990    0.0074    0.1242 C   0  0  0  0  0  0  0  0  0  0  0  0
    2.1374   -1.4203   -0.0284 C   0  0  0  0  0  0  0  0  0  0  0  0
    0.7693   -1.4324   -0.5228 N   0  0  0  0  0  0  0  0  0  0  0  0
   -0.2890   -1.0980    0.2929 C   0  0  0  0  0  0  0  0  0  0  0  0
   -0.1962   -0.8913    1.4953 O   0  0  0  0  0  0  0  0  0  0  0  0
   -1.5917   -1.0724   -0.4013 C   0  0  0  0  0  0  0  0  0  0  0  0
   -2.1268   -2.2353   -0.8171 C   0  0  0  0  0  0  0  0  0  0  0  0
   -1.5644   -3.4860   -0.6777 O   0  0  0  0  0  0  0  0  0  0  0  0
   -3.3990   -2.1768   -1.4419 C   0  0  0  0  0  0  0  0  0  0  0  0
   -4.2389   -3.5297   -2.0663 S   0  0  0  0  0  0  0  0  0  0  0  0
   -5.5669   -2.5666   -2.5431 C   0  0  0  0  0  0  0  0  0  0  0  0
   -5.3738   -1.2367   -2.2415 C   0  0  0  0  0  0  0  0  0  0  0  0
   -4.1174   -1.0075   -1.6077 C   0  0  0  0  0  0  0  0  0  0  0  0
   -3.5771    0.2133   -1.1703 N   0  0  0  0  0  0  0  0  0  0  0  0
   -4.3009    1.4806   -1.2883 C   0  0  0  0  0  0  0  0  0  0  0  0
   -5.3419    1.6698   -0.2059 C   0  0  0  0  0  0  0  0  0  0  0  0
   -6.6977    1.8180   -0.5361 C   0  0  0  0  0  0  0  0  0  0  0  0
   -7.6574    1.9923    0.4631 C   0  0  0  0  0  0  0  0  0  0  0  0
   -7.2734    2.0297    1.8019 C   0  0  0  0  0  0  0  0  0  0  0  0
   -5.9283    1.8990    2.1431 C   0  0  0  0  0  0  0  0  0  0  0  0
   -4.9677    1.7246    1.1457 C   0  0  0  0  0  0  0  0  0  0  0  0
   -2.3029    0.2335   -0.5875 C   0  0  0  0  0  0  0  0  0  0  0  0
   -1.7407    1.2766   -0.2538 O   0  0  0  0  0  0  0  0  0  0  0  0
    5.0271   -0.5326   -0.4189 C   0  0  0  0  0  0  0  0  0  0  0  0
    6.4733   -0.0274   -0.2935 C   0  0  0  0  0  0  0  0  0  0  0  0
    8.5041    0.9761    2.3471 H   0  0  0  0  0  0  0  0  0  0  0  0
    8.4665    1.6605    0.7120 H   0  0  0  0  0  0  0  0  0  0  0  0
    8.9551   -0.0241    0.9580 H   0  0  0  0  0  0  0  0  0  0  0  0
    6.6975   -0.6088    1.7539 H   0  0  0  0  0  0  0  0  0  0  0  0
    5.6748    1.1655    2.7682 H   0  0  0  0  0  0  0  0  0  0  0  0
    6.2877    2.3708    1.6468 H   0  0  0  0  0  0  0  0  0  0  0  0
    4.5685    2.0449    0.0799 H   0  0  0  0  0  0  0  0  0  0  0  0
    3.7623    1.8471    1.6322 H   0  0  0  0  0  0  0  0  0  0  0  0
    2.0733    0.5315    0.8587 H   0  0  0  0  0  0  0  0  0  0  0  0
    2.5843    0.5542   -0.8216 H   0  0  0  0  0  0  0  0  0  0  0  0
    2.7242   -2.0020   -0.7464 H   0  0  0  0  0  0  0  0  0  0  0  0
    2.1630   -1.9398    0.9364 H   0  0  0  0  0  0  0  0  0  0  0  0
    0.6281   -1.4748   -1.5253 H   0  0  0  0  0  0  0  0  0  0  0  0
   -0.7710   -3.4333   -0.1143 H   0  0  0  0  0  0  0  0  0  0  0  0
   -6.4247   -3.0207   -3.0205 H   0  0  0  0  0  0  0  0  0  0  0  0
   -6.1117   -0.4806   -2.4721 H   0  0  0  0  0  0  0  0  0  0  0  0
   -3.6063    2.3284   -1.2467 H   0  0  0  0  0  0  0  0  0  0  0  0
   -4.7571    1.5236   -2.2849 H   0  0  0  0  0  0  0  0  0  0  0  0
   -7.0204    1.7999   -1.5748 H   0  0  0  0  0  0  0  0  0  0  0  0
   -8.7064    2.0997    0.1982 H   0  0  0  0  0  0  0  0  0  0  0  0
   -8.0201    2.1633    2.5795 H   0  0  0  0  0  0  0  0  0  0  0  0
   -5.6255    1.9346    3.1866 H   0  0  0  0  0  0  0  0  0  0  0  0
   -3.9209    1.6347    1.4333 H   0  0  0  0  0  0  0  0  0  0  0  0
    5.0294   -1.6220   -0.2952 H   0  0  0  0  0  0  0  0  0  0  0  0
    4.6926   -0.3268   -1.4436 H   0  0  0  0  0  0  0  0  0  0  0  0
    6.6006    0.8689   -0.9158 H   0  0  0  0  0  0  0  0  0  0  0  0
    7.1590   -0.7865   -0.6886 H   0  0  0  0  0  0  0  0  0  0  0  0
  1  2  1  0
  2  3  1  0
  3  4  1  0
  4  5  1  0
  5  6  1  0
  6  7  1  0
  7  8  1  0
  8  9  1  0
  9 10  2  0
  9 11  1  0
 11 12  2  0
 12 13  1  0
 12 14  1  0
 14 15  1  0
 15 16  1  0
 16 17  2  0
 17 18  1  0
 18 19  1  0
 19 20  1  0
 20 21  1  0
 21 22  2  0
 22 23  1  0
 23 24  2  0
 24 25  1  0
 25 26  2  0
 19 27  1  0
 27 28  2  0
  5 29  1  0
 29 30  1  0
 30  2  1  0
 27 11  1  0
 18 14  2  0
 26 21  1  0
  1 31  1  0
  1 32  1  0
  1 33  1  0
  2 34  1  0
  3 35  1  0
  3 36  1  0
  4 37  1  0
  4 38  1  0
  6 39  1  0
  6 40  1  0
  7 41  1  0
  7 42  1  0
  8 43  1  0
 13 44  1  0
 16 45  1  0
 17 46  1  0
 20 47  1  0
 20 48  1  0
 22 49  1  0
 23 50  1  0
 24 51  1  0
 25 52  1  0
 26 53  1  0
 29 54  1  0
 29 55  1  0
 30 56  1  0
 30 57  1  0
M  END
$$$$
