
     RDKit          3D

 40 42  0  0  0  0  0  0  0  0999 V2000
   -5.7181    2.5180    0.1820 C   0  0  0  0  0  0  0  0  0  0  0  0
   -5.4133    1.1490    0.4072 O   0  0  0  0  0  0  0  0  0  0  0  0
   -4.1425    0.7201    0.1168 C   0  0  0  0  0  0  0  0  0  0  0  0
   -3.1108    1.5531   -0.3318 C   0  0  0  0  0  0  0  0  0  0  0  0
   -1.8423    1.0299   -0.5935 C   0  0  0  0  0  0  0  0  0  0  0  0
   -1.5968   -0.3287   -0.3865 C   0  0  0  0  0  0  0  0  0  0  0  0
   -0.2655   -0.9141   -0.6579 C   0  0  0  0  0  0  0  0  0  0  0  0
   -0.2437   -1.9398   -1.3407 O   0  0  0  0  0  0  0  0  0  0  0  0
    0.9535   -0.3932   -0.1841 N   0  0  0  0  0  0  0  0  0  0  0  0
    2.1347   -0.8422   -0.6914 N   0  0  0  0  0  0  0  0  0  0  0  0
    3.0386   -0.0659   -0.0822 C   0  0  0  0  0  0  0  0  0  0  0  0
    4.4755   -0.1380   -0.3353 C   0  0  0  0  0  0  0  0  0  0  0  0
    5.3582    0.7183    0.3394 C   0  0  0  0  0  0  0  0  0  0  0  0
    6.7340    0.6548    0.1015 C   0  0  0  0  0  0  0  0  0  0  0  0
    7.2418   -0.2654   -0.8135 C   0  0  0  0  0  0  0  0  0  0  0  0
    6.3768   -1.1225   -1.4912 C   0  0  0  0  0  0  0  0  0  0  0  0
    5.0011   -1.0593   -1.2536 C   0  0  0  0  0  0  0  0  0  0  0  0
    2.4993    0.8127    0.8267 N   0  0  0  0  0  0  0  0  0  0  0  0
    1.2148    0.5680    0.7890 C   0  0  0  0  0  0  0  0  0  0  0  0
    0.3063    1.1493    1.6038 N   0  0  0  0  0  0  0  0  0  0  0  0
   -2.6279   -1.1778    0.0327 C   0  0  0  0  0  0  0  0  0  0  0  0
   -3.9010   -0.6595    0.2892 C   0  0  0  0  0  0  0  0  0  0  0  0
   -4.9643   -1.4098    0.7262 O   0  0  0  0  0  0  0  0  0  0  0  0
   -4.8386   -2.8245    0.6656 C   0  0  0  0  0  0  0  0  0  0  0  0
   -5.1187    3.1667    0.8290 H   0  0  0  0  0  0  0  0  0  0  0  0
   -5.5914    2.7834   -0.8727 H   0  0  0  0  0  0  0  0  0  0  0  0
   -6.7703    2.6731    0.4395 H   0  0  0  0  0  0  0  0  0  0  0  0
   -3.2633    2.6161   -0.4906 H   0  0  0  0  0  0  0  0  0  0  0  0
   -1.0612    1.6950   -0.9564 H   0  0  0  0  0  0  0  0  0  0  0  0
    4.9776    1.4428    1.0566 H   0  0  0  0  0  0  0  0  0  0  0  0
    7.4069    1.3243    0.6310 H   0  0  0  0  0  0  0  0  0  0  0  0
    8.3117   -0.3151   -0.9987 H   0  0  0  0  0  0  0  0  0  0  0  0
    6.7698   -1.8415   -2.2054 H   0  0  0  0  0  0  0  0  0  0  0  0
    4.3393   -1.7363   -1.7912 H   0  0  0  0  0  0  0  0  0  0  0  0
    0.7259    1.6867    2.3617 H   0  0  0  0  0  0  0  0  0  0  0  0
   -0.4834    0.6086    1.9472 H   0  0  0  0  0  0  0  0  0  0  0  0
   -2.4112   -2.2353    0.1534 H   0  0  0  0  0  0  0  0  0  0  0  0
   -5.8082   -3.2577    0.9292 H   0  0  0  0  0  0  0  0  0  0  0  0
   -4.1054   -3.1829    1.3952 H   0  0  0  0  0  0  0  0  0  0  0  0
   -4.5878   -3.1602   -0.3462 H   0  0  0  0  0  0  0  0  0  0  0  0
  1  2  1  0
  2  3  1  0
  3  4  2  0
  4  5  1  0
  5  6  2  0
  6  7  1  0
  7  8  2  0
  7  9  1  0
  9 10  1  0
 10 11  2  0
 11 12  1  0
 12 13  2  0
 13 14  1  0
 14 15  2  0
 15 16  1  0
 16 17  2  0
 11 18  1  0
 18 19  2  0
 19 20  1  0
  6 21  1  0
 21 22  2  0
 22 23  1  0
 23 24  1  0
 22  3  1  0
 19  9  1  0
 17 12  1  0
  1 25  1  0
  1 26  1  0
  1 27  1  0
  4 28  1  0
  5 29  1  0
 13 30  1  0
 14 31  1  0
 15 32  1  0
 16 33  1  0
 17 34  1  0
 20 35  1  0
 20 36  1  0
 21 37  1  0
 24 38  1  0
 24 39  1  0
 24 40  1  0
M  END
$$$$
