
     RDKit          3D

 49 53  0  0  0  0  0  0  0  0999 V2000
    1.8401   -3.5608    1.2252 N   0  0  0  0  0  0  0  0  0  0  0  0
    1.3178   -2.7266    0.6086 C   0  0  0  0  0  0  0  0  0  0  0  0
    0.7041   -1.6823   -0.1422 C   0  0  0  0  0  0  0  0  0  0  0  0
    1.0180   -0.3341   -0.0897 C   0  0  0  0  0  0  0  0  0  0  0  0
    2.1131    0.2425    0.7261 N   0  0  0  0  0  0  0  0  0  0  0  0
    1.6403    0.7095    2.3032 S   0  0  0  0  0  6  0  0  0  0  0  0
    0.4945   -0.0660    2.7221 O   0  0  0  0  0  0  0  0  0  0  0  0
    1.6058    2.1572    2.2710 O   0  0  0  0  0  0  0  0  0  0  0  0
    3.0462    0.2022    3.2541 C   0  0  0  0  0  0  0  0  0  0  0  0
    4.0286    1.1372    3.5960 C   0  0  0  0  0  0  0  0  0  0  0  0
    5.1245    0.7340    4.3598 C   0  0  0  0  0  0  0  0  0  0  0  0
    5.2317   -0.5918    4.7828 C   0  0  0  0  0  0  0  0  0  0  0  0
    4.2402   -1.5172    4.4520 C   0  0  0  0  0  0  0  0  0  0  0  0
    3.1417   -1.1215    3.6888 C   0  0  0  0  0  0  0  0  0  0  0  0
    0.1839    0.3322   -0.9654 N   0  0  0  0  0  0  0  0  0  0  0  0
    0.1412    1.7664   -1.2213 C   0  0  0  0  0  0  0  0  0  0  0  0
   -1.1768    2.3924   -0.8347 C   0  0  0  0  0  0  0  0  0  0  0  0
   -1.5147    2.6018    0.5096 C   0  0  0  0  0  0  0  0  0  0  0  0
   -2.7345    3.1888    0.8527 C   0  0  0  0  0  0  0  0  0  0  0  0
   -3.6333    3.5691   -0.1412 C   0  0  0  0  0  0  0  0  0  0  0  0
   -3.3140    3.3619   -1.4806 C   0  0  0  0  0  0  0  0  0  0  0  0
   -2.0935    2.7785   -1.8255 C   0  0  0  0  0  0  0  0  0  0  0  0
   -0.5741   -0.5917   -1.6477 C   0  0  0  0  0  0  0  0  0  0  0  0
   -1.4346   -0.3399   -2.6537 N   0  0  0  0  0  0  0  0  0  0  0  0
   -2.0612   -1.4437   -3.0958 C   0  0  0  0  0  0  0  0  0  0  0  0
   -2.9935   -1.3068   -4.1157 C   0  0  0  0  0  0  0  0  0  0  0  0
   -3.6839   -2.4062   -4.6275 C   0  0  0  0  0  0  0  0  0  0  0  0
   -3.4378   -3.6694   -4.1095 C   0  0  0  0  0  0  0  0  0  0  0  0
   -2.5035   -3.8225   -3.0843 C   0  0  0  0  0  0  0  0  0  0  0  0
   -1.8088   -2.7378   -2.5648 C   0  0  0  0  0  0  0  0  0  0  0  0
   -0.9204   -2.9608   -1.5819 N   0  0  0  0  0  0  0  0  0  0  0  0
   -0.2981   -1.8468   -1.1209 C   0  0  0  0  0  0  0  0  0  0  0  0
    2.5522    1.0628    0.3002 H   0  0  0  0  0  0  0  0  0  0  0  0
    3.9483    2.1751    3.2824 H   0  0  0  0  0  0  0  0  0  0  0  0
    5.8937    1.4529    4.6310 H   0  0  0  0  0  0  0  0  0  0  0  0
    6.0857   -0.9040    5.3790 H   0  0  0  0  0  0  0  0  0  0  0  0
    4.3211   -2.5480    4.7902 H   0  0  0  0  0  0  0  0  0  0  0  0
    2.3722   -1.8494    3.4439 H   0  0  0  0  0  0  0  0  0  0  0  0
    0.9529    2.2518   -0.6706 H   0  0  0  0  0  0  0  0  0  0  0  0
    0.3561    1.9074   -2.2874 H   0  0  0  0  0  0  0  0  0  0  0  0
   -0.8366    2.3113    1.3080 H   0  0  0  0  0  0  0  0  0  0  0  0
   -2.9820    3.3468    1.8991 H   0  0  0  0  0  0  0  0  0  0  0  0
   -4.5836    4.0220    0.1289 H   0  0  0  0  0  0  0  0  0  0  0  0
   -4.0175    3.6481   -2.2575 H   0  0  0  0  0  0  0  0  0  0  0  0
   -1.8684    2.6129   -2.8775 H   0  0  0  0  0  0  0  0  0  0  0  0
   -3.1913   -0.3166   -4.5199 H   0  0  0  0  0  0  0  0  0  0  0  0
   -4.4104   -2.2713   -5.4245 H   0  0  0  0  0  0  0  0  0  0  0  0
   -3.9684   -4.5357   -4.4963 H   0  0  0  0  0  0  0  0  0  0  0  0
   -2.3127   -4.8138   -2.6788 H   0  0  0  0  0  0  0  0  0  0  0  0
  1  2  3  0
  2  3  1  0
  3  4  2  0
  4  5  1  0
  5  6  1  0
  6  7  2  0
  6  8  2  0
  6  9  1  0
  9 10  2  0
 10 11  1  0
 11 12  2  0
 12 13  1  0
 13 14  2  0
  4 15  1  0
 15 16  1  0
 16 17  1  0
 17 18  2  0
 18 19  1  0
 19 20  2  0
 20 21  1  0
 21 22  2  0
 15 23  1  0
 23 24  2  0
 24 25  1  0
 25 26  2  0
 26 27  1  0
 27 28  2  0
 28 29  1  0
 29 30  2  0
 30 31  1  0
 31 32  2  0
 32  3  1  0
 14  9  1  0
 22 17  1  0
 32 23  1  0
 30 25  1  0
  5 33  1  0
 10 34  1  0
 11 35  1  0
 12 36  1  0
 13 37  1  0
 14 38  1  0
 16 39  1  0
 16 40  1  0
 18 41  1  0
 19 42  1  0
 20 43  1  0
 21 44  1  0
 22 45  1  0
 26 46  1  0
 27 47  1  0
 28 48  1  0
 29 49  1  0
M  END
$$$$
