
     RDKit          3D

 60 63  0  0  0  0  0  0  0  0999 V2000
   -4.7936   -1.9005   -4.1381 C   0  0  0  0  0  0  0  0  0  0  0  0
   -4.2299   -0.9076   -3.1322 C   0  0  0  0  0  0  0  0  0  0  0  0
   -5.1869   -0.6039   -1.9665 C   0  0  0  0  0  0  0  0  0  0  0  0
   -6.4708    0.0834   -2.4267 C   0  0  0  0  0  0  0  0  0  0  0  0
   -4.5187    0.2405   -0.9791 N   0  0  0  0  0  0  0  0  0  0  0  0
   -3.6683   -0.2977   -0.0345 C   0  0  0  0  0  0  0  0  0  0  0  0
   -3.4687   -1.4981    0.1036 O   0  0  0  0  0  0  0  0  0  0  0  0
   -2.9434    0.6755    0.8262 C   0  0  0  0  0  0  0  0  0  0  0  0
   -3.5147    1.9021    1.1860 C   0  0  0  0  0  0  0  0  0  0  0  0
   -2.8070    2.7830    2.0050 C   0  0  0  0  0  0  0  0  0  0  0  0
   -1.5314    2.4351    2.4688 C   0  0  0  0  0  0  0  0  0  0  0  0
   -0.7786    3.3773    3.3370 C   0  0  0  0  0  0  0  0  0  0  0  0
   -1.2705    4.4714    3.5998 O   0  0  0  0  0  0  0  0  0  0  0  0
    0.4673    2.9550    3.7952 N   0  0  0  0  0  0  0  0  0  0  0  0
    1.2238    3.8678    4.6342 C   0  0  0  0  0  0  0  0  0  0  0  0
    1.0155    1.7639    3.4154 C   0  0  0  0  0  0  0  0  0  0  0  0
    2.1927    1.3333    3.7644 N   0  0  0  0  0  0  0  0  0  0  0  0
    2.2992    0.1165    3.1327 N   0  0  0  0  0  0  0  0  0  0  0  0
    3.4218   -0.7765    3.3208 C   0  0  0  0  0  0  0  0  0  0  0  0
    4.3170   -0.8409    2.0810 C   0  0  0  0  0  0  0  0  0  0  0  0
    5.5189   -0.5980    2.1667 O   0  0  0  0  0  0  0  0  0  0  0  0
    3.6557   -1.2848    0.9456 N   0  0  0  0  0  0  0  0  0  0  0  0
    4.1799   -1.4602   -0.3503 C   0  0  0  0  0  0  0  0  0  0  0  0
    3.3052   -1.9496   -1.3283 C   0  0  0  0  0  0  0  0  0  0  0  0
    3.7404   -2.1515   -2.6419 C   0  0  0  0  0  0  0  0  0  0  0  0
    5.0628   -1.8742   -2.9980 C   0  0  0  0  0  0  0  0  0  0  0  0
    5.5345   -2.0587   -4.4093 C   0  0  0  0  0  0  0  0  0  0  0  0
    5.9319   -1.3707   -2.0248 C   0  0  0  0  0  0  0  0  0  0  0  0
    5.4948   -1.1690   -0.7100 C   0  0  0  0  0  0  0  0  0  0  0  0
    1.1288   -0.1650    2.4233 C   0  0  0  0  0  0  0  0  0  0  0  0
    0.9442   -1.1772    1.7632 O   0  0  0  0  0  0  0  0  0  0  0  0
    0.3192    0.9281    2.6169 N   0  0  0  0  0  0  0  0  0  0  0  0
   -0.9569    1.2064    2.1228 C   0  0  0  0  0  0  0  0  0  0  0  0
   -1.6709    0.3243    1.3048 C   0  0  0  0  0  0  0  0  0  0  0  0
   -5.6567   -1.4892   -4.6693 H   0  0  0  0  0  0  0  0  0  0  0  0
   -5.0985   -2.8289   -3.6450 H   0  0  0  0  0  0  0  0  0  0  0  0
   -4.0337   -2.1484   -4.8863 H   0  0  0  0  0  0  0  0  0  0  0  0
   -3.2916   -1.3172   -2.7374 H   0  0  0  0  0  0  0  0  0  0  0  0
   -3.9625    0.0218   -3.6506 H   0  0  0  0  0  0  0  0  0  0  0  0
   -5.4541   -1.5462   -1.4719 H   0  0  0  0  0  0  0  0  0  0  0  0
   -7.0593   -0.5633   -3.0843 H   0  0  0  0  0  0  0  0  0  0  0  0
   -7.1002    0.3396   -1.5672 H   0  0  0  0  0  0  0  0  0  0  0  0
   -6.2527    1.0135   -2.9629 H   0  0  0  0  0  0  0  0  0  0  0  0
   -4.4383    1.2254   -1.1935 H   0  0  0  0  0  0  0  0  0  0  0  0
   -4.5172    2.1716    0.8628 H   0  0  0  0  0  0  0  0  0  0  0  0
   -3.2543    3.7348    2.2878 H   0  0  0  0  0  0  0  0  0  0  0  0
    0.5539    4.4090    5.3095 H   0  0  0  0  0  0  0  0  0  0  0  0
    1.7267    4.5912    3.9845 H   0  0  0  0  0  0  0  0  0  0  0  0
    1.9747    3.3399    5.2287 H   0  0  0  0  0  0  0  0  0  0  0  0
    4.0116   -0.4314    4.1760 H   0  0  0  0  0  0  0  0  0  0  0  0
    3.0458   -1.7835    3.5304 H   0  0  0  0  0  0  0  0  0  0  0  0
    2.6716   -1.5285    1.0558 H   0  0  0  0  0  0  0  0  0  0  0  0
    2.2714   -2.1814   -1.0819 H   0  0  0  0  0  0  0  0  0  0  0  0
    3.0383   -2.5297   -3.3813 H   0  0  0  0  0  0  0  0  0  0  0  0
    4.8961   -2.7645   -4.9513 H   0  0  0  0  0  0  0  0  0  0  0  0
    6.5529   -2.4616   -4.4258 H   0  0  0  0  0  0  0  0  0  0  0  0
    5.5212   -1.0995   -4.9366 H   0  0  0  0  0  0  0  0  0  0  0  0
    6.9622   -1.1307   -2.2793 H   0  0  0  0  0  0  0  0  0  0  0  0
    6.2103   -0.7790    0.0069 H   0  0  0  0  0  0  0  0  0  0  0  0
   -1.2608   -0.6435    1.0226 H   0  0  0  0  0  0  0  0  0  0  0  0
  1  2  1  0
  2  3  1  0
  3  4  1  0
  3  5  1  0
  5  6  1  0
  6  7  2  0
  6  8  1  0
  8  9  2  0
  9 10  1  0
 10 11  2  0
 11 12  1  0
 12 13  2  0
 12 14  1  0
 14 15  1  0
 14 16  1  0
 16 17  2  0
 17 18  1  0
 18 19  1  0
 19 20  1  0
 20 21  2  0
 20 22  1  0
 22 23  1  0
 23 24  2  0
 24 25  1  0
 25 26  2  0
 26 27  1  0
 26 28  1  0
 28 29  2  0
 18 30  1  0
 30 31  2  0
 30 32  1  0
 32 33  1  0
 33 34  2  0
 34  8  1  0
 33 11  1  0
 32 16  1  0
 29 23  1  0
  1 35  1  0
  1 36  1  0
  1 37  1  0
  2 38  1  0
  2 39  1  0
  3 40  1  0
  4 41  1  0
  4 42  1  0
  4 43  1  0
  5 44  1  0
  9 45  1  0
 10 46  1  0
 15 47  1  0
 15 48  1  0
 15 49  1  0
 19 50  1  0
 19 51  1  0
 22 52  1  0
 24 53  1  0
 25 54  1  0
 27 55  1  0
 27 56  1  0
 27 57  1  0
 28 58  1  0
 29 59  1  0
 34 60  1  0
M  END
$$$$
