
     RDKit          3D

 32 34  0  0  0  0  0  0  0  0999 V2000
   -2.4535   -0.2129    1.5888 C   0  0  0  0  0  0  0  0  0  0  0  0
   -2.1588   -0.5329    0.1159 C   0  0  0  0  0  0  0  0  0  0  0  0
   -2.9728   -1.7687   -0.2907 C   0  0  0  0  0  0  0  0  0  0  0  0
   -2.5098    0.6314   -0.8211 C   0  0  0  0  0  0  0  0  0  0  0  0
   -1.5882    1.8242   -0.5973 C   0  0  0  0  0  0  0  0  0  0  0  0
   -0.1715    1.3771   -0.4101 C   0  0  0  0  0  0  0  0  0  0  0  0
    0.1588    0.0993   -0.1626 C   0  0  0  0  0  0  0  0  0  0  0  0
   -0.7740   -0.9083   -0.0110 O   0  0  0  0  0  0  0  0  0  0  0  0
    1.5618   -0.3390   -0.0243 C   0  0  0  0  0  0  0  0  0  0  0  0
    1.8821   -1.6845    0.2264 C   0  0  0  0  0  0  0  0  0  0  0  0
    3.2112   -2.1000    0.3572 C   0  0  0  0  0  0  0  0  0  0  0  0
    4.2466   -1.1779    0.2399 C   0  0  0  0  0  0  0  0  0  0  0  0
    3.9527    0.1602   -0.0085 C   0  0  0  0  0  0  0  0  0  0  0  0
    2.6178    0.5730   -0.1389 C   0  0  0  0  0  0  0  0  0  0  0  0
    2.3293    1.9937   -0.4009 C   0  0  0  0  0  0  0  0  0  0  0  0
    3.2291    2.8152   -0.5123 O   0  0  0  0  0  0  0  0  0  0  0  0
    0.8768    2.4197   -0.5305 C   0  0  0  0  0  0  0  0  0  0  0  0
    0.5899    3.5937   -0.7242 O   0  0  0  0  0  0  0  0  0  0  0  0
   -1.8408    0.6154    1.9591 H   0  0  0  0  0  0  0  0  0  0  0  0
   -3.5069    0.0457    1.7387 H   0  0  0  0  0  0  0  0  0  0  0  0
   -2.2141   -1.0723    2.2259 H   0  0  0  0  0  0  0  0  0  0  0  0
   -2.7424   -2.0657   -1.3205 H   0  0  0  0  0  0  0  0  0  0  0  0
   -2.7199   -2.6288    0.3401 H   0  0  0  0  0  0  0  0  0  0  0  0
   -4.0499   -1.5868   -0.2145 H   0  0  0  0  0  0  0  0  0  0  0  0
   -3.5560    0.9370   -0.7023 H   0  0  0  0  0  0  0  0  0  0  0  0
   -2.3894    0.3046   -1.8635 H   0  0  0  0  0  0  0  0  0  0  0  0
   -1.9091    2.3893    0.2859 H   0  0  0  0  0  0  0  0  0  0  0  0
   -1.6743    2.4963   -1.4593 H   0  0  0  0  0  0  0  0  0  0  0  0
    1.0965   -2.4323    0.3228 H   0  0  0  0  0  0  0  0  0  0  0  0
    3.4345   -3.1469    0.5508 H   0  0  0  0  0  0  0  0  0  0  0  0
    5.2804   -1.4997    0.3412 H   0  0  0  0  0  0  0  0  0  0  0  0
    4.7639    0.8808   -0.1002 H   0  0  0  0  0  0  0  0  0  0  0  0
  1  2  1  0
  2  3  1  0
  2  4  1  0
  4  5  1  0
  5  6  1  0
  6  7  2  0
  7  8  1  0
  7  9  1  0
  9 10  2  0
 10 11  1  0
 11 12  2  0
 12 13  1  0
 13 14  2  0
 14 15  1  0
 15 16  2  0
 15 17  1  0
 17 18  2  0
  8  2  1  0
 14  9  1  0
 17  6  1  0
  1 19  1  0
  1 20  1  0
  1 21  1  0
  3 22  1  0
  3 23  1  0
  3 24  1  0
  4 25  1  0
  4 26  1  0
  5 27  1  0
  5 28  1  0
 10 29  1  0
 11 30  1  0
 12 31  1  0
 13 32  1  0
M  END
$$$$
