
     RDKit          3D

 52 55  0  0  0  0  0  0  0  0999 V2000
    2.8431    0.3655    2.0325 O   0  0  0  0  0  0  0  0  0  0  0  0
    3.0023    0.2586    0.8221 C   0  0  0  0  0  0  0  0  0  0  0  0
    4.3627   -0.0313    0.2852 C   0  0  0  0  0  0  0  0  0  0  0  0
    5.2397    1.0971   -0.2098 C   0  0  0  0  0  0  0  0  0  0  0  0
    5.5910    0.3904    1.0630 C   0  0  0  0  0  0  0  0  0  0  0  0
    1.9739    0.3771   -0.1042 N   0  0  0  0  0  0  0  0  0  0  0  0
    2.1642    0.2243   -1.5463 C   0  0  0  0  0  0  0  0  0  0  0  0
    0.9462    0.6540   -2.3595 C   0  0  0  0  0  0  0  0  0  0  0  0
   -0.3274   -0.0688   -1.9168 C   0  0  0  0  0  0  0  0  0  0  0  0
   -0.4098   -0.2413   -0.3892 C   0  0  0  0  0  0  0  0  0  0  0  0
   -1.7992   -0.2472    0.1378 N   0  0  0  0  0  0  0  0  0  0  0  0
   -2.5156    0.8854    0.5864 C   0  0  0  0  0  0  0  0  0  0  0  0
   -3.4925    0.7718    1.3339 O   0  0  0  0  0  0  0  0  0  0  0  0
   -2.1609    2.2769    0.1949 C   0  0  0  0  0  0  0  0  0  0  0  0
   -2.5197    3.3202    1.0425 C   0  0  0  0  0  0  0  0  0  0  0  0
   -2.2779    4.6251    0.7477 N   0  0  0  0  0  0  0  0  0  0  0  0
   -1.6845    4.8450   -0.4448 C   0  0  0  0  0  0  0  0  0  0  0  0
   -1.3416    3.8112   -1.3003 C   0  0  0  0  0  0  0  0  0  0  0  0
   -1.5664    2.5081   -1.0038 N   0  0  0  0  0  0  0  0  0  0  0  0
   -2.4017   -1.5624    0.4735 C   0  0  0  0  0  0  0  0  0  0  0  0
   -1.8530   -2.1232    1.7953 C   0  0  0  0  0  0  0  0  0  0  0  0
   -1.9225   -3.6455    1.8318 C   0  0  0  0  0  0  0  0  0  0  0  0
   -3.0908   -4.1032    1.1613 O   0  0  0  0  0  0  0  0  0  0  0  0
   -3.0591   -3.8739   -0.2480 C   0  0  0  0  0  0  0  0  0  0  0  0
   -2.3094   -2.6033   -0.6462 C   0  0  0  0  0  0  0  0  0  0  0  0
    0.6111    0.6253    0.3781 C   0  0  0  0  0  0  0  0  0  0  0  0
    4.4411   -0.9903   -0.2167 H   0  0  0  0  0  0  0  0  0  0  0  0
    4.8651    2.1120   -0.1334 H   0  0  0  0  0  0  0  0  0  0  0  0
    5.8589    0.9145   -1.0798 H   0  0  0  0  0  0  0  0  0  0  0  0
    6.4436   -0.2785    1.0616 H   0  0  0  0  0  0  0  0  0  0  0  0
    5.4488    0.9211    1.9987 H   0  0  0  0  0  0  0  0  0  0  0  0
    2.3885   -0.8324   -1.7344 H   0  0  0  0  0  0  0  0  0  0  0  0
    3.0356    0.8079   -1.8581 H   0  0  0  0  0  0  0  0  0  0  0  0
    1.1232    0.4710   -3.4253 H   0  0  0  0  0  0  0  0  0  0  0  0
    0.8077    1.7357   -2.2477 H   0  0  0  0  0  0  0  0  0  0  0  0
   -0.3426   -1.0649   -2.3790 H   0  0  0  0  0  0  0  0  0  0  0  0
   -1.2055    0.4417   -2.3250 H   0  0  0  0  0  0  0  0  0  0  0  0
   -0.0351   -1.2578   -0.2058 H   0  0  0  0  0  0  0  0  0  0  0  0
   -3.0178    3.1398    1.9902 H   0  0  0  0  0  0  0  0  0  0  0  0
   -1.4929    5.8817   -0.6983 H   0  0  0  0  0  0  0  0  0  0  0  0
   -0.8709    4.0063   -2.2577 H   0  0  0  0  0  0  0  0  0  0  0  0
   -3.4784   -1.3999    0.6213 H   0  0  0  0  0  0  0  0  0  0  0  0
   -0.8214   -1.8083    1.9886 H   0  0  0  0  0  0  0  0  0  0  0  0
   -2.4515   -1.7094    2.6169 H   0  0  0  0  0  0  0  0  0  0  0  0
   -1.0359   -4.0971    1.3702 H   0  0  0  0  0  0  0  0  0  0  0  0
   -1.9601   -3.9935    2.8691 H   0  0  0  0  0  0  0  0  0  0  0  0
   -2.6151   -4.7474   -0.7376 H   0  0  0  0  0  0  0  0  0  0  0  0
   -4.1002   -3.8133   -0.5821 H   0  0  0  0  0  0  0  0  0  0  0  0
   -1.2646   -2.8730   -0.8386 H   0  0  0  0  0  0  0  0  0  0  0  0
   -2.7035   -2.2138   -1.5918 H   0  0  0  0  0  0  0  0  0  0  0  0
    0.4415    1.6966    0.2572 H   0  0  0  0  0  0  0  0  0  0  0  0
    0.5394    0.4151    1.4510 H   0  0  0  0  0  0  0  0  0  0  0  0
  1  2  2  0
  2  3  1  0
  3  4  1  0
  4  5  1  0
  2  6  1  0
  6  7  1  0
  7  8  1  0
  8  9  1  0
  9 10  1  0
 10 11  1  0
 11 12  1  0
 12 13  2  0
 12 14  1  0
 14 15  2  0
 15 16  1  0
 16 17  2  0
 17 18  1  0
 18 19  2  0
 11 20  1  0
 20 21  1  0
 21 22  1  0
 22 23  1  0
 23 24  1  0
 24 25  1  0
 10 26  1  0
  5  3  1  0
 26  6  1  0
 19 14  1  0
 25 20  1  0
  3 27  1  0
  4 28  1  0
  4 29  1  0
  5 30  1  0
  5 31  1  0
  7 32  1  0
  7 33  1  0
  8 34  1  0
  8 35  1  0
  9 36  1  0
  9 37  1  0
 10 38  1  0
 15 39  1  0
 17 40  1  0
 18 41  1  0
 20 42  1  0
 21 43  1  0
 21 44  1  0
 22 45  1  0
 22 46  1  0
 24 47  1  0
 24 48  1  0
 25 49  1  0
 25 50  1  0
 26 51  1  0
 26 52  1  0
M  END
$$$$
