
     RDKit          3D

 64 68  0  0  0  0  0  0  0  0999 V2000
   -2.7347   -3.0750    2.9789 C   0  0  0  0  0  0  0  0  0  0  0  0
   -1.6337   -2.2699    2.4819 N   0  0  0  0  0  0  0  0  0  0  0  0
   -0.3617   -2.8290    2.4178 C   0  0  0  0  0  0  0  0  0  0  0  0
   -0.0955   -3.9782    2.7598 O   0  0  0  0  0  0  0  0  0  0  0  0
    0.7284   -1.9609    1.9005 C   0  0  0  0  0  0  0  0  0  0  0  0
    2.0330   -2.4645    1.8129 C   0  0  0  0  0  0  0  0  0  0  0  0
    3.0627   -1.6516    1.3395 C   0  0  0  0  0  0  0  0  0  0  0  0
    2.7856   -0.3364    0.9476 C   0  0  0  0  0  0  0  0  0  0  0  0
    3.8649    0.5692    0.4737 C   0  0  0  0  0  0  0  0  0  0  0  0
    3.8343    1.7569    0.7684 O   0  0  0  0  0  0  0  0  0  0  0  0
    4.8559   -0.0132   -0.2892 N   0  0  0  0  0  0  0  0  0  0  0  0
    6.0289    0.7347   -0.7208 C   0  0  0  0  0  0  0  0  0  0  0  0
    6.6490    0.0937   -1.9748 C   0  0  0  0  0  0  0  0  0  0  0  0
    8.1497    0.3592   -2.1223 C   0  0  0  0  0  0  0  0  0  0  0  0
    8.5586    1.6818   -1.4886 C   0  0  0  0  0  0  0  0  0  0  0  0
    8.2526    1.7122    0.0103 C   0  0  0  0  0  0  0  0  0  0  0  0
    7.0573    0.8437    0.4096 C   0  0  0  0  0  0  0  0  0  0  0  0
    1.4793    0.1686    1.0451 C   0  0  0  0  0  0  0  0  0  0  0  0
    0.4427   -0.6454    1.5150 C   0  0  0  0  0  0  0  0  0  0  0  0
   -0.8811   -0.2133    1.6284 N   0  0  0  0  0  0  0  0  0  0  0  0
   -1.4579    0.9914    1.2876 C   0  0  0  0  0  0  0  0  0  0  0  0
   -0.9443    1.9848    0.7990 O   0  0  0  0  0  0  0  0  0  0  0  0
   -2.8109    0.8462    1.6272 N   0  0  0  0  0  0  0  0  0  0  0  0
   -3.8660    1.7484    1.2413 C   0  0  0  0  0  0  0  0  0  0  0  0
   -4.4505    1.3051   -0.1001 C   0  0  0  0  0  0  0  0  0  0  0  0
   -3.7631    0.9100   -1.0399 O   0  0  0  0  0  0  0  0  0  0  0  0
   -5.8314    1.4122   -0.1750 N   0  0  0  0  0  0  0  0  0  0  0  0
   -6.5441    0.9134   -1.3325 C   0  0  0  0  0  0  0  0  0  0  0  0
   -6.6687   -0.6087   -1.3425 C   0  0  0  0  0  0  0  0  0  0  0  0
   -7.8365   -0.8882   -2.2824 C   0  0  0  0  0  0  0  0  0  0  0  0
   -8.6701    0.3946   -2.3238 C   0  0  0  0  0  0  0  0  0  0  0  0
   -7.9992    1.3658   -1.3612 C   0  0  0  0  0  0  0  0  0  0  0  0
   -3.0558   -0.4193    2.1113 N   0  0  0  0  0  0  0  0  0  0  0  0
   -1.8849   -0.9866    2.0877 C   0  0  0  0  0  0  0  0  0  0  0  0
   -3.1413   -2.5974    3.8767 H   0  0  0  0  0  0  0  0  0  0  0  0
   -3.5237   -3.1117    2.2201 H   0  0  0  0  0  0  0  0  0  0  0  0
   -2.4271   -4.0941    3.2249 H   0  0  0  0  0  0  0  0  0  0  0  0
    2.2502   -3.4846    2.1252 H   0  0  0  0  0  0  0  0  0  0  0  0
    4.0765   -2.0437    1.3170 H   0  0  0  0  0  0  0  0  0  0  0  0
    4.8183   -1.0030   -0.4914 H   0  0  0  0  0  0  0  0  0  0  0  0
    5.6932    1.7488   -0.9764 H   0  0  0  0  0  0  0  0  0  0  0  0
    6.4924   -0.9931   -1.9847 H   0  0  0  0  0  0  0  0  0  0  0  0
    6.1184    0.4757   -2.8572 H   0  0  0  0  0  0  0  0  0  0  0  0
    8.7106   -0.4545   -1.6432 H   0  0  0  0  0  0  0  0  0  0  0  0
    8.4230    0.3432   -3.1837 H   0  0  0  0  0  0  0  0  0  0  0  0
    8.0224    2.4998   -1.9878 H   0  0  0  0  0  0  0  0  0  0  0  0
    9.6276    1.8657   -1.6487 H   0  0  0  0  0  0  0  0  0  0  0  0
    8.0711    2.7522    0.3106 H   0  0  0  0  0  0  0  0  0  0  0  0
    9.1320    1.3799    0.5768 H   0  0  0  0  0  0  0  0  0  0  0  0
    7.4114   -0.1618    0.6760 H   0  0  0  0  0  0  0  0  0  0  0  0
    6.6036    1.2522    1.3210 H   0  0  0  0  0  0  0  0  0  0  0  0
    1.2991    1.2009    0.7500 H   0  0  0  0  0  0  0  0  0  0  0  0
   -3.4674    2.7611    1.1228 H   0  0  0  0  0  0  0  0  0  0  0  0
   -4.6258    1.7471    2.0287 H   0  0  0  0  0  0  0  0  0  0  0  0
   -6.3424    1.4707    0.6976 H   0  0  0  0  0  0  0  0  0  0  0  0
   -6.0264    1.2495   -2.2414 H   0  0  0  0  0  0  0  0  0  0  0  0
   -5.7470   -1.1007   -1.6712 H   0  0  0  0  0  0  0  0  0  0  0  0
   -6.9016   -0.9869   -0.3382 H   0  0  0  0  0  0  0  0  0  0  0  0
   -7.4720   -1.1284   -3.2877 H   0  0  0  0  0  0  0  0  0  0  0  0
   -8.4263   -1.7431   -1.9352 H   0  0  0  0  0  0  0  0  0  0  0  0
   -9.7145    0.2135   -2.0470 H   0  0  0  0  0  0  0  0  0  0  0  0
   -8.6661    0.8050   -3.3407 H   0  0  0  0  0  0  0  0  0  0  0  0
   -8.4563    1.2794   -0.3677 H   0  0  0  0  0  0  0  0  0  0  0  0
   -8.1049    2.4067   -1.6822 H   0  0  0  0  0  0  0  0  0  0  0  0
  1  2  1  0
  2  3  1  0
  3  4  2  0
  3  5  1  0
  5  6  2  0
  6  7  1  0
  7  8  2  0
  8  9  1  0
  9 10  2  0
  9 11  1  0
 11 12  1  0
 12 13  1  0
 13 14  1  0
 14 15  1  0
 15 16  1  0
 16 17  1  0
  8 18  1  0
 18 19  2  0
 19 20  1  0
 20 21  1  0
 21 22  2  0
 21 23  1  0
 23 24  1  0
 24 25  1  0
 25 26  2  0
 25 27  1  0
 27 28  1  0
 28 29  1  0
 29 30  1  0
 30 31  1  0
 31 32  1  0
 23 33  1  0
 33 34  2  0
 34  2  1  0
 19  5  1  0
 34 20  1  0
 17 12  1  0
 32 28  1  0
  1 35  1  0
  1 36  1  0
  1 37  1  0
  6 38  1  0
  7 39  1  0
 11 40  1  0
 12 41  1  0
 13 42  1  0
 13 43  1  0
 14 44  1  0
 14 45  1  0
 15 46  1  0
 15 47  1  0
 16 48  1  0
 16 49  1  0
 17 50  1  0
 17 51  1  0
 18 52  1  0
 24 53  1  0
 24 54  1  0
 27 55  1  0
 28 56  1  0
 29 57  1  0
 29 58  1  0
 30 59  1  0
 30 60  1  0
 31 61  1  0
 31 62  1  0
 32 63  1  0
 32 64  1  0
M  END
$$$$
