
     RDKit          3D

 71 72  0  0  0  0  0  0  0  0999 V2000
  -10.4388    0.2404   -1.3899 C   0  0  0  0  0  0  0  0  0  0  0  0
   -9.5448    0.3067   -0.2992 O   0  0  0  0  0  0  0  0  0  0  0  0
   -8.1917    0.0617   -0.4235 C   0  0  0  0  0  0  0  0  0  0  0  0
   -7.6004   -0.2713   -1.6373 C   0  0  0  0  0  0  0  0  0  0  0  0
   -6.2499   -0.5145   -1.7539 C   0  0  0  0  0  0  0  0  0  0  0  0
   -5.4363   -0.4303   -0.6399 C   0  0  0  0  0  0  0  0  0  0  0  0
   -3.9792   -0.6643   -0.6421 C   0  0  0  0  0  0  0  0  0  0  0  0
   -3.1993    0.6059   -0.8825 C   0  0  0  0  0  0  0  0  0  0  0  0
   -1.7617    0.4017   -0.8852 N   0  0  0  0  0  0  0  0  0  0  0  0
   -1.3464   -0.3767   -2.0357 C   0  0  0  0  0  0  0  0  0  0  0  0
   -1.2835   -0.1591    0.3407 C   0  0  0  0  0  0  0  0  0  0  0  0
    0.2062   -0.2897    0.3032 C   0  0  0  0  0  0  0  0  0  0  0  0
    0.8454    1.0611    0.1098 C   0  0  0  0  0  0  0  0  0  0  0  0
    2.2975    0.9242    0.0838 N   0  0  0  0  0  0  0  0  0  0  0  0
    2.9649    1.0394    1.3728 C   0  0  0  0  0  0  0  0  0  0  0  0
    3.7611   -0.2116    1.5969 C   0  0  0  0  0  0  0  0  0  0  0  0
    5.0106   -0.2346    0.7942 C   0  0  0  0  0  0  0  0  0  0  0  0
    6.1577   -0.3164    1.5536 C   0  0  0  0  0  0  0  0  0  0  0  0
    7.4185   -0.3480    0.9948 C   0  0  0  0  0  0  0  0  0  0  0  0
    8.5661   -0.4299    1.7584 O   0  0  0  0  0  0  0  0  0  0  0  0
    8.5440   -0.4868    3.1712 C   0  0  0  0  0  0  0  0  0  0  0  0
    7.5102   -0.2941   -0.3895 C   0  0  0  0  0  0  0  0  0  0  0  0
    8.7864   -0.3270   -0.9367 O   0  0  0  0  0  0  0  0  0  0  0  0
    9.0829   -0.2827   -2.2983 C   0  0  0  0  0  0  0  0  0  0  0  0
    6.3575   -0.2118   -1.1564 C   0  0  0  0  0  0  0  0  0  0  0  0
    5.0868   -0.1801   -0.5888 C   0  0  0  0  0  0  0  0  0  0  0  0
    4.0124   -0.0953   -1.5932 C   0  0  0  0  0  0  0  0  0  0  0  0
    2.8471    0.6998   -1.2017 C   0  0  0  0  0  0  0  0  0  0  0  0
    2.2261    1.2822   -2.1570 O   0  0  0  0  0  0  0  0  0  0  0  0
   -6.0158   -0.0995    0.5720 C   0  0  0  0  0  0  0  0  0  0  0  0
   -7.3662    0.1428    0.6839 C   0  0  0  0  0  0  0  0  0  0  0  0
   -7.9412    0.4755    1.9071 O   0  0  0  0  0  0  0  0  0  0  0  0
   -7.1048    0.5614    3.0368 C   0  0  0  0  0  0  0  0  0  0  0  0
    0.6892    0.0000    0.0000 Cl  0  0  0  0  0  0  0  0  0  0  0  0
  -10.3074    1.0937   -2.0776 H   0  0  0  0  0  0  0  0  0  0  0  0
  -11.4854    0.2109   -1.0212 H   0  0  0  0  0  0  0  0  0  0  0  0
  -10.2023   -0.7015   -1.9578 H   0  0  0  0  0  0  0  0  0  0  0  0
   -8.2644   -0.3339   -2.5133 H   0  0  0  0  0  0  0  0  0  0  0  0
   -5.8084   -0.7685   -2.6887 H   0  0  0  0  0  0  0  0  0  0  0  0
   -3.7256   -1.1513    0.3185 H   0  0  0  0  0  0  0  0  0  0  0  0
   -3.7901   -1.3986   -1.4802 H   0  0  0  0  0  0  0  0  0  0  0  0
   -3.4968    1.0508   -1.8519 H   0  0  0  0  0  0  0  0  0  0  0  0
   -3.4174    1.2982   -0.0352 H   0  0  0  0  0  0  0  0  0  0  0  0
   -0.2594   -0.2197   -2.1734 H   0  0  0  0  0  0  0  0  0  0  0  0
   -1.8204    0.0572   -2.9431 H   0  0  0  0  0  0  0  0  0  0  0  0
   -1.5451   -1.4424   -1.9126 H   0  0  0  0  0  0  0  0  0  0  0  0
   -1.7140   -1.1903    0.4703 H   0  0  0  0  0  0  0  0  0  0  0  0
   -1.5643    0.3974    1.2348 H   0  0  0  0  0  0  0  0  0  0  0  0
    0.5783   -0.7151    1.2740 H   0  0  0  0  0  0  0  0  0  0  0  0
    0.5402   -0.9885   -0.4842 H   0  0  0  0  0  0  0  0  0  0  0  0
    0.5303    1.5653   -0.7984 H   0  0  0  0  0  0  0  0  0  0  0  0
    0.6141    1.7239    0.9675 H   0  0  0  0  0  0  0  0  0  0  0  0
    2.1942    1.1075    2.1701 H   0  0  0  0  0  0  0  0  0  0  0  0
    3.6132    1.9189    1.3658 H   0  0  0  0  0  0  0  0  0  0  0  0
    4.0677   -0.2144    2.6787 H   0  0  0  0  0  0  0  0  0  0  0  0
    3.1420   -1.1083    1.4499 H   0  0  0  0  0  0  0  0  0  0  0  0
    6.0931   -0.3595    2.6494 H   0  0  0  0  0  0  0  0  0  0  0  0
    8.2392   -1.4621    3.5575 H   0  0  0  0  0  0  0  0  0  0  0  0
    9.5291   -0.1700    3.6048 H   0  0  0  0  0  0  0  0  0  0  0  0
    7.8091    0.2764    3.5477 H   0  0  0  0  0  0  0  0  0  0  0  0
    9.3320   -1.2996   -2.7066 H   0  0  0  0  0  0  0  0  0  0  0  0
   10.0135    0.3296   -2.4664 H   0  0  0  0  0  0  0  0  0  0  0  0
    8.3100    0.1889   -2.9298 H   0  0  0  0  0  0  0  0  0  0  0  0
    6.4347   -0.1707   -2.2211 H   0  0  0  0  0  0  0  0  0  0  0  0
    3.7417   -1.1369   -1.8629 H   0  0  0  0  0  0  0  0  0  0  0  0
    4.4159    0.3655   -2.5431 H   0  0  0  0  0  0  0  0  0  0  0  0
   -5.4064   -0.0217    1.4806 H   0  0  0  0  0  0  0  0  0  0  0  0
   -6.5669   -0.4130    3.1443 H   0  0  0  0  0  0  0  0  0  0  0  0
   -6.3399    1.3612    2.9362 H   0  0  0  0  0  0  0  0  0  0  0  0
   -7.7052    0.7413    3.9486 H   0  0  0  0  0  0  0  0  0  0  0  0
   -0.6892    0.0000    0.0000 H   0  0  0  0  0  0  0  0  0  0  0  0
  1  2  1  0
  2  3  1  0
  3  4  2  0
  4  5  1  0
  5  6  2  0
  6  7  1  0
  7  8  1  0
  8  9  1  0
  9 10  1  0
  9 11  1  0
 11 12  1  0
 12 13  1  0
 13 14  1  0
 14 15  1  0
 15 16  1  0
 16 17  1  0
 17 18  2  0
 18 19  1  0
 19 20  1  0
 20 21  1  0
 19 22  2  0
 22 23  1  0
 23 24  1  0
 22 25  1  0
 25 26  2  0
 26 27  1  0
 27 28  1  0
 28 29  2  0
  6 30  1  0
 30 31  2  0
 31 32  1  0
 32 33  1  0
 31  3  1  0
 28 14  1  0
 26 17  1  0
  1 35  1  0
  1 36  1  0
  1 37  1  0
  4 38  1  0
  5 39  1  0
  7 40  1  0
  7 41  1  0
  8 42  1  0
  8 43  1  0
 10 44  1  0
 10 45  1  0
 10 46  1  0
 11 47  1  0
 11 48  1  0
 12 49  1  0
 12 50  1  0
 13 51  1  0
 13 52  1  0
 15 53  1  0
 15 54  1  0
 16 55  1  0
 16 56  1  0
 18 57  1  0
 21 58  1  0
 21 59  1  0
 21 60  1  0
 24 61  1  0
 24 62  1  0
 24 63  1  0
 25 64  1  0
 27 65  1  0
 27 66  1  0
 30 67  1  0
 33 68  1  0
 33 69  1  0
 33 70  1  0
 34 71  1  0
M  END
$$$$
