
     RDKit          3D

 41 43  0  0  0  0  0  0  0  0999 V2000
    4.4410    2.4953    0.2274 O   0  0  0  0  0  0  0  0  0  0  0  0
    4.8638    1.4073   -0.1326 C   0  0  0  0  0  0  0  0  0  0  0  0
    6.3380    1.0782   -0.1749 C   0  0  0  0  0  0  0  0  0  0  0  0
    6.3922   -0.1546   -1.0537 C   0  0  0  0  0  0  0  0  0  0  0  0
    5.0675   -0.8350   -0.7823 C   0  0  0  0  0  0  0  0  0  0  0  0
    4.1570    0.2529   -0.5083 N   0  0  0  0  0  0  0  0  0  0  0  0
    2.7440    0.0883   -0.5052 C   0  0  0  0  0  0  0  0  0  0  0  0
    1.8741    1.1669   -0.3048 C   0  0  0  0  0  0  0  0  0  0  0  0
    0.4830    0.9948   -0.3043 C   0  0  0  0  0  0  0  0  0  0  0  0
   -0.0781   -0.2676   -0.5100 C   0  0  0  0  0  0  0  0  0  0  0  0
   -1.5723   -0.4698   -0.4966 C   0  0  0  0  0  0  0  0  0  0  0  0
   -1.9809   -1.2178    0.6839 N   0  0  0  0  0  0  0  0  0  0  0  0
   -3.4823   -1.9412    0.7267 S   0  0  0  0  0  6  0  0  0  0  0  0
   -3.6534   -2.4703    2.0609 O   0  0  0  0  0  0  0  0  0  0  0  0
   -3.6138   -2.7720   -0.4491 O   0  0  0  0  0  0  0  0  0  0  0  0
   -4.5852   -0.5574    0.5522 C   0  0  0  0  0  0  0  0  0  0  0  0
   -5.2058   -0.3093   -0.6780 C   0  0  0  0  0  0  0  0  0  0  0  0
   -6.0763    0.7747   -0.7981 C   0  0  0  0  0  0  0  0  0  0  0  0
   -6.3221    1.5859    0.3065 C   0  0  0  0  0  0  0  0  0  0  0  0
   -7.1581    2.6250    0.1860 F   0  0  0  0  0  0  0  0  0  0  0  0
   -5.7179    1.3334    1.5351 C   0  0  0  0  0  0  0  0  0  0  0  0
   -4.8458    0.2521    1.6650 C   0  0  0  0  0  0  0  0  0  0  0  0
    0.7798   -1.3535   -0.7078 C   0  0  0  0  0  0  0  0  0  0  0  0
    2.1692   -1.1760   -0.7072 C   0  0  0  0  0  0  0  0  0  0  0  0
    6.9116    1.9042   -0.6024 H   0  0  0  0  0  0  0  0  0  0  0  0
    6.6815    0.8659    0.8423 H   0  0  0  0  0  0  0  0  0  0  0  0
    7.2522   -0.7958   -0.8417 H   0  0  0  0  0  0  0  0  0  0  0  0
    6.4473    0.1475   -2.1072 H   0  0  0  0  0  0  0  0  0  0  0  0
    4.7551   -1.4183   -1.6538 H   0  0  0  0  0  0  0  0  0  0  0  0
    5.1246   -1.4772    0.1038 H   0  0  0  0  0  0  0  0  0  0  0  0
    2.2466    2.1755   -0.1527 H   0  0  0  0  0  0  0  0  0  0  0  0
   -0.1492    1.8653   -0.1421 H   0  0  0  0  0  0  0  0  0  0  0  0
   -1.8625   -0.9894   -1.4165 H   0  0  0  0  0  0  0  0  0  0  0  0
   -2.0721    0.5052   -0.4969 H   0  0  0  0  0  0  0  0  0  0  0  0
   -1.5900   -0.9563    1.5862 H   0  0  0  0  0  0  0  0  0  0  0  0
   -5.0224   -0.9514   -1.5370 H   0  0  0  0  0  0  0  0  0  0  0  0
   -6.5699    0.9892   -1.7413 H   0  0  0  0  0  0  0  0  0  0  0  0
   -5.9369    1.9762    2.3825 H   0  0  0  0  0  0  0  0  0  0  0  0
   -4.3831    0.0423    2.6270 H   0  0  0  0  0  0  0  0  0  0  0  0
    0.3696   -2.3515   -0.8556 H   0  0  0  0  0  0  0  0  0  0  0  0
    2.7799   -2.0615   -0.8533 H   0  0  0  0  0  0  0  0  0  0  0  0
  1  2  2  0
  2  3  1  0
  3  4  1  0
  4  5  1  0
  5  6  1  0
  6  7  1  0
  7  8  2  0
  8  9  1  0
  9 10  2  0
 10 11  1  0
 11 12  1  0
 12 13  1  0
 13 14  2  0
 13 15  2  0
 13 16  1  0
 16 17  2  0
 17 18  1  0
 18 19  2  0
 19 20  1  0
 19 21  1  0
 21 22  2  0
 10 23  1  0
 23 24  2  0
  6  2  1  0
 24  7  1  0
 22 16  1  0
  3 25  1  0
  3 26  1  0
  4 27  1  0
  4 28  1  0
  5 29  1  0
  5 30  1  0
  8 31  1  0
  9 32  1  0
 11 33  1  0
 11 34  1  0
 12 35  1  0
 17 36  1  0
 18 37  1  0
 21 38  1  0
 22 39  1  0
 23 40  1  0
 24 41  1  0
M  END
$$$$
