
     RDKit          3D

 40 41  0  0  0  0  0  0  0  0999 V2000
   -7.1657    1.9113    1.1274 C   0  0  0  0  0  0  0  0  0  0  0  0
   -6.3089    0.7999    0.5723 C   0  0  0  0  0  0  0  0  0  0  0  0
   -6.8297   -0.1686    0.0313 O   0  0  0  0  0  0  0  0  0  0  0  0
   -4.9673    1.0197    0.7836 N   0  0  0  0  0  0  0  0  0  0  0  0
   -4.0040    0.1481    0.3601 C   0  0  0  0  0  0  0  0  0  0  0  0
   -4.1243   -0.9747   -0.2934 N   0  0  0  0  0  0  0  0  0  0  0  0
   -2.8728   -1.5259   -0.5209 C   0  0  0  0  0  0  0  0  0  0  0  0
   -2.8064   -2.8071   -1.2736 C   0  0  0  0  0  0  0  0  0  0  0  0
   -1.8103   -0.7915   -0.0098 C   0  0  0  0  0  0  0  0  0  0  0  0
   -0.3737   -1.0638   -0.0238 C   0  0  0  0  0  0  0  0  0  0  0  0
    0.1215   -2.2552    0.5166 C   0  0  0  0  0  0  0  0  0  0  0  0
    1.4925   -2.5279    0.4967 C   0  0  0  0  0  0  0  0  0  0  0  0
    2.3953   -1.6160   -0.0624 C   0  0  0  0  0  0  0  0  0  0  0  0
    4.0606   -2.0623   -0.0225 Cl  0  0  0  0  0  0  0  0  0  0  0  0
    1.9100   -0.4235   -0.6003 C   0  0  0  0  0  0  0  0  0  0  0  0
    2.9828    0.7741   -1.3390 S   0  0  0  0  0  6  0  0  0  0  0  0
    2.1936    1.9496   -1.6442 O   0  0  0  0  0  0  0  0  0  0  0  0
    3.7752    0.1162   -2.3497 O   0  0  0  0  0  0  0  0  0  0  0  0
    3.9519    1.2598   -0.0361 N   0  0  0  0  0  0  0  0  0  0  0  0
    5.4062    1.3371   -0.3271 C   0  0  0  0  0  0  0  0  0  0  0  0
    6.1778    1.5773    0.9710 C   0  0  0  0  0  0  0  0  0  0  0  0
    7.5559    1.7841    0.6893 O   0  0  0  0  0  0  0  0  0  0  0  0
    0.5297   -0.1522   -0.5856 C   0  0  0  0  0  0  0  0  0  0  0  0
   -2.4169    0.6258    0.7569 S   0  0  0  0  0  0  0  0  0  0  0  0
   -7.5437    1.6159    2.1097 H   0  0  0  0  0  0  0  0  0  0  0  0
   -6.6040    2.8449    1.2229 H   0  0  0  0  0  0  0  0  0  0  0  0
   -8.0050    2.0905    0.4492 H   0  0  0  0  0  0  0  0  0  0  0  0
   -4.6459    1.8417    1.2702 H   0  0  0  0  0  0  0  0  0  0  0  0
   -3.7444   -2.9944   -1.8062 H   0  0  0  0  0  0  0  0  0  0  0  0
   -2.0003   -2.7856   -2.0135 H   0  0  0  0  0  0  0  0  0  0  0  0
   -2.6320   -3.6418   -0.5879 H   0  0  0  0  0  0  0  0  0  0  0  0
   -0.5543   -2.9813    0.9660 H   0  0  0  0  0  0  0  0  0  0  0  0
    1.8512   -3.4628    0.9240 H   0  0  0  0  0  0  0  0  0  0  0  0
    3.5929    2.1658    0.2766 H   0  0  0  0  0  0  0  0  0  0  0  0
    5.5980    2.1564   -1.0290 H   0  0  0  0  0  0  0  0  0  0  0  0
    5.7709    0.4109   -0.7821 H   0  0  0  0  0  0  0  0  0  0  0  0
    6.0785    0.7157    1.6399 H   0  0  0  0  0  0  0  0  0  0  0  0
    5.7963    2.4625    1.4908 H   0  0  0  0  0  0  0  0  0  0  0  0
    8.0157    1.8574    1.5436 H   0  0  0  0  0  0  0  0  0  0  0  0
    0.1529    0.7699   -1.0275 H   0  0  0  0  0  0  0  0  0  0  0  0
  1  2  1  0
  2  3  2  0
  2  4  1  0
  4  5  1  0
  5  6  2  0
  6  7  1  0
  7  8  1  0
  7  9  2  0
  9 10  1  0
 10 11  2  0
 11 12  1  0
 12 13  2  0
 13 14  1  0
 13 15  1  0
 15 16  1  0
 16 17  2  0
 16 18  2  0
 16 19  1  0
 19 20  1  0
 20 21  1  0
 21 22  1  0
 15 23  2  0
  9 24  1  0
 24  5  1  0
 23 10  1  0
  1 25  1  0
  1 26  1  0
  1 27  1  0
  4 28  1  0
  8 29  1  0
  8 30  1  0
  8 31  1  0
 11 32  1  0
 12 33  1  0
 19 34  1  0
 20 35  1  0
 20 36  1  0
 21 37  1  0
 21 38  1  0
 22 39  1  0
 23 40  1  0
M  END
$$$$
