
     RDKit          3D

 57 61  0  0  0  0  0  0  0  0999 V2000
   -4.4166    4.5149   -1.2224 N   0  0  0  0  0  0  0  0  0  0  0  0
   -4.5775    3.1870   -0.8478 C   0  0  0  0  0  0  0  0  0  0  0  0
   -5.8334    2.7237   -0.6633 N   0  0  0  0  0  0  0  0  0  0  0  0
   -5.9898    1.4393   -0.2806 C   0  0  0  0  0  0  0  0  0  0  0  0
   -5.0387    0.5100   -0.0569 N   0  0  0  0  0  0  0  0  0  0  0  0
   -3.8112    1.0093   -0.2863 C   0  0  0  0  0  0  0  0  0  0  0  0
   -3.5014    2.3031   -0.6645 C   0  0  0  0  0  0  0  0  0  0  0  0
   -2.1415    2.4659   -0.7811 N   0  0  0  0  0  0  0  0  0  0  0  0
   -1.6189    1.2945   -0.4888 C   0  0  0  0  0  0  0  0  0  0  0  0
   -0.3016    0.9945   -0.4541 N   0  0  0  0  0  0  0  0  0  0  0  0
    0.6302    1.9997   -0.9483 C   0  0  0  0  0  0  0  0  0  0  0  0
    2.0409    1.4897   -0.7726 C   0  0  0  0  0  0  0  0  0  0  0  0
    2.6688    1.5614    0.4775 C   0  0  0  0  0  0  0  0  0  0  0  0
    3.9663    1.0698    0.6498 C   0  0  0  0  0  0  0  0  0  0  0  0
    4.6673    0.4856   -0.4175 C   0  0  0  0  0  0  0  0  0  0  0  0
    6.0329   -0.0318   -0.2343 C   0  0  0  0  0  0  0  0  0  0  0  0
    7.0548    0.7872    0.2752 C   0  0  0  0  0  0  0  0  0  0  0  0
    8.3519    0.2966    0.4491 C   0  0  0  0  0  0  0  0  0  0  0  0
    8.6485   -1.0231    0.1175 C   0  0  0  0  0  0  0  0  0  0  0  0
    7.6501   -1.8521   -0.3880 C   0  0  0  0  0  0  0  0  0  0  0  0
    6.3539   -1.3596   -0.5629 C   0  0  0  0  0  0  0  0  0  0  0  0
    4.0254    0.4076   -1.6639 C   0  0  0  0  0  0  0  0  0  0  0  0
    2.7282    0.8999   -1.8410 C   0  0  0  0  0  0  0  0  0  0  0  0
   -2.5998    0.3717   -0.1759 N   0  0  0  0  0  0  0  0  0  0  0  0
   -2.3976   -0.9838    0.2934 C   0  0  2  0  0  0  0  0  0  0  0  0
   -3.1107   -1.9051   -0.5585 O   0  0  0  0  0  0  0  0  0  0  0  0
   -3.6250   -2.9683    0.2840 C   0  0  2  0  0  0  0  0  0  0  0  0
   -5.1553   -2.9379    0.2301 C   0  0  0  0  0  0  0  0  0  0  0  0
   -5.7083   -3.9987    0.9965 O   0  0  0  0  0  0  0  0  0  0  0  0
   -3.0703   -2.7352    1.6925 C   0  0  1  0  0  0  0  0  0  0  0  0
   -1.7809   -3.3609    1.8249 O   0  0  0  0  0  0  0  0  0  0  0  0
   -2.8750   -1.2284    1.7280 C   0  0  1  0  0  0  0  0  0  0  0  0
   -1.9207   -0.8704    2.7312 O   0  0  0  0  0  0  0  0  0  0  0  0
   -5.2502    4.8914   -1.6541 H   0  0  0  0  0  0  0  0  0  0  0  0
   -3.5275    4.7017   -1.6723 H   0  0  0  0  0  0  0  0  0  0  0  0
   -7.0161    1.1149   -0.1325 H   0  0  0  0  0  0  0  0  0  0  0  0
    0.0073    0.0519   -0.6751 H   0  0  0  0  0  0  0  0  0  0  0  0
    0.4406    2.2128   -2.0080 H   0  0  0  0  0  0  0  0  0  0  0  0
    0.5186    2.9441   -0.4002 H   0  0  0  0  0  0  0  0  0  0  0  0
    2.1454    1.9963    1.3273 H   0  0  0  0  0  0  0  0  0  0  0  0
    4.4252    1.1324    1.6349 H   0  0  0  0  0  0  0  0  0  0  0  0
    6.8466    1.8245    0.5305 H   0  0  0  0  0  0  0  0  0  0  0  0
    9.1294    0.9475    0.8408 H   0  0  0  0  0  0  0  0  0  0  0  0
    9.6567   -1.4055    0.2534 H   0  0  0  0  0  0  0  0  0  0  0  0
    7.8770   -2.8835   -0.6444 H   0  0  0  0  0  0  0  0  0  0  0  0
    5.5858   -2.0271   -0.9486 H   0  0  0  0  0  0  0  0  0  0  0  0
    4.5418   -0.0325   -2.5158 H   0  0  0  0  0  0  0  0  0  0  0  0
    2.2618    0.8209   -2.8209 H   0  0  0  0  0  0  0  0  0  0  0  0
   -1.3342   -1.2271    0.2059 H   0  0  0  0  0  0  0  0  0  0  0  0
   -3.2622   -3.9208   -0.1189 H   0  0  0  0  0  0  0  0  0  0  0  0
   -5.5504   -1.9938    0.6152 H   0  0  0  0  0  0  0  0  0  0  0  0
   -5.4930   -3.0351   -0.8083 H   0  0  0  0  0  0  0  0  0  0  0  0
   -6.6663   -4.0100    0.8200 H   0  0  0  0  0  0  0  0  0  0  0  0
   -3.6994   -3.1154    2.5022 H   0  0  0  0  0  0  0  0  0  0  0  0
   -1.3564   -2.9075    2.5831 H   0  0  0  0  0  0  0  0  0  0  0  0
   -3.8252   -0.7340    1.9542 H   0  0  0  0  0  0  0  0  0  0  0  0
   -1.8001    0.0976    2.6910 H   0  0  0  0  0  0  0  0  0  0  0  0
  1  2  1  0
  2  3  2  0
  3  4  1  0
  4  5  2  0
  5  6  1  0
  6  7  2  0
  7  8  1  0
  8  9  2  0
  9 10  1  0
 10 11  1  0
 11 12  1  0
 12 13  2  0
 13 14  1  0
 14 15  2  0
 15 16  1  0
 16 17  2  0
 17 18  1  0
 18 19  2  0
 19 20  1  0
 20 21  2  0
 15 22  1  0
 22 23  2  0
  9 24  1  0
 24 25  1  0
 25 26  1  0
 26 27  1  0
 27 28  1  0
 28 29  1  0
 27 30  1  0
 30 31  1  0
 30 32  1  0
 32 33  1  0
  7  2  1  0
 23 12  1  0
 32 25  1  0
 24  6  1  0
 21 16  1  0
  1 34  1  0
  1 35  1  0
  4 36  1  0
 10 37  1  0
 11 38  1  0
 11 39  1  0
 13 40  1  0
 14 41  1  0
 17 42  1  0
 18 43  1  0
 19 44  1  0
 20 45  1  0
 21 46  1  0
 22 47  1  0
 23 48  1  0
 25 49  1  1
 27 50  1  6
 28 51  1  0
 28 52  1  0
 29 53  1  0
 30 54  1  1
 31 55  1  0
 32 56  1  1
 33 57  1  0
M  END
$$$$
