
     RDKit          3D

 47 50  0  0  0  0  0  0  0  0999 V2000
   -4.9283    1.6986   -0.0527 C   0  0  0  0  0  0  0  0  0  0  0  0
   -5.7329    0.5529    0.4036 N   0  0  0  0  0  0  0  0  0  0  0  0
   -6.4635   -0.1164   -0.6856 C   0  0  0  0  0  0  0  0  0  0  0  0
   -5.0606   -0.4373    1.6101 S   0  0  0  0  0  6  0  0  0  0  0  0
   -6.0310   -1.4503    1.9665 O   0  0  0  0  0  0  0  0  0  0  0  0
   -4.4609    0.4121    2.6174 O   0  0  0  0  0  0  0  0  0  0  0  0
   -3.7258   -1.2618    0.7582 C   0  0  0  0  0  0  0  0  0  0  0  0
   -3.9684   -2.5013    0.1298 C   0  0  0  0  0  0  0  0  0  0  0  0
   -2.9318   -3.1730   -0.5216 C   0  0  0  0  0  0  0  0  0  0  0  0
   -1.6827   -2.5829   -0.5047 C   0  0  0  0  0  0  0  0  0  0  0  0
   -1.4249   -1.3676    0.1375 C   0  0  0  0  0  0  0  0  0  0  0  0
   -2.4444   -0.6908    0.7845 C   0  0  0  0  0  0  0  0  0  0  0  0
    0.0095   -1.0875   -0.0604 C   0  0  0  0  0  0  0  0  0  0  0  0
    0.6239   -0.0051    0.4420 C   0  0  0  0  0  0  0  0  0  0  0  0
    1.9857    0.3346    0.2581 C   0  0  0  0  0  0  0  0  0  0  0  0
    2.8983    0.2288   -0.7768 C   0  0  0  0  0  0  0  0  0  0  0  0
    4.1192    0.7980   -0.3427 C   0  0  0  0  0  0  0  0  0  0  0  0
    3.9205    1.2421    0.9461 C   0  0  0  0  0  0  0  0  0  0  0  0
    2.6299    0.9672    1.3023 N   0  0  0  0  0  0  0  0  0  0  0  0
    4.9244    1.9269    1.8035 C   0  0  0  0  0  0  0  0  0  0  0  0
    6.3321    1.7367    1.2063 C   0  0  0  0  0  0  0  0  0  0  0  0
    6.3487    1.9242   -0.3236 C   0  0  0  0  0  0  0  0  0  0  0  0
    5.4281    0.9191   -1.0442 C   0  0  0  0  0  0  0  0  0  0  0  0
    0.5618   -2.2426   -0.8678 C   0  0  0  0  0  0  0  0  0  0  0  0
    1.6931   -2.4535   -1.2548 O   0  0  0  0  0  0  0  0  0  0  0  0
   -0.5251   -3.0785   -1.0879 N   0  0  0  0  0  0  0  0  0  0  0  0
   -5.5717    2.4153   -0.5737 H   0  0  0  0  0  0  0  0  0  0  0  0
   -4.4810    2.2308    0.7911 H   0  0  0  0  0  0  0  0  0  0  0  0
   -4.1410    1.3771   -0.7401 H   0  0  0  0  0  0  0  0  0  0  0  0
   -7.0992    0.6101   -1.2024 H   0  0  0  0  0  0  0  0  0  0  0  0
   -5.7725   -0.5506   -1.4136 H   0  0  0  0  0  0  0  0  0  0  0  0
   -7.1249   -0.8966   -0.2996 H   0  0  0  0  0  0  0  0  0  0  0  0
   -4.9627   -2.9446    0.1536 H   0  0  0  0  0  0  0  0  0  0  0  0
   -3.1056   -4.1247   -1.0118 H   0  0  0  0  0  0  0  0  0  0  0  0
   -2.2650    0.2476    1.2992 H   0  0  0  0  0  0  0  0  0  0  0  0
    0.0424    0.6867    1.0468 H   0  0  0  0  0  0  0  0  0  0  0  0
    2.7094   -0.2136   -1.7466 H   0  0  0  0  0  0  0  0  0  0  0  0
    2.2194    1.1787    2.2016 H   0  0  0  0  0  0  0  0  0  0  0  0
    4.6874    2.9966    1.8462 H   0  0  0  0  0  0  0  0  0  0  0  0
    4.8989    1.5379    2.8270 H   0  0  0  0  0  0  0  0  0  0  0  0
    7.0258    2.4424    1.6771 H   0  0  0  0  0  0  0  0  0  0  0  0
    6.6942    0.7275    1.4421 H   0  0  0  0  0  0  0  0  0  0  0  0
    7.3715    1.8171   -0.7020 H   0  0  0  0  0  0  0  0  0  0  0  0
    6.0258    2.9468   -0.5582 H   0  0  0  0  0  0  0  0  0  0  0  0
    5.9104   -0.0658   -1.0621 H   0  0  0  0  0  0  0  0  0  0  0  0
    5.2807    1.2333   -2.0833 H   0  0  0  0  0  0  0  0  0  0  0  0
   -0.4372   -3.9446   -1.5969 H   0  0  0  0  0  0  0  0  0  0  0  0
  1  2  1  0
  2  3  1  0
  2  4  1  0
  4  5  2  0
  4  6  2  0
  4  7  1  0
  7  8  2  0
  8  9  1  0
  9 10  2  0
 10 11  1  0
 11 12  2  0
 11 13  1  0
 13 14  2  0
 14 15  1  0
 15 16  2  0
 16 17  1  0
 17 18  2  0
 18 19  1  0
 18 20  1  0
 20 21  1  0
 21 22  1  0
 22 23  1  0
 13 24  1  0
 24 25  2  0
 24 26  1  0
 12  7  1  0
 19 15  1  0
 26 10  1  0
 23 17  1  0
  1 27  1  0
  1 28  1  0
  1 29  1  0
  3 30  1  0
  3 31  1  0
  3 32  1  0
  8 33  1  0
  9 34  1  0
 12 35  1  0
 14 36  1  0
 16 37  1  0
 19 38  1  0
 20 39  1  0
 20 40  1  0
 21 41  1  0
 21 42  1  0
 22 43  1  0
 22 44  1  0
 23 45  1  0
 23 46  1  0
 26 47  1  0
M  END
$$$$
