
     RDKit          3D

 57 60  0  0  0  0  0  0  0  0999 V2000
   -7.8682    2.7511   -0.9570 C   0  0  0  0  0  0  0  0  0  0  0  0
   -7.4037    2.0832    0.3287 C   0  0  0  0  0  0  0  0  0  0  0  0
   -6.3846    1.0036    0.0653 C   0  0  0  0  0  0  0  0  0  0  0  0
   -6.7932   -0.2979   -0.2574 C   0  0  0  0  0  0  0  0  0  0  0  0
   -5.8517   -1.3006   -0.5166 C   0  0  0  0  0  0  0  0  0  0  0  0
   -4.4847   -1.0213   -0.4495 C   0  0  0  0  0  0  0  0  0  0  0  0
   -3.5312   -2.0067   -0.7348 N   0  0  0  0  0  0  0  0  0  0  0  0
   -2.1800   -1.7558   -0.6362 C   0  0  0  0  0  0  0  0  0  0  0  0
   -1.6773   -0.5427   -0.3354 C   0  0  0  0  0  0  0  0  0  0  0  0
   -2.6241    0.5851   -0.1008 C   0  0  0  0  0  0  0  0  0  0  0  0
   -2.2157    1.7204    0.1232 O   0  0  0  0  0  0  0  0  0  0  0  0
   -4.0772    0.2858   -0.1462 C   0  0  0  0  0  0  0  0  0  0  0  0
   -5.0152    1.2926    0.1106 C   0  0  0  0  0  0  0  0  0  0  0  0
   -0.2099   -0.2436   -0.2069 C   0  0  0  0  0  0  0  0  0  0  0  0
    0.6743   -1.4347   -0.1272 N   0  0  0  0  0  0  0  0  0  0  0  0
    0.7155   -1.9877    1.2525 C   0  0  0  0  0  0  0  0  0  0  0  0
    1.6113   -1.1397    2.1629 C   0  0  0  0  0  0  0  0  0  0  0  0
    1.4247   -1.0477    3.3732 O   0  0  0  0  0  0  0  0  0  0  0  0
    2.6746   -0.5579    1.5102 N   0  0  0  0  0  0  0  0  0  0  0  0
    3.5205    0.3987    2.1759 C   0  0  0  0  0  0  0  0  0  0  0  0
    4.7206    0.7283    1.3320 C   0  0  0  0  0  0  0  0  0  0  0  0
    4.7399    1.8765    0.5311 C   0  0  0  0  0  0  0  0  0  0  0  0
    5.8537    2.1633   -0.2635 C   0  0  0  0  0  0  0  0  0  0  0  0
    6.9581    1.3080   -0.2804 C   0  0  0  0  0  0  0  0  0  0  0  0
    7.9750    1.7059   -1.1042 O   0  0  0  0  0  0  0  0  0  0  0  0
    9.1287    0.8755   -1.1459 C   0  0  0  0  0  0  0  0  0  0  0  0
    6.9405    0.1571    0.5071 C   0  0  0  0  0  0  0  0  0  0  0  0
    5.8272   -0.1310    1.3064 C   0  0  0  0  0  0  0  0  0  0  0  0
    0.2199   -2.4488   -1.0951 C   0  0  0  0  0  0  0  0  0  0  0  0
   -1.2367   -2.9070   -0.8974 C   0  0  0  0  0  0  0  0  0  0  0  0
   -8.3436    2.0284   -1.6297 H   0  0  0  0  0  0  0  0  0  0  0  0
   -7.0288    3.2086   -1.4934 H   0  0  0  0  0  0  0  0  0  0  0  0
   -8.5984    3.5361   -0.7339 H   0  0  0  0  0  0  0  0  0  0  0  0
   -6.9791    2.8358    1.0045 H   0  0  0  0  0  0  0  0  0  0  0  0
   -8.2653    1.6533    0.8555 H   0  0  0  0  0  0  0  0  0  0  0  0
   -7.8532   -0.5386   -0.3134 H   0  0  0  0  0  0  0  0  0  0  0  0
   -6.1990   -2.2981   -0.7716 H   0  0  0  0  0  0  0  0  0  0  0  0
   -3.8412   -2.9659   -0.8354 H   0  0  0  0  0  0  0  0  0  0  0  0
   -4.6729    2.2979    0.3429 H   0  0  0  0  0  0  0  0  0  0  0  0
   -0.0250    0.4121    0.6527 H   0  0  0  0  0  0  0  0  0  0  0  0
    0.0951    0.3338   -1.0903 H   0  0  0  0  0  0  0  0  0  0  0  0
   -0.2800   -2.0578    1.7036 H   0  0  0  0  0  0  0  0  0  0  0  0
    1.1634   -2.9885    1.2458 H   0  0  0  0  0  0  0  0  0  0  0  0
    2.5856   -0.5219    0.4980 H   0  0  0  0  0  0  0  0  0  0  0  0
    3.8322   -0.0019    3.1488 H   0  0  0  0  0  0  0  0  0  0  0  0
    2.9260    1.2968    2.3797 H   0  0  0  0  0  0  0  0  0  0  0  0
    3.8909    2.5577    0.5197 H   0  0  0  0  0  0  0  0  0  0  0  0
    5.8620    3.0633   -0.8758 H   0  0  0  0  0  0  0  0  0  0  0  0
    9.6150    0.8248   -0.1658 H   0  0  0  0  0  0  0  0  0  0  0  0
    9.8376    1.3270   -1.8464 H   0  0  0  0  0  0  0  0  0  0  0  0
    8.8835   -0.1245   -1.5207 H   0  0  0  0  0  0  0  0  0  0  0  0
    7.7716   -0.5406    0.5225 H   0  0  0  0  0  0  0  0  0  0  0  0
    5.8265   -1.0352    1.9123 H   0  0  0  0  0  0  0  0  0  0  0  0
    0.3302   -2.0343   -2.1069 H   0  0  0  0  0  0  0  0  0  0  0  0
    0.8858   -3.3204   -1.0670 H   0  0  0  0  0  0  0  0  0  0  0  0
   -1.5547   -3.4527   -1.7952 H   0  0  0  0  0  0  0  0  0  0  0  0
   -1.2951   -3.6075   -0.0543 H   0  0  0  0  0  0  0  0  0  0  0  0
  1  2  1  0
  2  3  1  0
  3  4  2  0
  4  5  1  0
  5  6  2  0
  6  7  1  0
  7  8  1  0
  8  9  2  0
  9 10  1  0
 10 11  2  0
 10 12  1  0
 12 13  2  0
  9 14  1  0
 14 15  1  0
 15 16  1  0
 16 17  1  0
 17 18  2  0
 17 19  1  0
 19 20  1  0
 20 21  1  0
 21 22  2  0
 22 23  1  0
 23 24  2  0
 24 25  1  0
 25 26  1  0
 24 27  1  0
 27 28  2  0
 15 29  1  0
 29 30  1  0
 13  3  1  0
 28 21  1  0
 12  6  1  0
 30  8  1  0
  1 31  1  0
  1 32  1  0
  1 33  1  0
  2 34  1  0
  2 35  1  0
  4 36  1  0
  5 37  1  0
  7 38  1  0
 13 39  1  0
 14 40  1  0
 14 41  1  0
 16 42  1  0
 16 43  1  0
 19 44  1  0
 20 45  1  0
 20 46  1  0
 22 47  1  0
 23 48  1  0
 26 49  1  0
 26 50  1  0
 26 51  1  0
 27 52  1  0
 28 53  1  0
 29 54  1  0
 29 55  1  0
 30 56  1  0
 30 57  1  0
M  END
$$$$
