
     RDKit          3D

 85 89  0  0  0  0  0  0  0  0999 V2000
    0.6337   -6.0155    1.4302 C   0  0  0  0  0  0  0  0  0  0  0  0
    1.6576   -5.1374    0.7159 C   0  0  0  0  0  0  0  0  0  0  0  0
    1.1319   -4.4781   -0.4990 N   0  0  0  0  0  0  0  0  0  0  0  0
    0.8095   -5.4850   -1.5315 C   0  0  0  0  0  0  0  0  0  0  0  0
    0.2265   -4.9345   -2.8269 C   0  0  0  0  0  0  0  0  0  0  0  0
    2.1099   -3.4678   -0.9795 C   0  0  0  0  0  0  0  0  0  0  0  0
    1.4734   -2.1718   -1.5438 C   0  0  0  0  0  0  0  0  0  0  0  0
    0.4024   -1.6013   -0.6999 N   0  0  0  0  0  0  0  0  0  0  0  0
    0.7612   -1.2358    0.6736 C   0  0  0  0  0  0  0  0  0  0  0  0
    1.8780   -0.2183    0.7516 C   0  0  0  0  0  0  0  0  0  0  0  0
    3.0028   -0.4587    1.5499 C   0  0  0  0  0  0  0  0  0  0  0  0
    4.0274    0.4898    1.6379 C   0  0  0  0  0  0  0  0  0  0  0  0
    3.9519    1.7059    0.9403 C   0  0  0  0  0  0  0  0  0  0  0  0
    5.0204    2.7098    1.0522 C   0  0  0  0  0  0  0  0  0  0  0  0
    4.7405    4.0094    1.4997 C   0  0  0  0  0  0  0  0  0  0  0  0
    5.7563    4.9614    1.6292 C   0  0  0  0  0  0  0  0  0  0  0  0
    7.0827    4.6363    1.3160 C   0  0  0  0  0  0  0  0  0  0  0  0
    8.1824    5.6603    1.4479 C   0  0  0  0  0  0  0  0  0  0  0  0
    9.3525    5.1224    1.8965 F   0  0  0  0  0  0  0  0  0  0  0  0
    7.8804    6.6656    2.3165 F   0  0  0  0  0  0  0  0  0  0  0  0
    8.4776    6.2652    0.2646 F   0  0  0  0  0  0  0  0  0  0  0  0
    7.3668    3.3458    0.8508 C   0  0  0  0  0  0  0  0  0  0  0  0
    6.3488    2.3947    0.7261 C   0  0  0  0  0  0  0  0  0  0  0  0
    2.8195    1.9425    0.1484 C   0  0  0  0  0  0  0  0  0  0  0  0
    1.7953    0.9954    0.0552 C   0  0  0  0  0  0  0  0  0  0  0  0
   -0.8432   -1.4066   -1.2888 C   0  0  0  0  0  0  0  0  0  0  0  0
   -0.9774   -1.4698   -2.5187 O   0  0  0  0  0  0  0  0  0  0  0  0
   -2.0953   -1.1996   -0.4132 C   0  0  0  0  0  0  0  0  0  0  0  0
   -2.8678   -0.0094   -0.8333 N   0  0  0  0  0  0  0  0  0  0  0  0
   -2.6316    1.2695   -0.3282 C   0  0  0  0  0  0  0  0  0  0  0  0
   -1.8353    1.4776    1.2290 S   0  0  0  0  0  0  0  0  0  0  0  0
   -3.2126    1.0140    2.3144 C   0  0  0  0  0  0  0  0  0  0  0  0
   -4.3492    2.0030    2.3300 C   0  0  0  0  0  0  0  0  0  0  0  0
   -4.2739    3.1579    3.1254 C   0  0  0  0  0  0  0  0  0  0  0  0
   -5.3272    4.0737    3.1425 C   0  0  0  0  0  0  0  0  0  0  0  0
   -6.4524    3.8417    2.3612 C   0  0  0  0  0  0  0  0  0  0  0  0
   -7.4650    4.7181    2.3841 F   0  0  0  0  0  0  0  0  0  0  0  0
   -6.5435    2.7116    1.5579 C   0  0  0  0  0  0  0  0  0  0  0  0
   -5.4948    1.7903    1.5438 C   0  0  0  0  0  0  0  0  0  0  0  0
   -3.0028    2.3843   -0.8740 N   0  0  0  0  0  0  0  0  0  0  0  0
   -3.7063    2.3659   -2.0554 C   0  0  0  0  0  0  0  0  0  0  0  0
   -4.0160    3.3751   -2.6778 O   0  0  0  0  0  0  0  0  0  0  0  0
   -4.1291    1.0490   -2.5520 C   0  0  0  0  0  0  0  0  0  0  0  0
   -3.6949   -0.0555   -1.9454 C   0  0  0  0  0  0  0  0  0  0  0  0
   -4.2200   -1.2737   -2.6336 C   0  0  0  0  0  0  0  0  0  0  0  0
   -5.3198   -0.6926   -3.5356 C   0  0  0  0  0  0  0  0  0  0  0  0
   -4.9864    0.7889   -3.7302 C   0  0  0  0  0  0  0  0  0  0  0  0
    0.4397   -6.9431    0.8847 H   0  0  0  0  0  0  0  0  0  0  0  0
    1.0087   -6.2926    2.4215 H   0  0  0  0  0  0  0  0  0  0  0  0
   -0.3150   -5.4880    1.5678 H   0  0  0  0  0  0  0  0  0  0  0  0
    2.5571   -5.7226    0.4896 H   0  0  0  0  0  0  0  0  0  0  0  0
    1.9500   -4.3676    1.4412 H   0  0  0  0  0  0  0  0  0  0  0  0
    1.6911   -6.0940   -1.7672 H   0  0  0  0  0  0  0  0  0  0  0  0
    0.0495   -6.1666   -1.1353 H   0  0  0  0  0  0  0  0  0  0  0  0
    0.9757   -4.3986   -3.4160 H   0  0  0  0  0  0  0  0  0  0  0  0
   -0.1380   -5.7611   -3.4476 H   0  0  0  0  0  0  0  0  0  0  0  0
   -0.6229   -4.2725   -2.6297 H   0  0  0  0  0  0  0  0  0  0  0  0
    2.8009   -3.8974   -1.7165 H   0  0  0  0  0  0  0  0  0  0  0  0
    2.7549   -3.1509   -0.1489 H   0  0  0  0  0  0  0  0  0  0  0  0
    2.2522   -1.4108   -1.6657 H   0  0  0  0  0  0  0  0  0  0  0  0
    1.1022   -2.3661   -2.5523 H   0  0  0  0  0  0  0  0  0  0  0  0
    1.0382   -2.1534    1.1998 H   0  0  0  0  0  0  0  0  0  0  0  0
   -0.0815   -0.8249    1.2225 H   0  0  0  0  0  0  0  0  0  0  0  0
    3.0932   -1.3836    2.1153 H   0  0  0  0  0  0  0  0  0  0  0  0
    4.8844    0.2825    2.2755 H   0  0  0  0  0  0  0  0  0  0  0  0
    3.7208    4.2851    1.7633 H   0  0  0  0  0  0  0  0  0  0  0  0
    5.5035    5.9584    1.9838 H   0  0  0  0  0  0  0  0  0  0  0  0
    8.3864    3.0701    0.5861 H   0  0  0  0  0  0  0  0  0  0  0  0
    6.5973    1.3997    0.3641 H   0  0  0  0  0  0  0  0  0  0  0  0
    2.7269    2.8720   -0.4120 H   0  0  0  0  0  0  0  0  0  0  0  0
    0.9345    1.2143   -0.5736 H   0  0  0  0  0  0  0  0  0  0  0  0
   -1.8902   -1.2009    0.6541 H   0  0  0  0  0  0  0  0  0  0  0  0
   -2.7060   -2.1025   -0.5504 H   0  0  0  0  0  0  0  0  0  0  0  0
   -2.8179    0.9134    3.3312 H   0  0  0  0  0  0  0  0  0  0  0  0
   -3.5804    0.0180    2.0450 H   0  0  0  0  0  0  0  0  0  0  0  0
   -3.3890    3.3539    3.7286 H   0  0  0  0  0  0  0  0  0  0  0  0
   -5.2736    4.9688    3.7550 H   0  0  0  0  0  0  0  0  0  0  0  0
   -7.4263    2.5571    0.9466 H   0  0  0  0  0  0  0  0  0  0  0  0
   -5.5738    0.9119    0.9055 H   0  0  0  0  0  0  0  0  0  0  0  0
   -4.6437   -2.0039   -1.9373 H   0  0  0  0  0  0  0  0  0  0  0  0
   -3.4439   -1.7563   -3.2339 H   0  0  0  0  0  0  0  0  0  0  0  0
   -6.2920   -0.7877   -3.0357 H   0  0  0  0  0  0  0  0  0  0  0  0
   -5.3942   -1.2270   -4.4878 H   0  0  0  0  0  0  0  0  0  0  0  0
   -4.4300    0.9541   -4.6575 H   0  0  0  0  0  0  0  0  0  0  0  0
   -5.8937    1.3993   -3.7374 H   0  0  0  0  0  0  0  0  0  0  0  0
  1  2  1  0
  2  3  1  0
  3  4  1  0
  4  5  1  0
  3  6  1  0
  6  7  1  0
  7  8  1  0
  8  9  1  0
  9 10  1  0
 10 11  2  0
 11 12  1  0
 12 13  2  0
 13 14  1  0
 14 15  2  0
 15 16  1  0
 16 17  2  0
 17 18  1  0
 18 19  1  0
 18 20  1  0
 18 21  1  0
 17 22  1  0
 22 23  2  0
 13 24  1  0
 24 25  2  0
  8 26  1  0
 26 27  2  0
 26 28  1  0
 28 29  1  0
 29 30  1  0
 30 31  1  0
 31 32  1  0
 32 33  1  0
 33 34  2  0
 34 35  1  0
 35 36  2  0
 36 37  1  0
 36 38  1  0
 38 39  2  0
 30 40  2  0
 40 41  1  0
 41 42  2  0
 41 43  1  0
 43 44  2  0
 44 45  1  0
 45 46  1  0
 46 47  1  0
 25 10  1  0
 44 29  1  0
 23 14  1  0
 39 33  1  0
 47 43  1  0
  1 48  1  0
  1 49  1  0
  1 50  1  0
  2 51  1  0
  2 52  1  0
  4 53  1  0
  4 54  1  0
  5 55  1  0
  5 56  1  0
  5 57  1  0
  6 58  1  0
  6 59  1  0
  7 60  1  0
  7 61  1  0
  9 62  1  0
  9 63  1  0
 11 64  1  0
 12 65  1  0
 15 66  1  0
 16 67  1  0
 22 68  1  0
 23 69  1  0
 24 70  1  0
 25 71  1  0
 28 72  1  0
 28 73  1  0
 32 74  1  0
 32 75  1  0
 34 76  1  0
 35 77  1  0
 38 78  1  0
 39 79  1  0
 45 80  1  0
 45 81  1  0
 46 82  1  0
 46 83  1  0
 47 84  1  0
 47 85  1  0
M  END
$$$$
