
     RDKit          3D

 60 63  0  0  0  0  0  0  0  0999 V2000
   -3.3806    2.9019    0.2262 C   0  0  0  0  0  0  0  0  0  0  0  0
   -2.9340    2.0960   -1.0128 C   0  0  0  0  0  0  0  0  0  0  0  0
   -2.1724    3.0528   -1.9499 C   0  0  0  0  0  0  0  0  0  0  0  0
   -4.1770    1.5462   -1.7653 C   0  0  0  0  0  0  0  0  0  0  0  0
   -4.9059    0.4420   -1.0080 C   0  0  0  0  0  0  0  0  0  0  0  0
   -6.1088    0.2474   -1.1404 O   0  0  0  0  0  0  0  0  0  0  0  0
   -4.0837   -0.4068   -0.1729 C   0  0  0  0  0  0  0  0  0  0  0  0
   -4.4161   -1.5092    0.6364 C   0  0  0  0  0  0  0  0  0  0  0  0
   -5.7869   -2.1105    0.8162 C   0  0  0  0  0  0  0  0  0  0  0  0
   -6.3019   -2.5641   -0.3572 F   0  0  0  0  0  0  0  0  0  0  0  0
   -5.7875   -3.1745    1.6669 F   0  0  0  0  0  0  0  0  0  0  0  0
   -6.6724   -1.2155    1.3291 F   0  0  0  0  0  0  0  0  0  0  0  0
   -3.3223   -1.9615    1.2779 N   0  0  0  0  0  0  0  0  0  0  0  0
   -2.2748   -1.2122    0.8303 N   0  0  0  0  0  0  0  0  0  0  0  0
   -0.9548   -1.5571    1.2575 C   0  0  0  0  0  0  0  0  0  0  0  0
   -0.8030   -2.4632    2.3163 C   0  0  0  0  0  0  0  0  0  0  0  0
    0.4679   -2.7994    2.7830 C   0  0  0  0  0  0  0  0  0  0  0  0
    1.6112   -2.2448    2.1887 C   0  0  0  0  0  0  0  0  0  0  0  0
    2.9569   -2.6195    2.7165 C   0  0  0  0  0  0  0  0  0  0  0  0
    3.0509   -2.9097    4.0515 N   0  0  0  0  0  0  0  0  0  0  0  0
    3.9534   -2.6383    2.0020 O   0  0  0  0  0  0  0  0  0  0  0  0
    1.4926   -1.3883    1.0668 C   0  0  0  0  0  0  0  0  0  0  0  0
    2.6340   -0.7941    0.4922 N   0  0  0  0  0  0  0  0  0  0  0  0
    2.6612   -0.4048   -0.9251 C   0  0  1  0  0  0  0  0  0  0  0  0
    2.4224    1.1069   -1.0539 C   0  0  0  0  0  0  0  0  0  0  0  0
    3.5934    1.9395   -0.5248 C   0  0  0  0  0  0  0  0  0  0  0  0
    4.9193    1.5349   -1.1626 C   0  0  2  0  0  0  0  0  0  0  0  0
    4.8779    1.8771   -2.5476 O   0  0  0  0  0  0  0  0  0  0  0  0
    5.1820    0.0380   -1.0182 C   0  0  0  0  0  0  0  0  0  0  0  0
    4.0136   -0.8010   -1.5432 C   0  0  0  0  0  0  0  0  0  0  0  0
    0.1945   -1.0423    0.6411 C   0  0  0  0  0  0  0  0  0  0  0  0
   -2.7292   -0.1996   -0.0007 C   0  0  0  0  0  0  0  0  0  0  0  0
   -1.9713    0.9431   -0.5916 C   0  0  0  0  0  0  0  0  0  0  0  0
   -3.9258    2.2859    0.9483 H   0  0  0  0  0  0  0  0  0  0  0  0
   -2.5171    3.3312    0.7472 H   0  0  0  0  0  0  0  0  0  0  0  0
   -4.0378    3.7306   -0.0609 H   0  0  0  0  0  0  0  0  0  0  0  0
   -2.8055    3.8922   -2.2585 H   0  0  0  0  0  0  0  0  0  0  0  0
   -1.8390    2.5373   -2.8576 H   0  0  0  0  0  0  0  0  0  0  0  0
   -1.2850    3.4656   -1.4568 H   0  0  0  0  0  0  0  0  0  0  0  0
   -3.8790    1.1246   -2.7336 H   0  0  0  0  0  0  0  0  0  0  0  0
   -4.8908    2.3557   -1.9602 H   0  0  0  0  0  0  0  0  0  0  0  0
   -1.6689   -2.9101    2.8039 H   0  0  0  0  0  0  0  0  0  0  0  0
    0.5504   -3.5132    3.5985 H   0  0  0  0  0  0  0  0  0  0  0  0
    2.3374   -2.6224    4.7067 H   0  0  0  0  0  0  0  0  0  0  0  0
    3.9898   -3.0243    4.4124 H   0  0  0  0  0  0  0  0  0  0  0  0
    3.4647   -1.3434    0.7604 H   0  0  0  0  0  0  0  0  0  0  0  0
    1.8880   -0.9470   -1.4835 H   0  0  0  0  0  0  0  0  0  0  0  0
    2.2597    1.3497   -2.1118 H   0  0  0  0  0  0  0  0  0  0  0  0
    1.5118    1.4081   -0.5242 H   0  0  0  0  0  0  0  0  0  0  0  0
    3.3887    2.9963   -0.7340 H   0  0  0  0  0  0  0  0  0  0  0  0
    3.6605    1.8300    0.5642 H   0  0  0  0  0  0  0  0  0  0  0  0
    5.7349    2.1065   -0.7063 H   0  0  0  0  0  0  0  0  0  0  0  0
    5.7575    1.6872   -2.9181 H   0  0  0  0  0  0  0  0  0  0  0  0
    5.3666   -0.2013    0.0357 H   0  0  0  0  0  0  0  0  0  0  0  0
    6.0848   -0.2383   -1.5757 H   0  0  0  0  0  0  0  0  0  0  0  0
    3.9519   -0.6825   -2.6326 H   0  0  0  0  0  0  0  0  0  0  0  0
    4.2195   -1.8624   -1.3571 H   0  0  0  0  0  0  0  0  0  0  0  0
    0.1069   -0.3811   -0.2067 H   0  0  0  0  0  0  0  0  0  0  0  0
   -1.4367    0.5787   -1.4778 H   0  0  0  0  0  0  0  0  0  0  0  0
   -1.2360    1.3365    0.1190 H   0  0  0  0  0  0  0  0  0  0  0  0
  1  2  1  0
  2  3  1  0
  2  4  1  0
  4  5  1  0
  5  6  2  0
  5  7  1  0
  7  8  1  0
  8  9  1  0
  9 10  1  0
  9 11  1  0
  9 12  1  0
  8 13  2  0
 13 14  1  0
 14 15  1  0
 15 16  2  0
 16 17  1  0
 17 18  2  0
 18 19  1  0
 19 20  1  0
 19 21  2  0
 18 22  1  0
 22 23  1  0
 23 24  1  0
 24 25  1  0
 25 26  1  0
 26 27  1  0
 27 28  1  0
 27 29  1  0
 29 30  1  0
 22 31  2  0
 14 32  1  0
 32 33  1  0
 33  2  1  0
 32  7  2  0
 31 15  1  0
 30 24  1  0
  1 34  1  0
  1 35  1  0
  1 36  1  0
  3 37  1  0
  3 38  1  0
  3 39  1  0
  4 40  1  0
  4 41  1  0
 16 42  1  0
 17 43  1  0
 20 44  1  0
 20 45  1  0
 23 46  1  0
 24 47  1  6
 25 48  1  0
 25 49  1  0
 26 50  1  0
 26 51  1  0
 27 52  1  1
 28 53  1  0
 29 54  1  0
 29 55  1  0
 30 56  1  0
 30 57  1  0
 31 58  1  0
 33 59  1  0
 33 60  1  0
M  END
$$$$
