
     RDKit          3D

 42 44  0  0  0  0  0  0  0  0999 V2000
    2.5508    3.3014   -1.0067 C   0  0  0  0  0  0  0  0  0  0  0  0
    3.1316    2.3799    0.0542 C   0  0  0  0  0  0  0  0  0  0  0  0
    2.0834    1.4713    0.6922 C   0  0  0  0  0  0  0  0  0  0  0  0
    1.6866    0.2988   -0.2064 C   0  0  0  0  0  0  0  0  0  0  0  0
    0.7067   -0.4838    0.4983 O   0  0  0  0  0  0  0  0  0  0  0  0
    0.6203   -1.7376   -0.0560 C   0  0  0  0  0  0  0  0  0  0  0  0
   -0.2363   -2.0251   -1.1250 C   0  0  0  0  0  0  0  0  0  0  0  0
   -1.1400   -1.0235   -1.7203 C   0  0  0  0  0  0  0  0  0  0  0  0
   -1.2615   -0.9742   -2.9411 O   0  0  0  0  0  0  0  0  0  0  0  0
   -1.9233   -0.1177   -0.8719 C   0  0  0  0  0  0  0  0  0  0  0  0
   -2.7120   -0.6223    0.1586 C   0  0  0  0  0  0  0  0  0  0  0  0
   -2.7520   -1.9388    0.4078 F   0  0  0  0  0  0  0  0  0  0  0  0
   -3.4901    0.2295    0.9439 C   0  0  0  0  0  0  0  0  0  0  0  0
   -3.4966    1.6102    0.6949 C   0  0  0  0  0  0  0  0  0  0  0  0
   -4.3111    2.5424    1.5469 C   0  0  0  0  0  0  0  0  0  0  0  0
   -2.6854    2.1174   -0.3295 C   0  0  0  0  0  0  0  0  0  0  0  0
   -1.9093    1.2536   -1.1075 C   0  0  0  0  0  0  0  0  0  0  0  0
   -1.1279    1.7765   -2.0590 F   0  0  0  0  0  0  0  0  0  0  0  0
   -0.2248   -3.3093   -1.6694 C   0  0  0  0  0  0  0  0  0  0  0  0
    0.5211   -4.3569   -1.2244 N   0  0  0  0  0  0  0  0  0  0  0  0
    1.2845   -4.0304   -0.1624 C   0  0  0  0  0  0  0  0  0  0  0  0
    2.1278   -4.8623    0.5181 N   0  0  0  0  0  0  0  0  0  0  0  0
    2.7789   -4.2610    1.5407 N   0  0  0  0  0  0  0  0  0  0  0  0
    2.3224   -3.0034    1.4972 C   0  0  0  0  0  0  0  0  0  0  0  0
    1.3870   -2.7947    0.4594 C   0  0  0  0  0  0  0  0  0  0  0  0
    3.3527    3.8831   -1.4733 H   0  0  0  0  0  0  0  0  0  0  0  0
    1.8435    4.0043   -0.5517 H   0  0  0  0  0  0  0  0  0  0  0  0
    2.0267    2.7552   -1.7954 H   0  0  0  0  0  0  0  0  0  0  0  0
    3.9434    1.7806   -0.3756 H   0  0  0  0  0  0  0  0  0  0  0  0
    3.5779    3.0031    0.8387 H   0  0  0  0  0  0  0  0  0  0  0  0
    1.1908    2.0464    0.9761 H   0  0  0  0  0  0  0  0  0  0  0  0
    2.4848    1.0715    1.6311 H   0  0  0  0  0  0  0  0  0  0  0  0
    2.5752   -0.2961   -0.4411 H   0  0  0  0  0  0  0  0  0  0  0  0
    1.2460    0.6607   -1.1396 H   0  0  0  0  0  0  0  0  0  0  0  0
   -4.0925   -0.1985    1.7412 H   0  0  0  0  0  0  0  0  0  0  0  0
   -3.6807    2.9899    2.3207 H   0  0  0  0  0  0  0  0  0  0  0  0
   -4.7458    3.3412    0.9403 H   0  0  0  0  0  0  0  0  0  0  0  0
   -5.1374    2.0132    2.0317 H   0  0  0  0  0  0  0  0  0  0  0  0
   -2.6408    3.1829   -0.5248 H   0  0  0  0  0  0  0  0  0  0  0  0
   -0.8614   -3.5489   -2.5211 H   0  0  0  0  0  0  0  0  0  0  0  0
    2.2985   -5.8423    0.3271 H   0  0  0  0  0  0  0  0  0  0  0  0
    2.6885   -2.2862    2.2224 H   0  0  0  0  0  0  0  0  0  0  0  0
  1  2  1  0
  2  3  1  0
  3  4  1  0
  4  5  1  0
  5  6  1  0
  6  7  2  0
  7  8  1  0
  8  9  2  0
  8 10  1  0
 10 11  2  0
 11 12  1  0
 11 13  1  0
 13 14  2  0
 14 15  1  0
 14 16  1  0
 16 17  2  0
 17 18  1  0
  7 19  1  0
 19 20  2  0
 20 21  1  0
 21 22  1  0
 22 23  1  0
 23 24  2  0
 24 25  1  0
 25  6  1  0
 17 10  1  0
 25 21  2  0
  1 26  1  0
  1 27  1  0
  1 28  1  0
  2 29  1  0
  2 30  1  0
  3 31  1  0
  3 32  1  0
  4 33  1  0
  4 34  1  0
 13 35  1  0
 15 36  1  0
 15 37  1  0
 15 38  1  0
 16 39  1  0
 19 40  1  0
 22 41  1  0
 24 42  1  0
M  END
$$$$
