
     RDKit          3D

 48 51  0  0  0  0  0  0  0  0999 V2000
   -2.8263   -2.1038    0.6313 N   0  0  0  0  0  0  0  0  0  0  0  0
   -1.4731   -2.4690    0.1758 C   0  0  2  0  0  0  0  0  0  0  0  0
   -0.5651   -2.6579    1.3965 C   0  0  0  0  0  0  0  0  0  0  0  0
   -0.3085   -1.3452    2.1509 C   0  0  0  0  0  0  0  0  0  0  0  0
   -0.4727   -0.0998    1.2706 C   0  0  0  0  0  0  0  0  0  0  0  0
   -0.0286   -0.4269   -0.0821 N   0  0  0  0  0  0  0  0  0  0  0  0
    0.4755    0.6030   -0.9013 C   0  0  0  0  0  0  0  0  0  0  0  0
    1.7185    0.3653   -1.5604 C   0  0  0  0  0  0  0  0  0  0  0  0
    2.4707   -0.8825   -1.3478 C   0  0  0  0  0  0  0  0  0  0  0  0
    3.2499   -1.1314   -0.2887 C   0  0  0  0  0  0  0  0  0  0  0  0
    3.6320   -0.0869    1.0301 S   0  0  0  0  0  0  0  0  0  0  0  0
    4.6001   -1.3120    1.8199 C   0  0  0  0  0  0  0  0  0  0  0  0
    5.1687   -1.1599    2.8880 O   0  0  0  0  0  0  0  0  0  0  0  0
    4.6217   -2.4395    1.0653 N   0  0  0  0  0  0  0  0  0  0  0  0
    3.9182   -2.4439   -0.1019 C   0  0  0  0  0  0  0  0  0  0  0  0
    3.8537   -3.3913   -0.8690 O   0  0  0  0  0  0  0  0  0  0  0  0
    2.2920    1.3241   -2.4063 C   0  0  0  0  0  0  0  0  0  0  0  0
    1.6550    2.5386   -2.6143 C   0  0  0  0  0  0  0  0  0  0  0  0
    0.4446    2.7973   -1.9768 C   0  0  0  0  0  0  0  0  0  0  0  0
   -0.1658    1.8528   -1.1199 C   0  0  0  0  0  0  0  0  0  0  0  0
   -1.4560    2.2437   -0.5270 C   0  0  0  0  0  0  0  0  0  0  0  0
   -1.4995    3.0999    0.5863 C   0  0  0  0  0  0  0  0  0  0  0  0
   -2.7196    3.4965    1.1379 C   0  0  0  0  0  0  0  0  0  0  0  0
   -3.9145    3.0518    0.5765 C   0  0  0  0  0  0  0  0  0  0  0  0
   -3.8905    2.2162   -0.5383 C   0  0  0  0  0  0  0  0  0  0  0  0
   -2.6695    1.8201   -1.0893 C   0  0  0  0  0  0  0  0  0  0  0  0
   -0.8550   -1.4183   -0.7953 C   0  0  0  0  0  0  0  0  0  0  0  0
   -3.2203   -2.8678    1.1783 H   0  0  0  0  0  0  0  0  0  0  0  0
   -3.4377   -1.9705   -0.1724 H   0  0  0  0  0  0  0  0  0  0  0  0
   -1.5638   -3.4199   -0.3627 H   0  0  0  0  0  0  0  0  0  0  0  0
    0.3981   -3.0593    1.0535 H   0  0  0  0  0  0  0  0  0  0  0  0
   -0.9748   -3.4072    2.0850 H   0  0  0  0  0  0  0  0  0  0  0  0
   -0.9859   -1.2640    3.0095 H   0  0  0  0  0  0  0  0  0  0  0  0
    0.7066   -1.3766    2.5656 H   0  0  0  0  0  0  0  0  0  0  0  0
    0.1231    0.7118    1.7057 H   0  0  0  0  0  0  0  0  0  0  0  0
   -1.5213    0.2145    1.2797 H   0  0  0  0  0  0  0  0  0  0  0  0
    2.3158   -1.6428   -2.1090 H   0  0  0  0  0  0  0  0  0  0  0  0
    5.1352   -3.2502    1.3666 H   0  0  0  0  0  0  0  0  0  0  0  0
    3.2431    1.1306   -2.8963 H   0  0  0  0  0  0  0  0  0  0  0  0
    2.0986    3.2861   -3.2663 H   0  0  0  0  0  0  0  0  0  0  0  0
   -0.0433    3.7556   -2.1528 H   0  0  0  0  0  0  0  0  0  0  0  0
   -0.5726    3.4537    1.0336 H   0  0  0  0  0  0  0  0  0  0  0  0
   -2.7354    4.1515    2.0048 H   0  0  0  0  0  0  0  0  0  0  0  0
   -4.8644    3.3585    1.0059 H   0  0  0  0  0  0  0  0  0  0  0  0
   -4.8216    1.8733   -0.9810 H   0  0  0  0  0  0  0  0  0  0  0  0
   -2.6652    1.1776   -1.9661 H   0  0  0  0  0  0  0  0  0  0  0  0
   -0.2233   -1.9591   -1.5111 H   0  0  0  0  0  0  0  0  0  0  0  0
   -1.6467   -0.9374   -1.3813 H   0  0  0  0  0  0  0  0  0  0  0  0
  1  2  1  0
  2  3  1  0
  3  4  1  0
  4  5  1  0
  5  6  1  0
  6  7  1  0
  7  8  1  0
  8  9  1  0
  9 10  2  0
 10 11  1  0
 11 12  1  0
 12 13  2  0
 12 14  1  0
 14 15  1  0
 15 16  2  0
  8 17  2  0
 17 18  1  0
 18 19  2  0
 19 20  1  0
 20 21  1  0
 21 22  2  0
 22 23  1  0
 23 24  2  0
 24 25  1  0
 25 26  2  0
  6 27  1  0
 27  2  1  0
 20  7  2  0
 26 21  1  0
 15 10  1  0
  1 28  1  0
  1 29  1  0
  2 30  1  6
  3 31  1  0
  3 32  1  0
  4 33  1  0
  4 34  1  0
  5 35  1  0
  5 36  1  0
  9 37  1  0
 14 38  1  0
 17 39  1  0
 18 40  1  0
 19 41  1  0
 22 42  1  0
 23 43  1  0
 24 44  1  0
 25 45  1  0
 26 46  1  0
 27 47  1  0
 27 48  1  0
M  END
$$$$
