
     RDKit          3D

 15 16  0  0  0  0  0  0  0  0999 V2000
    3.8097    0.9136   -0.6215 Br  0  0  0  0  0  0  0  0  0  0  0  0
    1.9970    0.3587   -0.3168 C   0  0  0  0  0  0  0  0  0  0  0  0
    1.6822   -1.0128   -0.1685 C   0  0  0  0  0  0  0  0  0  0  0  0
    3.0572   -2.3486   -0.2681 Br  0  0  0  0  0  0  0  0  0  0  0  0
    0.3510   -1.4236    0.0556 C   0  0  0  0  0  0  0  0  0  0  0  0
   -0.1954   -3.2302    0.2701 Br  0  0  0  0  0  0  0  0  0  0  0  0
   -0.6270   -0.4273    0.1230 C   0  0  0  0  0  0  0  0  0  0  0  0
   -1.9873   -0.4778    0.3243 N   0  0  0  0  0  0  0  0  0  0  0  0
   -2.4678    0.7975    0.2986 C   0  0  0  0  0  0  0  0  0  0  0  0
   -1.5064    1.6657    0.0941 N   0  0  0  0  0  0  0  0  0  0  0  0
   -0.3471    0.9264   -0.0189 C   0  0  0  0  0  0  0  0  0  0  0  0
    0.9813    1.3385   -0.2427 C   0  0  0  0  0  0  0  0  0  0  0  0
    1.3013    3.2064   -0.4289 Br  0  0  0  0  0  0  0  0  0  0  0  0
   -2.5325   -1.3173    0.4663 H   0  0  0  0  0  0  0  0  0  0  0  0
   -3.5161    1.0308    0.4334 H   0  0  0  0  0  0  0  0  0  0  0  0
  1  2  1  0
  2  3  2  0
  3  4  1  0
  3  5  1  0
  5  6  1  0
  5  7  2  0
  7  8  1  0
  8  9  1  0
  9 10  2  0
 10 11  1  0
 11 12  2  0
 12 13  1  0
 12  2  1  0
 11  7  1  0
  8 14  1  0
  9 15  1  0
M  END
$$$$
