
     RDKit          3D

 29 31  0  0  0  0  0  0  0  0999 V2000
   -0.2369   -0.8679    2.0634 O   0  0  0  0  0  0  0  0  0  0  0  0
    0.7055   -0.5384    1.3715 C   0  0  0  0  0  0  0  0  0  0  0  0
    2.0490   -0.6815    1.6851 N   0  0  0  0  0  0  0  0  0  0  0  0
    2.8658   -0.2004    0.6675 C   0  0  0  0  0  0  0  0  0  0  0  0
    4.2455   -0.1897    0.6497 C   0  0  0  0  0  0  0  0  0  0  0  0
    4.8685    0.3451   -0.4813 C   0  0  0  0  0  0  0  0  0  0  0  0
    4.1003    0.8479   -1.5489 C   0  0  0  0  0  0  0  0  0  0  0  0
    5.0669    1.6372   -3.2164 I   0  0  0  0  0  0  0  0  0  0  0  0
    2.7014    0.8285   -1.5131 C   0  0  0  0  0  0  0  0  0  0  0  0
    2.0947    0.2961   -0.3887 C   0  0  0  0  0  0  0  0  0  0  0  0
    0.6934    0.1074    0.0064 C   0  0  0  0  0  0  0  0  0  0  0  0
   -0.3746    0.4381   -0.7352 C   0  0  0  0  0  0  0  0  0  0  0  0
   -1.7768    0.2484   -0.3523 C   0  0  0  0  0  0  0  0  0  0  0  0
   -2.3356    0.9455    0.7250 C   0  0  0  0  0  0  0  0  0  0  0  0
   -3.6789    0.7587    1.0572 C   0  0  0  0  0  0  0  0  0  0  0  0
   -4.3961    1.7144    2.5304 Br  0  0  0  0  0  0  0  0  0  0  0  0
   -4.4793   -0.1120    0.3123 C   0  0  0  0  0  0  0  0  0  0  0  0
   -5.7996   -0.2982    0.6285 O   0  0  0  0  0  0  0  0  0  0  0  0
   -3.9259   -0.7977   -0.7708 C   0  0  0  0  0  0  0  0  0  0  0  0
   -4.9611   -1.9875   -1.8257 Br  0  0  0  0  0  0  0  0  0  0  0  0
   -2.5802   -0.6166   -1.1047 C   0  0  0  0  0  0  0  0  0  0  0  0
    2.3607   -1.0934    2.5513 H   0  0  0  0  0  0  0  0  0  0  0  0
    4.8305   -0.5786    1.4755 H   0  0  0  0  0  0  0  0  0  0  0  0
    5.9556    0.3671   -0.5243 H   0  0  0  0  0  0  0  0  0  0  0  0
    2.1117    1.2165   -2.3362 H   0  0  0  0  0  0  0  0  0  0  0  0
   -0.2420    0.8721   -1.7231 H   0  0  0  0  0  0  0  0  0  0  0  0
   -1.7190    1.6205    1.3140 H   0  0  0  0  0  0  0  0  0  0  0  0
   -5.9887    0.2230    1.4295 H   0  0  0  0  0  0  0  0  0  0  0  0
   -2.1549   -1.1584   -1.9466 H   0  0  0  0  0  0  0  0  0  0  0  0
  1  2  2  0
  2  3  1  0
  3  4  1  0
  4  5  2  0
  5  6  1  0
  6  7  2  0
  7  8  1  0
  7  9  1  0
  9 10  2  0
 10 11  1  0
 11 12  2  0
 12 13  1  0
 13 14  2  0
 14 15  1  0
 15 16  1  0
 15 17  2  0
 17 18  1  0
 17 19  1  0
 19 20  1  0
 19 21  2  0
 11  2  1  0
 21 13  1  0
 10  4  1  0
  3 22  1  0
  5 23  1  0
  6 24  1  0
  9 25  1  0
 12 26  1  0
 14 27  1  0
 18 28  1  0
 21 29  1  0
M  END
$$$$
