
     RDKit          3D

 58 61  0  0  0  0  0  0  0  0999 V2000
    4.6619    1.1171   -2.1925 C   0  0  0  0  0  0  0  0  0  0  0  0
    4.1481   -0.0529   -1.3649 C   0  0  0  0  0  0  0  0  0  0  0  0
    3.9907    0.2765    0.1337 C   0  0  0  0  0  0  0  0  0  0  0  0
    5.3261    0.5422    0.8523 C   0  0  0  0  0  0  0  0  0  0  0  0
    6.1318   -0.7316    1.0800 C   0  0  0  0  0  0  0  0  0  0  0  0
    5.2862   -1.7459    1.8428 C   0  0  0  0  0  0  0  0  0  0  0  0
    3.9642   -2.0157    1.1322 C   0  0  0  0  0  0  0  0  0  0  0  0
    3.2287   -0.7895    0.8176 N   0  0  0  0  0  0  0  0  0  0  0  0
    1.8327   -0.8918    0.7916 C   0  0  0  0  0  0  0  0  0  0  0  0
    1.2501   -1.8988    1.2088 O   0  0  0  0  0  0  0  0  0  0  0  0
    1.0272    0.3227    0.3125 C   0  0  0  0  0  0  0  0  0  0  0  0
   -0.3151   -0.0965   -0.1582 N   0  0  0  0  0  0  0  0  0  0  0  0
   -1.3966    0.8033    0.2053 C   0  0  0  0  0  0  0  0  0  0  0  0
   -2.7271    0.2392   -0.0068 N   0  0  0  0  0  0  0  0  0  0  0  0
   -3.7259    0.8370    0.8147 C   0  0  0  0  0  0  0  0  0  0  0  0
   -4.6366    0.0522    1.5449 C   0  0  0  0  0  0  0  0  0  0  0  0
   -5.5976    0.6383    2.3761 C   0  0  0  0  0  0  0  0  0  0  0  0
   -5.6707    2.0329    2.4998 C   0  0  0  0  0  0  0  0  0  0  0  0
   -6.7190    2.6642    3.3713 C   0  0  0  0  0  0  0  0  0  0  0  0
   -4.7967    2.8286    1.7531 C   0  0  0  0  0  0  0  0  0  0  0  0
   -3.8327    2.2367    0.9311 C   0  0  0  0  0  0  0  0  0  0  0  0
   -2.9508   -0.7577   -0.9736 C   0  0  0  0  0  0  0  0  0  0  0  0
   -4.2025   -1.2901   -1.0775 N   0  0  0  0  0  0  0  0  0  0  0  0
   -4.4556   -2.2735   -1.9738 C   0  0  0  0  0  0  0  0  0  0  0  0
   -3.5074   -2.7856   -2.8298 C   0  0  0  0  0  0  0  0  0  0  0  0
   -2.2347   -2.2448   -2.7639 C   0  0  0  0  0  0  0  0  0  0  0  0
   -1.9780   -1.2197   -1.8465 C   0  0  0  0  0  0  0  0  0  0  0  0
   -0.3931   -0.5231   -1.7670 S   0  0  0  0  0  6  0  0  0  0  0  0
   -0.3865    0.6990   -2.5485 O   0  0  0  0  0  0  0  0  0  0  0  0
    0.5951   -1.5526   -2.0134 O   0  0  0  0  0  0  0  0  0  0  0  0
    4.0434    2.0159   -2.0433 H   0  0  0  0  0  0  0  0  0  0  0  0
    4.6327    0.8565   -3.2613 H   0  0  0  0  0  0  0  0  0  0  0  0
    5.6988    1.3689   -1.9399 H   0  0  0  0  0  0  0  0  0  0  0  0
    4.8159   -0.9108   -1.5073 H   0  0  0  0  0  0  0  0  0  0  0  0
    3.1790   -0.3628   -1.7773 H   0  0  0  0  0  0  0  0  0  0  0  0
    3.4197    1.2078    0.2161 H   0  0  0  0  0  0  0  0  0  0  0  0
    5.1075    0.9854    1.8333 H   0  0  0  0  0  0  0  0  0  0  0  0
    5.9272    1.2820    0.3137 H   0  0  0  0  0  0  0  0  0  0  0  0
    7.0384   -0.4981    1.6482 H   0  0  0  0  0  0  0  0  0  0  0  0
    6.4542   -1.1568    0.1249 H   0  0  0  0  0  0  0  0  0  0  0  0
    5.8471   -2.6820    1.9647 H   0  0  0  0  0  0  0  0  0  0  0  0
    5.0791   -1.3555    2.8509 H   0  0  0  0  0  0  0  0  0  0  0  0
    3.3612   -2.6776    1.7590 H   0  0  0  0  0  0  0  0  0  0  0  0
    4.1304   -2.5400    0.1879 H   0  0  0  0  0  0  0  0  0  0  0  0
    1.5272    0.8629   -0.4933 H   0  0  0  0  0  0  0  0  0  0  0  0
    0.9486    1.0029    1.1670 H   0  0  0  0  0  0  0  0  0  0  0  0
   -1.2839    1.7613   -0.3220 H   0  0  0  0  0  0  0  0  0  0  0  0
   -1.2797    1.0133    1.2797 H   0  0  0  0  0  0  0  0  0  0  0  0
   -4.5965   -1.0370    1.4777 H   0  0  0  0  0  0  0  0  0  0  0  0
   -6.2852   -0.0060    2.9227 H   0  0  0  0  0  0  0  0  0  0  0  0
   -6.4009    3.6587    3.7126 H   0  0  0  0  0  0  0  0  0  0  0  0
   -6.8946    2.0586    4.2643 H   0  0  0  0  0  0  0  0  0  0  0  0
   -7.6611    2.7651    2.8183 H   0  0  0  0  0  0  0  0  0  0  0  0
   -4.8598    3.9170    1.7993 H   0  0  0  0  0  0  0  0  0  0  0  0
   -3.1857    2.8908    0.3496 H   0  0  0  0  0  0  0  0  0  0  0  0
   -5.4762   -2.6481   -1.9733 H   0  0  0  0  0  0  0  0  0  0  0  0
   -3.7545   -3.5811   -3.5235 H   0  0  0  0  0  0  0  0  0  0  0  0
   -1.4486   -2.6116   -3.4147 H   0  0  0  0  0  0  0  0  0  0  0  0
  1  2  1  0
  2  3  1  0
  3  4  1  0
  4  5  1  0
  5  6  1  0
  6  7  1  0
  7  8  1  0
  8  9  1  0
  9 10  2  0
  9 11  1  0
 11 12  1  0
 12 13  1  0
 13 14  1  0
 14 15  1  0
 15 16  2  0
 16 17  1  0
 17 18  2  0
 18 19  1  0
 18 20  1  0
 20 21  2  0
 14 22  1  0
 22 23  2  0
 23 24  1  0
 24 25  2  0
 25 26  1  0
 26 27  2  0
 27 28  1  0
 28 29  2  0
 28 30  2  0
  8  3  1  0
 28 12  1  0
 21 15  1  0
 27 22  1  0
  1 31  1  0
  1 32  1  0
  1 33  1  0
  2 34  1  0
  2 35  1  0
  3 36  1  0
  4 37  1  0
  4 38  1  0
  5 39  1  0
  5 40  1  0
  6 41  1  0
  6 42  1  0
  7 43  1  0
  7 44  1  0
 11 45  1  0
 11 46  1  0
 13 47  1  0
 13 48  1  0
 16 49  1  0
 17 50  1  0
 19 51  1  0
 19 52  1  0
 19 53  1  0
 20 54  1  0
 21 55  1  0
 24 56  1  0
 25 57  1  0
 26 58  1  0
M  END
$$$$
