
     RDKit          3D

 31 31  0  0  0  0  0  0  0  0999 V2000
    2.6090    1.7690   -2.0291 C   0  0  0  0  0  0  0  0  0  0  0  0
    2.3550    0.7950   -0.9295 C   0  0  0  0  0  0  0  0  0  0  0  0
    1.0356    0.6072   -0.4913 C   0  0  0  0  0  0  0  0  0  0  0  0
    0.7489   -0.2768    0.5131 C   0  0  0  0  0  0  0  0  0  0  0  0
   -0.5359   -0.5538    0.9428 N   0  0  0  0  0  0  0  0  0  0  0  0
   -1.7429   -0.2344    0.3236 C   0  0  0  0  0  0  0  0  0  0  0  0
   -1.9436   -0.0451   -1.0231 C   0  0  0  0  0  0  0  0  0  0  0  0
   -3.2108    0.1955   -1.5749 C   0  0  0  0  0  0  0  0  0  0  0  0
   -4.3283    0.2512   -0.7794 C   0  0  0  0  0  0  0  0  0  0  0  0
   -4.1666    0.0636    0.5761 C   0  0  0  0  0  0  0  0  0  0  0  0
   -2.9278   -0.1682    1.0971 C   0  0  0  0  0  0  0  0  0  0  0  0
   -2.7674   -0.3583    2.4762 O   0  0  0  0  0  0  0  0  0  0  0  0
    1.8146   -0.9572    1.0617 N   0  0  0  0  0  0  0  0  0  0  0  0
    3.0618   -0.7783    0.6477 C   0  0  0  0  0  0  0  0  0  0  0  0
    4.1545   -1.5669    1.3086 C   0  0  0  0  0  0  0  0  0  0  0  0
    3.3108    0.0909   -0.3376 N   0  0  0  0  0  0  0  0  0  0  0  0
    0.6906    0.0000    0.0000 Cl  0  0  0  0  0  0  0  0  0  0  0  0
    2.0480    1.3852   -2.9117 H   0  0  0  0  0  0  0  0  0  0  0  0
    3.6915    1.8312   -2.2204 H   0  0  0  0  0  0  0  0  0  0  0  0
    2.1730    2.7437   -1.6918 H   0  0  0  0  0  0  0  0  0  0  0  0
    0.2770    1.2394   -0.9594 H   0  0  0  0  0  0  0  0  0  0  0  0
   -0.6175   -1.0846    1.8729 H   0  0  0  0  0  0  0  0  0  0  0  0
   -1.0939   -0.1350   -1.7009 H   0  0  0  0  0  0  0  0  0  0  0  0
   -3.2720    0.3344   -2.6437 H   0  0  0  0  0  0  0  0  0  0  0  0
   -5.2977    0.4372   -1.2171 H   0  0  0  0  0  0  0  0  0  0  0  0
   -5.0531    0.1084    1.1932 H   0  0  0  0  0  0  0  0  0  0  0  0
   -3.5358   -0.3321    3.1155 H   0  0  0  0  0  0  0  0  0  0  0  0
    4.0732   -1.5189    2.4058 H   0  0  0  0  0  0  0  0  0  0  0  0
    5.1557   -1.2137    0.9789 H   0  0  0  0  0  0  0  0  0  0  0  0
    3.9846   -2.6285    1.0249 H   0  0  0  0  0  0  0  0  0  0  0  0
   -0.6906    0.0000    0.0000 H   0  0  0  0  0  0  0  0  0  0  0  0
  1  2  1  0
  2  3  2  0
  3  4  1  0
  4  5  1  0
  5  6  1  0
  6  7  2  0
  7  8  1  0
  8  9  2  0
  9 10  1  0
 10 11  2  0
 11 12  1  0
  4 13  2  0
 13 14  1  0
 14 15  1  0
 14 16  2  0
 16  2  1  0
 11  6  1  0
  1 18  1  0
  1 19  1  0
  1 20  1  0
  3 21  1  0
  5 22  1  0
  7 23  1  0
  8 24  1  0
  9 25  1  0
 10 26  1  0
 12 27  1  0
 15 28  1  0
 15 29  1  0
 15 30  1  0
 17 31  1  0
M  END
$$$$
