
     RDKit          3D

 64 66  0  0  0  0  0  0  0  0999 V2000
    2.8916   -1.0120   -0.0374 O   0  0  0  0  0  0  0  0  0  0  0  0
    1.9599   -0.2306   -0.0952 C   0  0  0  0  0  0  0  0  0  0  0  0
    2.1540    1.0849   -0.2703 O   0  0  0  0  0  0  0  0  0  0  0  0
    0.5495   -0.6121    0.0135 C   0  0  0  0  0  0  0  0  0  0  0  0
   -0.4543    0.2716   -0.0634 C   0  0  0  0  0  0  0  0  0  0  0  0
   -1.8332   -0.2062    0.0528 C   0  0  0  0  0  0  0  0  0  0  0  0
   -2.2053   -1.3506    0.2237 O   0  0  0  0  0  0  0  0  0  0  0  0
   -2.6895    0.8201   -0.0566 O   0  0  0  0  0  0  0  0  0  0  0  0
    7.8826    0.6045   -0.2992 O   0  0  0  0  0  0  0  0  0  0  0  0
    6.9378   -0.0639    0.5294 C   0  0  0  0  0  0  0  0  0  0  0  0
    5.6363   -0.2990   -0.2369 C   0  0  0  0  0  0  0  0  0  0  0  0
    4.6520   -0.9275    0.5815 O   0  0  0  0  0  0  0  0  0  0  0  0
    3.8950   -0.0337    1.4021 C   0  0  0  0  0  0  0  0  0  0  0  0
    2.8940    0.8547    0.6264 C   0  0  0  0  0  0  0  0  0  0  0  0
    2.0608    0.1567   -0.3705 N   0  0  0  0  0  0  0  0  0  0  0  0
    1.2030    1.1315   -1.0921 C   0  0  0  0  0  0  0  0  0  0  0  0
    0.2645    0.4529   -2.1156 C   0  0  0  0  0  0  0  0  0  0  0  0
   -0.5781   -0.5696   -1.4571 N   0  0  0  0  0  0  0  0  0  0  0  0
   -1.7766   -0.1663   -0.8467 C   0  0  0  0  0  0  0  0  0  0  0  0
   -2.0413    1.1103   -0.7575 N   0  0  0  0  0  0  0  0  0  0  0  0
   -3.2027    1.6494   -0.1787 C   0  0  0  0  0  0  0  0  0  0  0  0
   -3.8695    2.6396   -0.9121 C   0  0  0  0  0  0  0  0  0  0  0  0
   -4.9801    3.3052   -0.3875 C   0  0  0  0  0  0  0  0  0  0  0  0
   -5.4312    2.9987    0.8939 C   0  0  0  0  0  0  0  0  0  0  0  0
   -4.7754    2.0232    1.6453 C   0  0  0  0  0  0  0  0  0  0  0  0
   -3.6655    1.3461    1.1158 C   0  0  0  0  0  0  0  0  0  0  0  0
   -2.9191    0.0512    2.1012 S   0  0  0  0  0  0  0  0  0  0  0  0
   -3.2023   -1.2751    0.9410 C   0  0  0  0  0  0  0  0  0  0  0  0
   -3.9887   -2.3615    1.3478 C   0  0  0  0  0  0  0  0  0  0  0  0
   -4.2768   -3.4022    0.4606 C   0  0  0  0  0  0  0  0  0  0  0  0
   -3.7819   -3.3676   -0.8420 C   0  0  0  0  0  0  0  0  0  0  0  0
   -2.9913   -2.2958   -1.2555 C   0  0  0  0  0  0  0  0  0  0  0  0
   -2.6981   -1.2496   -0.3663 C   0  0  0  0  0  0  0  0  0  0  0  0
    0.2797   -1.5729   -0.7864 C   0  0  0  0  0  0  0  0  0  0  0  0
    1.2097   -0.8887    0.2430 C   0  0  0  0  0  0  0  0  0  0  0  0
    3.1287    1.1705   -0.3257 H   0  0  0  0  0  0  0  0  0  0  0  0
    0.3728   -1.6730    0.1595 H   0  0  0  0  0  0  0  0  0  0  0  0
   -0.3019    1.3336   -0.2099 H   0  0  0  0  0  0  0  0  0  0  0  0
   -3.5722    0.4039    0.0336 H   0  0  0  0  0  0  0  0  0  0  0  0
    8.7052    0.6841    0.2151 H   0  0  0  0  0  0  0  0  0  0  0  0
    7.3599   -1.0203    0.8561 H   0  0  0  0  0  0  0  0  0  0  0  0
    6.7669    0.5430    1.4246 H   0  0  0  0  0  0  0  0  0  0  0  0
    5.8433   -0.9744   -1.0765 H   0  0  0  0  0  0  0  0  0  0  0  0
    5.2662    0.6278   -0.6882 H   0  0  0  0  0  0  0  0  0  0  0  0
    3.3485   -0.6543    2.1204 H   0  0  0  0  0  0  0  0  0  0  0  0
    4.5697    0.5955    1.9918 H   0  0  0  0  0  0  0  0  0  0  0  0
    2.2667    1.3851    1.3561 H   0  0  0  0  0  0  0  0  0  0  0  0
    3.4728    1.6253    0.1011 H   0  0  0  0  0  0  0  0  0  0  0  0
    1.8410    1.8396   -1.6354 H   0  0  0  0  0  0  0  0  0  0  0  0
    0.6079    1.7109   -0.3741 H   0  0  0  0  0  0  0  0  0  0  0  0
    0.8649   -0.0350   -2.8955 H   0  0  0  0  0  0  0  0  0  0  0  0
   -0.3494    1.2012   -2.6309 H   0  0  0  0  0  0  0  0  0  0  0  0
   -3.5068    2.8977   -1.9046 H   0  0  0  0  0  0  0  0  0  0  0  0
   -5.4831    4.0671   -0.9774 H   0  0  0  0  0  0  0  0  0  0  0  0
   -6.2924    3.5167    1.3070 H   0  0  0  0  0  0  0  0  0  0  0  0
   -5.1417    1.7853    2.6410 H   0  0  0  0  0  0  0  0  0  0  0  0
   -4.3931   -2.4002    2.3571 H   0  0  0  0  0  0  0  0  0  0  0  0
   -4.8928   -4.2370    0.7875 H   0  0  0  0  0  0  0  0  0  0  0  0
   -4.0066   -4.1748   -1.5344 H   0  0  0  0  0  0  0  0  0  0  0  0
   -2.5974   -2.2713   -2.2695 H   0  0  0  0  0  0  0  0  0  0  0  0
   -0.3073   -2.3486   -0.2847 H   0  0  0  0  0  0  0  0  0  0  0  0
    0.8827   -2.0860   -1.5461 H   0  0  0  0  0  0  0  0  0  0  0  0
    0.6011   -0.4572    1.0489 H   0  0  0  0  0  0  0  0  0  0  0  0
    1.8373   -1.6707    0.6836 H   0  0  0  0  0  0  0  0  0  0  0  0
  1  2  2  0
  2  3  1  0
  2  4  1  0
  4  5  2  0
  5  6  1  0
  6  7  2  0
  6  8  1  0
  9 10  1  0
 10 11  1  0
 11 12  1  0
 12 13  1  0
 13 14  1  0
 14 15  1  0
 15 16  1  0
 16 17  1  0
 17 18  1  0
 18 19  1  0
 19 20  2  0
 20 21  1  0
 21 22  2  0
 22 23  1  0
 23 24  2  0
 24 25  1  0
 25 26  2  0
 26 27  1  0
 27 28  1  0
 28 29  2  0
 29 30  1  0
 30 31  2  0
 31 32  1  0
 32 33  2  0
 18 34  1  0
 34 35  1  0
 35 15  1  0
 33 19  1  0
 26 21  1  0
 33 28  1  0
  3 36  1  0
  4 37  1  0
  5 38  1  0
  8 39  1  0
  9 40  1  0
 10 41  1  0
 10 42  1  0
 11 43  1  0
 11 44  1  0
 13 45  1  0
 13 46  1  0
 14 47  1  0
 14 48  1  0
 16 49  1  0
 16 50  1  0
 17 51  1  0
 17 52  1  0
 22 53  1  0
 23 54  1  0
 24 55  1  0
 25 56  1  0
 29 57  1  0
 30 58  1  0
 31 59  1  0
 32 60  1  0
 34 61  1  0
 34 62  1  0
 35 63  1  0
 35 64  1  0
M  END
$$$$
