
     RDKit          3D

 43 45  0  0  0  0  0  0  0  0999 V2000
    5.3612   -0.8661    2.2452 C   0  0  0  0  0  0  0  0  0  0  0  0
    4.1276   -0.2425    2.5776 O   0  0  0  0  0  0  0  0  0  0  0  0
    3.3662    0.2265    1.5428 C   0  0  0  0  0  0  0  0  0  0  0  0
    3.6817    0.1225    0.1879 C   0  0  0  0  0  0  0  0  0  0  0  0
    2.8108    0.6407   -0.7800 C   0  0  0  0  0  0  0  0  0  0  0  0
    1.6137    1.2531   -0.4056 C   0  0  0  0  0  0  0  0  0  0  0  0
    0.7147    1.7913   -1.3773 N   0  0  0  0  0  0  0  0  0  0  0  0
    0.0617    0.7434   -2.5376 S   0  0  0  0  0  6  0  0  0  0  0  0
   -0.9886    1.4534   -3.2342 O   0  0  0  0  0  0  0  0  0  0  0  0
    1.1369    0.1016   -3.2641 O   0  0  0  0  0  0  0  0  0  0  0  0
   -0.7873   -0.5486   -1.7407 C   0  0  0  0  0  0  0  0  0  0  0  0
   -0.6642   -1.9111   -1.9867 C   0  0  0  0  0  0  0  0  0  0  0  0
    0.1932   -2.6679   -2.9375 C   0  0  0  0  0  0  0  0  0  0  0  0
   -1.5444   -2.5605   -1.1554 N   0  0  0  0  0  0  0  0  0  0  0  0
   -2.2362   -1.6528   -0.3906 C   0  0  0  0  0  0  0  0  0  0  0  0
   -3.2600   -2.0951    0.5924 C   0  0  0  0  0  0  0  0  0  0  0  0
   -1.7811   -0.3905   -0.7349 C   0  0  0  0  0  0  0  0  0  0  0  0
   -2.3022    0.9313   -0.0853 C   0  0  0  0  0  0  0  0  0  0  0  0
   -1.8217    2.1309   -0.3551 N   0  0  0  0  0  0  0  0  0  0  0  0
   -2.4800    3.0272    0.4541 N   0  0  0  0  0  0  0  0  0  0  0  0
   -3.3402    2.3219    1.1537 C   0  0  0  0  0  0  0  0  0  0  0  0
   -4.3155    2.7587    2.1658 C   0  0  0  0  0  0  0  0  0  0  0  0
   -3.2821    0.9850    0.8785 O   0  0  0  0  0  0  0  0  0  0  0  0
    1.3071    1.3862    0.9458 C   0  0  0  0  0  0  0  0  0  0  0  0
    2.1757    0.8661    1.9027 C   0  0  0  0  0  0  0  0  0  0  0  0
    1.8448    0.9920    3.1974 F   0  0  0  0  0  0  0  0  0  0  0  0
    5.1982   -1.7680    1.6461 H   0  0  0  0  0  0  0  0  0  0  0  0
    6.0320   -0.1674    1.7344 H   0  0  0  0  0  0  0  0  0  0  0  0
    5.8448   -1.1696    3.1787 H   0  0  0  0  0  0  0  0  0  0  0  0
    4.5968   -0.3491   -0.1554 H   0  0  0  0  0  0  0  0  0  0  0  0
    3.0925    0.5696   -1.8284 H   0  0  0  0  0  0  0  0  0  0  0  0
   -0.0449    2.3764   -1.0052 H   0  0  0  0  0  0  0  0  0  0  0  0
    1.2489   -2.5599   -2.6699 H   0  0  0  0  0  0  0  0  0  0  0  0
   -0.0450   -3.7368   -2.9283 H   0  0  0  0  0  0  0  0  0  0  0  0
    0.0475   -2.3059   -3.9600 H   0  0  0  0  0  0  0  0  0  0  0  0
   -1.6723   -3.5650   -1.1210 H   0  0  0  0  0  0  0  0  0  0  0  0
   -2.9827   -1.7765    1.6023 H   0  0  0  0  0  0  0  0  0  0  0  0
   -3.3658   -3.1849    0.6020 H   0  0  0  0  0  0  0  0  0  0  0  0
   -4.2363   -1.6657    0.3467 H   0  0  0  0  0  0  0  0  0  0  0  0
   -4.1030    2.2890    3.1307 H   0  0  0  0  0  0  0  0  0  0  0  0
   -5.3308    2.4866    1.8628 H   0  0  0  0  0  0  0  0  0  0  0  0
   -4.2767    3.8440    2.2974 H   0  0  0  0  0  0  0  0  0  0  0  0
    0.4048    1.8867    1.2802 H   0  0  0  0  0  0  0  0  0  0  0  0
  1  2  1  0
  2  3  1  0
  3  4  2  0
  4  5  1  0
  5  6  2  0
  6  7  1  0
  7  8  1  0
  8  9  2  0
  8 10  2  0
  8 11  1  0
 11 12  2  0
 12 13  1  0
 12 14  1  0
 14 15  1  0
 15 16  1  0
 15 17  2  0
 17 18  1  0
 18 19  2  0
 19 20  1  0
 20 21  2  0
 21 22  1  0
 21 23  1  0
  6 24  1  0
 24 25  2  0
 25 26  1  0
 25  3  1  0
 17 11  1  0
 23 18  1  0
  1 27  1  0
  1 28  1  0
  1 29  1  0
  4 30  1  0
  5 31  1  0
  7 32  1  0
 13 33  1  0
 13 34  1  0
 13 35  1  0
 14 36  1  0
 16 37  1  0
 16 38  1  0
 16 39  1  0
 22 40  1  0
 22 41  1  0
 22 42  1  0
 24 43  1  0
M  END
$$$$
