
     RDKit          3D

 27 28  0  0  0  0  0  0  0  0999 V2000
    4.6098   -0.3237    0.8407 C   0  0  0  0  0  0  0  0  0  0  0  0
    3.2093    0.0094    0.4112 C   0  0  0  0  0  0  0  0  0  0  0  0
    2.1255   -0.4238    1.1853 C   0  0  0  0  0  0  0  0  0  0  0  0
    0.8101   -0.1284    0.8079 C   0  0  0  0  0  0  0  0  0  0  0  0
    0.5389    0.6137   -0.3457 C   0  0  0  0  0  0  0  0  0  0  0  0
   -0.7639    0.9050   -0.8002 N   0  0  0  0  0  0  0  0  0  0  0  0
   -1.9632    0.3288   -0.4293 C   0  0  0  0  0  0  0  0  0  0  0  0
   -3.1031    1.0389   -0.4257 C   0  0  0  0  0  0  0  0  0  0  0  0
   -4.3785    0.4016   -0.0517 C   0  0  0  0  0  0  0  0  0  0  0  0
   -5.4252    1.0391   -0.0612 O   0  0  0  0  0  0  0  0  0  0  0  0
   -4.3137   -0.9138    0.2919 N   0  0  0  0  0  0  0  0  0  0  0  0
   -3.1815   -1.6667    0.2345 C   0  0  0  0  0  0  0  0  0  0  0  0
   -3.1837   -2.8684    0.4800 O   0  0  0  0  0  0  0  0  0  0  0  0
   -2.0444   -1.0032   -0.1186 N   0  0  0  0  0  0  0  0  0  0  0  0
    1.6249    1.0409   -1.1216 C   0  0  0  0  0  0  0  0  0  0  0  0
    2.9420    0.7466   -0.7492 C   0  0  0  0  0  0  0  0  0  0  0  0
    4.2149    1.3184   -1.7688 Cl  0  0  0  0  0  0  0  0  0  0  0  0
    5.1820    0.5919    1.0211 H   0  0  0  0  0  0  0  0  0  0  0  0
    5.1109   -0.9258    0.0760 H   0  0  0  0  0  0  0  0  0  0  0  0
    4.6169   -0.9029    1.7704 H   0  0  0  0  0  0  0  0  0  0  0  0
    2.2936   -0.9941    2.0973 H   0  0  0  0  0  0  0  0  0  0  0  0
    0.0065   -0.4615    1.4599 H   0  0  0  0  0  0  0  0  0  0  0  0
   -0.8392    1.8408   -1.1907 H   0  0  0  0  0  0  0  0  0  0  0  0
   -3.1527    2.0891   -0.6802 H   0  0  0  0  0  0  0  0  0  0  0  0
   -5.1729   -1.3828    0.5310 H   0  0  0  0  0  0  0  0  0  0  0  0
   -1.2094   -1.5681   -0.2029 H   0  0  0  0  0  0  0  0  0  0  0  0
    1.4461    1.5991   -2.0377 H   0  0  0  0  0  0  0  0  0  0  0  0
  1  2  1  0
  2  3  2  0
  3  4  1  0
  4  5  2  0
  5  6  1  0
  6  7  1  0
  7  8  2  0
  8  9  1  0
  9 10  2  0
  9 11  1  0
 11 12  1  0
 12 13  2  0
 12 14  1  0
  5 15  1  0
 15 16  2  0
 16 17  1  0
 16  2  1  0
 14  7  1  0
  1 18  1  0
  1 19  1  0
  1 20  1  0
  3 21  1  0
  4 22  1  0
  6 23  1  0
  8 24  1  0
 11 25  1  0
 14 26  1  0
 15 27  1  0
M  END
$$$$
