
     RDKit          3D

 67 68  0  0  0  0  0  0  0  0999 V2000
   -3.8517    3.4145    0.9063 O   0  0  0  0  0  0  0  0  0  0  0  0
   -5.2160    3.4400    1.3083 C   0  0  0  0  0  0  0  0  0  0  0  0
   -5.8983    2.1032    1.1575 C   0  0  0  0  0  0  0  0  0  0  0  0
   -5.1941    0.9874    0.6579 C   0  0  0  0  0  0  0  0  0  0  0  0
   -5.7996   -0.2720    0.4969 C   0  0  0  0  0  0  0  0  0  0  0  0
   -5.0437   -1.4905   -0.0039 C   0  0  0  0  0  0  0  0  0  0  0  0
   -5.9049   -2.2665   -0.8532 O   0  0  0  0  0  0  0  0  0  0  0  0
   -3.7374   -1.2104   -0.7944 C   0  0  0  0  0  0  0  0  0  0  0  0
   -3.1948   -2.4069   -1.4763 N   0  0  0  0  0  0  0  0  0  0  0  0
   -2.7032   -3.4514   -0.5721 C   0  0  0  0  0  0  0  0  0  0  0  0
   -1.5542   -3.0562    0.3642 C   0  0  0  0  0  0  0  0  0  0  0  0
   -0.3161   -2.4477   -0.3061 C   0  0  0  0  0  0  0  0  0  0  0  0
    0.3732   -3.3944   -1.2906 C   0  0  0  0  0  0  0  0  0  0  0  0
    1.5656   -2.7708   -2.0298 C   0  0  0  0  0  0  0  0  0  0  0  0
    2.7850   -2.4963   -1.1482 C   0  0  0  0  0  0  0  0  0  0  0  0
    2.5720   -1.3918   -0.2742 O   0  0  0  0  0  0  0  0  0  0  0  0
    2.8823   -0.1217   -0.8433 C   0  0  0  0  0  0  0  0  0  0  0  0
    4.3648    0.2157   -0.6865 C   0  0  0  0  0  0  0  0  0  0  0  0
    4.8034    0.2205    0.7831 C   0  0  0  0  0  0  0  0  0  0  0  0
    6.2943    0.5271    0.9606 C   0  0  0  0  0  0  0  0  0  0  0  0
    6.6712    1.9401    0.5897 C   0  0  0  0  0  0  0  0  0  0  0  0
    6.3030    3.0130    1.4130 C   0  0  0  0  0  0  0  0  0  0  0  0
    6.6426    4.3217    1.0665 C   0  0  0  0  0  0  0  0  0  0  0  0
    7.3519    4.5711   -0.1068 C   0  0  0  0  0  0  0  0  0  0  0  0
    7.7245    3.5121   -0.9322 C   0  0  0  0  0  0  0  0  0  0  0  0
    7.3870    2.2022   -0.5859 C   0  0  0  0  0  0  0  0  0  0  0  0
   -7.1423   -0.4054    0.8797 C   0  0  0  0  0  0  0  0  0  0  0  0
   -7.8576    0.6822    1.3787 C   0  0  0  0  0  0  0  0  0  0  0  0
   -7.2419    1.9235    1.5108 C   0  0  0  0  0  0  0  0  0  0  0  0
   -8.0348    2.9211    2.0064 O   0  0  0  0  0  0  0  0  0  0  0  0
   -3.5041    4.3127    1.0345 H   0  0  0  0  0  0  0  0  0  0  0  0
   -5.2485    3.7502    2.3578 H   0  0  0  0  0  0  0  0  0  0  0  0
   -5.7305    4.1833    0.6904 H   0  0  0  0  0  0  0  0  0  0  0  0
   -4.1473    1.1209    0.3947 H   0  0  0  0  0  0  0  0  0  0  0  0
   -4.8101   -2.1096    0.8703 H   0  0  0  0  0  0  0  0  0  0  0  0
   -5.2897   -2.7522   -1.4394 H   0  0  0  0  0  0  0  0  0  0  0  0
   -2.9784   -0.7429   -0.1579 H   0  0  0  0  0  0  0  0  0  0  0  0
   -3.9646   -0.4906   -1.5917 H   0  0  0  0  0  0  0  0  0  0  0  0
   -2.4270   -2.1057   -2.0789 H   0  0  0  0  0  0  0  0  0  0  0  0
   -2.3826   -4.2960   -1.1924 H   0  0  0  0  0  0  0  0  0  0  0  0
   -3.5312   -3.8450    0.0281 H   0  0  0  0  0  0  0  0  0  0  0  0
   -1.2468   -3.9492    0.9236 H   0  0  0  0  0  0  0  0  0  0  0  0
   -1.9248   -2.3484    1.1155 H   0  0  0  0  0  0  0  0  0  0  0  0
    0.3809   -2.1834    0.4965 H   0  0  0  0  0  0  0  0  0  0  0  0
   -0.5812   -1.5118   -0.8108 H   0  0  0  0  0  0  0  0  0  0  0  0
    0.6977   -4.3011   -0.7662 H   0  0  0  0  0  0  0  0  0  0  0  0
   -0.3464   -3.7137   -2.0528 H   0  0  0  0  0  0  0  0  0  0  0  0
    1.8703   -3.4733   -2.8154 H   0  0  0  0  0  0  0  0  0  0  0  0
    1.2355   -1.8530   -2.5284 H   0  0  0  0  0  0  0  0  0  0  0  0
    2.9943   -3.3721   -0.5251 H   0  0  0  0  0  0  0  0  0  0  0  0
    3.6708   -2.3284   -1.7707 H   0  0  0  0  0  0  0  0  0  0  0  0
    2.2829    0.6244   -0.3106 H   0  0  0  0  0  0  0  0  0  0  0  0
    2.5870   -0.0809   -1.8970 H   0  0  0  0  0  0  0  0  0  0  0  0
    4.5450    1.1967   -1.1395 H   0  0  0  0  0  0  0  0  0  0  0  0
    4.9730   -0.5135   -1.2339 H   0  0  0  0  0  0  0  0  0  0  0  0
    4.6092   -0.7661    1.2206 H   0  0  0  0  0  0  0  0  0  0  0  0
    4.1963    0.9407    1.3457 H   0  0  0  0  0  0  0  0  0  0  0  0
    6.5721    0.3636    2.0099 H   0  0  0  0  0  0  0  0  0  0  0  0
    6.8910   -0.1881    0.3804 H   0  0  0  0  0  0  0  0  0  0  0  0
    5.7491    2.8331    2.3317 H   0  0  0  0  0  0  0  0  0  0  0  0
    6.3535    5.1457    1.7131 H   0  0  0  0  0  0  0  0  0  0  0  0
    7.6161    5.5902   -0.3767 H   0  0  0  0  0  0  0  0  0  0  0  0
    8.2778    3.7058   -1.8475 H   0  0  0  0  0  0  0  0  0  0  0  0
    7.6839    1.3877   -1.2425 H   0  0  0  0  0  0  0  0  0  0  0  0
   -7.6418   -1.3676    0.7816 H   0  0  0  0  0  0  0  0  0  0  0  0
   -8.8992    0.5589    1.6619 H   0  0  0  0  0  0  0  0  0  0  0  0
   -7.5626    3.7654    1.9975 H   0  0  0  0  0  0  0  0  0  0  0  0
  1  2  1  0
  2  3  1  0
  3  4  2  0
  4  5  1  0
  5  6  1  0
  6  7  1  0
  6  8  1  0
  8  9  1  0
  9 10  1  0
 10 11  1  0
 11 12  1  0
 12 13  1  0
 13 14  1  0
 14 15  1  0
 15 16  1  0
 16 17  1  0
 17 18  1  0
 18 19  1  0
 19 20  1  0
 20 21  1  0
 21 22  2  0
 22 23  1  0
 23 24  2  0
 24 25  1  0
 25 26  2  0
  5 27  2  0
 27 28  1  0
 28 29  2  0
 29 30  1  0
 29  3  1  0
 26 21  1  0
  1 31  1  0
  2 32  1  0
  2 33  1  0
  4 34  1  0
  6 35  1  0
  7 36  1  0
  8 37  1  0
  8 38  1  0
  9 39  1  0
 10 40  1  0
 10 41  1  0
 11 42  1  0
 11 43  1  0
 12 44  1  0
 12 45  1  0
 13 46  1  0
 13 47  1  0
 14 48  1  0
 14 49  1  0
 15 50  1  0
 15 51  1  0
 17 52  1  0
 17 53  1  0
 18 54  1  0
 18 55  1  0
 19 56  1  0
 19 57  1  0
 20 58  1  0
 20 59  1  0
 22 60  1  0
 23 61  1  0
 24 62  1  0
 25 63  1  0
 26 64  1  0
 27 65  1  0
 28 66  1  0
 30 67  1  0
M  END
$$$$
