
     RDKit          3D

 47 50  0  0  0  0  0  0  0  0999 V2000
   -4.8255   -1.7471    2.1780 O   0  0  0  0  0  0  0  0  0  0  0  0
   -3.9819   -1.1145    1.5468 C   0  0  0  0  0  0  0  0  0  0  0  0
   -4.3299   -0.1109    0.6547 N   0  0  0  0  0  0  0  0  0  0  0  0
   -5.7100    0.1666    0.3004 C   0  0  0  0  0  0  0  0  0  0  0  0
   -6.2182   -0.7819   -0.7828 C   0  0  0  0  0  0  0  0  0  0  0  0
   -5.6772   -0.1978   -2.0846 C   0  0  0  0  0  0  0  0  0  0  0  0
   -5.4897    1.2981   -1.8303 C   0  0  0  0  0  0  0  0  0  0  0  0
   -5.8515    1.5321   -0.3645 C   0  0  0  0  0  0  0  0  0  0  0  0
   -2.5532   -1.3354    1.6386 C   0  0  0  0  0  0  0  0  0  0  0  0
   -1.6146   -0.7045    0.9597 N   0  0  0  0  0  0  0  0  0  0  0  0
   -0.4625   -1.3062    1.4263 C   0  0  0  0  0  0  0  0  0  0  0  0
    0.8624   -0.9230    0.9493 C   0  0  0  0  0  0  0  0  0  0  0  0
    1.0087    0.0919   -0.0006 C   0  0  0  0  0  0  0  0  0  0  0  0
    2.2802    0.4608   -0.4589 C   0  0  0  0  0  0  0  0  0  0  0  0
    3.4470   -0.1655    0.0079 C   0  0  0  0  0  0  0  0  0  0  0  0
    4.6893    0.2474   -0.4866 N   0  0  0  0  0  0  0  0  0  0  0  0
    5.8616   -0.6489   -0.3983 C   0  0  0  0  0  0  0  0  0  0  0  0
    6.8295   -0.1644    0.6905 C   0  0  0  0  0  0  0  0  0  0  0  0
    7.3468    1.1562    0.4521 O   0  0  0  0  0  0  0  0  0  0  0  0
    6.4939    1.9574   -0.3812 C   0  0  0  0  0  0  0  0  0  0  0  0
    4.9981    1.6674   -0.1766 C   0  0  0  0  0  0  0  0  0  0  0  0
    3.2862   -1.1815    0.9578 C   0  0  0  0  0  0  0  0  0  0  0  0
    2.0166   -1.5554    1.4242 C   0  0  0  0  0  0  0  0  0  0  0  0
   -0.6803   -2.2621    2.3460 N   0  0  0  0  0  0  0  0  0  0  0  0
   -2.0677   -2.2824    2.4864 O   0  0  0  0  0  0  0  0  0  0  0  0
   -3.5762    0.2757    0.0939 H   0  0  0  0  0  0  0  0  0  0  0  0
   -6.3204    0.0959    1.2070 H   0  0  0  0  0  0  0  0  0  0  0  0
   -7.3148   -0.7616   -0.8061 H   0  0  0  0  0  0  0  0  0  0  0  0
   -5.9035   -1.8204   -0.6407 H   0  0  0  0  0  0  0  0  0  0  0  0
   -4.7122   -0.6545   -2.3337 H   0  0  0  0  0  0  0  0  0  0  0  0
   -6.3556   -0.3883   -2.9223 H   0  0  0  0  0  0  0  0  0  0  0  0
   -6.1182    1.9030   -2.4920 H   0  0  0  0  0  0  0  0  0  0  0  0
   -4.4481    1.5812   -2.0202 H   0  0  0  0  0  0  0  0  0  0  0  0
   -6.8949    1.8652   -0.3020 H   0  0  0  0  0  0  0  0  0  0  0  0
   -5.2250    2.3046    0.0928 H   0  0  0  0  0  0  0  0  0  0  0  0
    0.1377    0.6051   -0.4017 H   0  0  0  0  0  0  0  0  0  0  0  0
    2.3522    1.2375   -1.2169 H   0  0  0  0  0  0  0  0  0  0  0  0
    6.3718   -0.6110   -1.3691 H   0  0  0  0  0  0  0  0  0  0  0  0
    5.5873   -1.6979   -0.2465 H   0  0  0  0  0  0  0  0  0  0  0  0
    7.6870   -0.8409    0.7611 H   0  0  0  0  0  0  0  0  0  0  0  0
    6.3367   -0.1542    1.6693 H   0  0  0  0  0  0  0  0  0  0  0  0
    6.7075    3.0068   -0.1539 H   0  0  0  0  0  0  0  0  0  0  0  0
    6.7824    1.7852   -1.4248 H   0  0  0  0  0  0  0  0  0  0  0  0
    4.4145    2.3308   -0.8242 H   0  0  0  0  0  0  0  0  0  0  0  0
    4.7429    1.8826    0.8696 H   0  0  0  0  0  0  0  0  0  0  0  0
    4.1435   -1.6938    1.3830 H   0  0  0  0  0  0  0  0  0  0  0  0
    1.9473   -2.3475    2.1678 H   0  0  0  0  0  0  0  0  0  0  0  0
  1  2  2  0
  2  3  1  0
  3  4  1  0
  4  5  1  0
  5  6  1  0
  6  7  1  0
  7  8  1  0
  2  9  1  0
  9 10  2  0
 10 11  1  0
 11 12  1  0
 12 13  2  0
 13 14  1  0
 14 15  2  0
 15 16  1  0
 16 17  1  0
 17 18  1  0
 18 19  1  0
 19 20  1  0
 20 21  1  0
 15 22  1  0
 22 23  2  0
 11 24  2  0
 24 25  1  0
  8  4  1  0
 25  9  1  0
 23 12  1  0
 21 16  1  0
  3 26  1  0
  4 27  1  0
  5 28  1  0
  5 29  1  0
  6 30  1  0
  6 31  1  0
  7 32  1  0
  7 33  1  0
  8 34  1  0
  8 35  1  0
 13 36  1  0
 14 37  1  0
 17 38  1  0
 17 39  1  0
 18 40  1  0
 18 41  1  0
 20 42  1  0
 20 43  1  0
 21 44  1  0
 21 45  1  0
 22 46  1  0
 23 47  1  0
M  END
$$$$
