
     RDKit          3D

 42 44  0  0  0  0  0  0  0  0999 V2000
   -4.9849    3.7802    2.7848 O   0  0  0  0  0  0  0  0  0  0  0  0
   -4.1019    3.0305    2.3954 C   0  0  0  0  0  0  0  0  0  0  0  0
   -2.8032    3.3691    2.5556 O   0  0  0  0  0  0  0  0  0  0  0  0
   -4.3144    1.6783    1.7306 C   0  0  0  0  0  0  0  0  0  0  0  0
   -3.0708    1.0126    1.3852 N   0  0  0  0  0  0  0  0  0  0  0  0
   -3.0410   -0.1514    0.6728 C   0  0  0  0  0  0  0  0  0  0  0  0
   -4.0705   -0.6755    0.2438 O   0  0  0  0  0  0  0  0  0  0  0  0
   -1.6974   -0.7663    0.4105 C   0  0  0  0  0  0  0  0  0  0  0  0
   -1.6467   -1.8878   -0.3370 C   0  0  0  0  0  0  0  0  0  0  0  0
   -2.7566   -2.5256   -0.8737 O   0  0  0  0  0  0  0  0  0  0  0  0
   -0.3623   -2.5294   -0.6552 C   0  0  0  0  0  0  0  0  0  0  0  0
   -0.3256   -3.7163   -1.4142 C   0  0  0  0  0  0  0  0  0  0  0  0
    0.8822   -4.3314   -1.7322 C   0  0  0  0  0  0  0  0  0  0  0  0
    2.0698   -3.7678   -1.2892 C   0  0  0  0  0  0  0  0  0  0  0  0
    2.0469   -2.5933   -0.5301 C   0  0  0  0  0  0  0  0  0  0  0  0
    0.8380   -1.9529   -0.2072 C   0  0  0  0  0  0  0  0  0  0  0  0
    0.7831   -0.7551    0.5742 N   0  0  0  0  0  0  0  0  0  0  0  0
    2.0062   -0.0610    0.9942 C   0  0  0  0  0  0  0  0  0  0  0  0
    2.5171    0.9220   -0.0418 C   0  0  0  0  0  0  0  0  0  0  0  0
    1.8691    2.1539   -0.2304 C   0  0  0  0  0  0  0  0  0  0  0  0
    2.3221    3.0610   -1.1918 C   0  0  0  0  0  0  0  0  0  0  0  0
    3.4289    2.7470   -1.9810 C   0  0  0  0  0  0  0  0  0  0  0  0
    4.0895    1.5339   -1.7993 C   0  0  0  0  0  0  0  0  0  0  0  0
    3.6397    0.6290   -0.8333 C   0  0  0  0  0  0  0  0  0  0  0  0
   -0.4315   -0.1731    0.9343 C   0  0  0  0  0  0  0  0  0  0  0  0
   -0.4945    0.8202    1.6663 O   0  0  0  0  0  0  0  0  0  0  0  0
   -2.8338    4.2423    3.0018 H   0  0  0  0  0  0  0  0  0  0  0  0
   -4.9007    1.8160    0.8147 H   0  0  0  0  0  0  0  0  0  0  0  0
   -4.8583    1.0288    2.4273 H   0  0  0  0  0  0  0  0  0  0  0  0
   -2.2016    1.4075    1.7564 H   0  0  0  0  0  0  0  0  0  0  0  0
   -3.5652   -2.0351   -0.5971 H   0  0  0  0  0  0  0  0  0  0  0  0
   -1.2492   -4.1732   -1.7670 H   0  0  0  0  0  0  0  0  0  0  0  0
    0.8900   -5.2471   -2.3195 H   0  0  0  0  0  0  0  0  0  0  0  0
    3.0179   -4.2431   -1.5289 H   0  0  0  0  0  0  0  0  0  0  0  0
    3.0065   -2.2150   -0.1998 H   0  0  0  0  0  0  0  0  0  0  0  0
    2.7796   -0.7805    1.2818 H   0  0  0  0  0  0  0  0  0  0  0  0
    1.8149    0.4980    1.9197 H   0  0  0  0  0  0  0  0  0  0  0  0
    1.0037    2.4218    0.3752 H   0  0  0  0  0  0  0  0  0  0  0  0
    1.8011    4.0039   -1.3326 H   0  0  0  0  0  0  0  0  0  0  0  0
    3.7732    3.4448   -2.7393 H   0  0  0  0  0  0  0  0  0  0  0  0
    4.9500    1.2864   -2.4181 H   0  0  0  0  0  0  0  0  0  0  0  0
    4.1804   -0.3065   -0.7110 H   0  0  0  0  0  0  0  0  0  0  0  0
  1  2  2  0
  2  3  1  0
  2  4  1  0
  4  5  1  0
  5  6  1  0
  6  7  2  0
  6  8  1  0
  8  9  2  0
  9 10  1  0
  9 11  1  0
 11 12  2  0
 12 13  1  0
 13 14  2  0
 14 15  1  0
 15 16  2  0
 16 17  1  0
 17 18  1  0
 18 19  1  0
 19 20  2  0
 20 21  1  0
 21 22  2  0
 22 23  1  0
 23 24  2  0
 17 25  1  0
 25 26  2  0
 25  8  1  0
 16 11  1  0
 24 19  1  0
  3 27  1  0
  4 28  1  0
  4 29  1  0
  5 30  1  0
 10 31  1  0
 12 32  1  0
 13 33  1  0
 14 34  1  0
 15 35  1  0
 18 36  1  0
 18 37  1  0
 20 38  1  0
 21 39  1  0
 22 40  1  0
 23 41  1  0
 24 42  1  0
M  END
$$$$
