
     RDKit          3D

 33 34  0  0  0  0  0  0  0  0999 V2000
   -3.7839   -1.3029    1.5176 C   0  0  0  0  0  0  0  0  0  0  0  0
   -3.3926   -0.0937    0.6676 C   0  0  0  0  0  0  0  0  0  0  0  0
   -4.5142    0.2237   -0.3080 C   0  0  0  0  0  0  0  0  0  0  0  0
   -4.6002   -0.0851   -1.4850 O   0  0  0  0  0  0  0  0  0  0  0  0
   -5.5250    0.9016    0.2800 O   0  0  0  0  0  0  0  0  0  0  0  0
   -2.0422   -0.2953   -0.0054 C   0  0  0  0  0  0  0  0  0  0  0  0
   -1.8186   -1.3356   -0.9209 C   0  0  0  0  0  0  0  0  0  0  0  0
   -0.5738   -1.4955   -1.5339 C   0  0  0  0  0  0  0  0  0  0  0  0
    0.4736   -0.6258   -1.2328 C   0  0  0  0  0  0  0  0  0  0  0  0
    0.2780    0.4015   -0.3049 C   0  0  0  0  0  0  0  0  0  0  0  0
    1.3596    1.3597    0.0397 C   0  0  0  0  0  0  0  0  0  0  0  0
    1.0692    2.5260    0.2948 O   0  0  0  0  0  0  0  0  0  0  0  0
    2.7835    0.9423    0.0864 C   0  0  0  0  0  0  0  0  0  0  0  0
    3.7612    1.8618   -0.3109 C   0  0  0  0  0  0  0  0  0  0  0  0
    5.1107    1.5089   -0.2694 C   0  0  0  0  0  0  0  0  0  0  0  0
    5.4866    0.2435    0.1807 C   0  0  0  0  0  0  0  0  0  0  0  0
    4.5165   -0.6681    0.5985 C   0  0  0  0  0  0  0  0  0  0  0  0
    3.1648   -0.3196    0.5586 C   0  0  0  0  0  0  0  0  0  0  0  0
   -0.9792    0.5739    0.2911 C   0  0  0  0  0  0  0  0  0  0  0  0
   -4.7076   -1.1052    2.0729 H   0  0  0  0  0  0  0  0  0  0  0  0
   -3.9624   -2.1924    0.9029 H   0  0  0  0  0  0  0  0  0  0  0  0
   -2.9999   -1.5455    2.2433 H   0  0  0  0  0  0  0  0  0  0  0  0
   -3.3068    0.7760    1.3334 H   0  0  0  0  0  0  0  0  0  0  0  0
   -6.1674    1.0399   -0.4478 H   0  0  0  0  0  0  0  0  0  0  0  0
   -2.6242   -2.0181   -1.1876 H   0  0  0  0  0  0  0  0  0  0  0  0
   -0.4283   -2.2920   -2.2599 H   0  0  0  0  0  0  0  0  0  0  0  0
    1.4245   -0.7496   -1.7441 H   0  0  0  0  0  0  0  0  0  0  0  0
    3.4718    2.8539   -0.6519 H   0  0  0  0  0  0  0  0  0  0  0  0
    5.8678    2.2238   -0.5819 H   0  0  0  0  0  0  0  0  0  0  0  0
    6.5389   -0.0283    0.2168 H   0  0  0  0  0  0  0  0  0  0  0  0
    4.8151   -1.6474    0.9649 H   0  0  0  0  0  0  0  0  0  0  0  0
    2.4258   -1.0326    0.9145 H   0  0  0  0  0  0  0  0  0  0  0  0
   -1.1212    1.3962    0.9917 H   0  0  0  0  0  0  0  0  0  0  0  0
  1  2  1  0
  2  3  1  0
  3  4  2  0
  3  5  1  0
  2  6  1  0
  6  7  2  0
  7  8  1  0
  8  9  2  0
  9 10  1  0
 10 11  1  0
 11 12  2  0
 11 13  1  0
 13 14  2  0
 14 15  1  0
 15 16  2  0
 16 17  1  0
 17 18  2  0
 10 19  2  0
 19  6  1  0
 18 13  1  0
  1 20  1  0
  1 21  1  0
  1 22  1  0
  2 23  1  0
  5 24  1  0
  7 25  1  0
  8 26  1  0
  9 27  1  0
 14 28  1  0
 15 29  1  0
 16 30  1  0
 17 31  1  0
 18 32  1  0
 19 33  1  0
M  END
$$$$
