
     RDKit          3D

 59 62  0  0  0  0  0  0  0  0999 V2000
    8.6058   -2.3876   -2.1207 C   0  0  0  0  0  0  0  0  0  0  0  0
    8.8867   -1.5856   -0.8540 C   0  0  0  0  0  0  0  0  0  0  0  0
    8.0981   -2.0795    0.2294 O   0  0  0  0  0  0  0  0  0  0  0  0
    6.9296   -1.4429    0.5373 C   0  0  0  0  0  0  0  0  0  0  0  0
    6.2403   -0.5485   -0.2801 C   0  0  0  0  0  0  0  0  0  0  0  0
    5.0462    0.0328    0.1730 C   0  0  0  0  0  0  0  0  0  0  0  0
    4.5263   -0.2713    1.4443 C   0  0  0  0  0  0  0  0  0  0  0  0
    3.3452    0.3932    1.8347 N   0  0  0  0  0  0  0  0  0  0  0  0
    2.6794    0.2939    3.0395 C   0  0  0  0  0  0  0  0  0  0  0  0
    2.9431   -0.4600    3.9761 O   0  0  0  0  0  0  0  0  0  0  0  0
    1.5015    1.2389    3.1564 C   0  0  0  0  0  0  0  0  0  0  0  0
    0.1972    0.4861    2.9435 C   0  0  0  0  0  0  0  0  0  0  0  0
   -0.2311    0.4942    1.5586 N   0  0  0  0  0  0  0  0  0  0  0  0
    0.4899   -0.1586    0.6315 N   0  0  0  0  0  0  0  0  0  0  0  0
   -0.1496   -0.0524   -0.5256 N   0  0  0  0  0  0  0  0  0  0  0  0
   -1.2726    0.6974   -0.3223 C   0  0  0  0  0  0  0  0  0  0  0  0
   -2.2636    1.1009   -1.2235 C   0  0  0  0  0  0  0  0  0  0  0  0
   -3.3139    1.8957   -0.7252 C   0  0  0  0  0  0  0  0  0  0  0  0
   -4.5381    2.5079   -1.8709 S   0  0  0  0  0  6  0  0  0  0  0  0
   -3.9242    2.5086   -3.1905 O   0  0  0  0  0  0  0  0  0  0  0  0
   -5.0932    3.7263   -1.2983 O   0  0  0  0  0  0  0  0  0  0  0  0
   -5.7352    1.3030   -1.8356 N   0  0  0  0  0  0  0  0  0  0  0  0
   -5.4364   -0.0040   -2.4662 C   0  0  0  0  0  0  0  0  0  0  0  0
   -6.7542   -0.7034   -2.7971 C   0  0  0  0  0  0  0  0  0  0  0  0
   -7.6763   -0.8670   -1.5766 C   0  0  0  0  0  0  0  0  0  0  0  0
   -7.1403   -0.1429   -0.3426 C   0  0  0  0  0  0  0  0  0  0  0  0
   -6.6673    1.2774   -0.6748 C   0  0  0  0  0  0  0  0  0  0  0  0
   -3.3580    2.3021    0.6197 C   0  0  0  0  0  0  0  0  0  0  0  0
   -2.3724    1.8905    1.5263 C   0  0  0  0  0  0  0  0  0  0  0  0
   -1.3442    1.0851    1.0157 C   0  0  0  0  0  0  0  0  0  0  0  0
    5.2033   -1.1898    2.2434 C   0  0  0  0  0  0  0  0  0  0  0  0
    6.3938   -1.7733    1.7894 C   0  0  0  0  0  0  0  0  0  0  0  0
    9.2771   -2.0842   -2.9343 H   0  0  0  0  0  0  0  0  0  0  0  0
    8.7347   -3.4616   -1.9352 H   0  0  0  0  0  0  0  0  0  0  0  0
    7.5741   -2.2463   -2.4545 H   0  0  0  0  0  0  0  0  0  0  0  0
    9.9322   -1.7393   -0.5660 H   0  0  0  0  0  0  0  0  0  0  0  0
    8.7731   -0.5049   -1.0158 H   0  0  0  0  0  0  0  0  0  0  0  0
    6.5942   -0.2799   -1.2769 H   0  0  0  0  0  0  0  0  0  0  0  0
    4.5346    0.7364   -0.4847 H   0  0  0  0  0  0  0  0  0  0  0  0
    2.9198    0.9746    1.1122 H   0  0  0  0  0  0  0  0  0  0  0  0
    1.5350    1.6446    4.1730 H   0  0  0  0  0  0  0  0  0  0  0  0
    1.6048    2.0926    2.4775 H   0  0  0  0  0  0  0  0  0  0  0  0
   -0.5956    0.9575    3.5292 H   0  0  0  0  0  0  0  0  0  0  0  0
    0.2535   -0.5634    3.2541 H   0  0  0  0  0  0  0  0  0  0  0  0
   -2.1953    0.8140   -2.2737 H   0  0  0  0  0  0  0  0  0  0  0  0
   -4.8278   -0.6248   -1.7932 H   0  0  0  0  0  0  0  0  0  0  0  0
   -4.8743    0.1326   -3.4042 H   0  0  0  0  0  0  0  0  0  0  0  0
   -7.2824   -0.1095   -3.5622 H   0  0  0  0  0  0  0  0  0  0  0  0
   -6.5412   -1.6786   -3.2627 H   0  0  0  0  0  0  0  0  0  0  0  0
   -8.6788   -0.4831   -1.8263 H   0  0  0  0  0  0  0  0  0  0  0  0
   -7.8028   -1.9368   -1.3424 H   0  0  0  0  0  0  0  0  0  0  0  0
   -7.9145   -0.1106    0.4417 H   0  0  0  0  0  0  0  0  0  0  0  0
   -6.2975   -0.7189    0.0682 H   0  0  0  0  0  0  0  0  0  0  0  0
   -6.2015    1.7077    0.2143 H   0  0  0  0  0  0  0  0  0  0  0  0
   -7.5350    1.9017   -0.9291 H   0  0  0  0  0  0  0  0  0  0  0  0
   -4.1532    2.9595    0.9666 H   0  0  0  0  0  0  0  0  0  0  0  0
   -2.3974    2.2083    2.5594 H   0  0  0  0  0  0  0  0  0  0  0  0
    4.8378   -1.4803    3.2217 H   0  0  0  0  0  0  0  0  0  0  0  0
    6.9103   -2.4850    2.4286 H   0  0  0  0  0  0  0  0  0  0  0  0
  1  2  1  0
  2  3  1  0
  3  4  1  0
  4  5  2  0
  5  6  1  0
  6  7  2  0
  7  8  1  0
  8  9  1  0
  9 10  2  0
  9 11  1  0
 11 12  1  0
 12 13  1  0
 13 14  1  0
 14 15  2  0
 15 16  1  0
 16 17  2  0
 17 18  1  0
 18 19  1  0
 19 20  2  0
 19 21  2  0
 19 22  1  0
 22 23  1  0
 23 24  1  0
 24 25  1  0
 25 26  1  0
 26 27  1  0
 18 28  2  0
 28 29  1  0
 29 30  2  0
  7 31  1  0
 31 32  2  0
 32  4  1  0
 30 13  1  0
 30 16  1  0
 27 22  1  0
  1 33  1  0
  1 34  1  0
  1 35  1  0
  2 36  1  0
  2 37  1  0
  5 38  1  0
  6 39  1  0
  8 40  1  0
 11 41  1  0
 11 42  1  0
 12 43  1  0
 12 44  1  0
 17 45  1  0
 23 46  1  0
 23 47  1  0
 24 48  1  0
 24 49  1  0
 25 50  1  0
 25 51  1  0
 26 52  1  0
 26 53  1  0
 27 54  1  0
 27 55  1  0
 28 56  1  0
 29 57  1  0
 31 58  1  0
 32 59  1  0
M  END
$$$$
