
     RDKit          3D

 64 68  0  0  0  0  0  0  0  0999 V2000
    8.9177   -2.5092    0.9612 C   0  0  0  0  0  0  0  0  0  0  0  0
    8.4945   -1.2437    0.2602 C   0  0  0  0  0  0  0  0  0  0  0  0
    9.3117   -0.5980   -0.3954 O   0  0  0  0  0  0  0  0  0  0  0  0
    7.1716   -0.8540    0.3999 N   0  0  0  0  0  0  0  0  0  0  0  0
    6.7065    0.3243   -0.3442 C   0  0  0  0  0  0  0  0  0  0  0  0
    5.9117   -0.1044   -1.5962 C   0  0  0  0  0  0  0  0  0  0  0  0
    4.7889   -1.0097   -1.2146 N   0  0  0  0  0  0  0  0  0  0  0  0
    3.5609   -0.4052   -0.9395 C   0  0  0  0  0  0  0  0  0  0  0  0
    2.7896   -0.6952    0.1951 C   0  0  0  0  0  0  0  0  0  0  0  0
    1.5524   -0.0744    0.4379 C   0  0  0  0  0  0  0  0  0  0  0  0
    1.0410    0.8499   -0.4656 C   0  0  0  0  0  0  0  0  0  0  0  0
   -0.1413    1.5250   -0.3534 O   0  0  0  0  0  0  0  0  0  0  0  0
   -0.9312    1.2660    0.8116 C   0  0  0  0  0  0  0  0  0  0  0  0
   -2.1939    2.1359    0.7424 C   0  0  2  0  0  0  0  0  0  0  0  0
   -3.0345    2.0009    1.9831 C   0  0  0  0  0  0  0  0  0  0  0  0
   -3.7774    0.8120    1.7286 O   0  0  0  0  0  0  0  0  0  0  0  0
   -4.0992    0.8631    0.3296 C   0  0  1  0  0  0  0  0  0  0  0  0
   -3.9986   -0.5477   -0.2952 C   0  0  0  0  0  0  0  0  0  0  0  0
   -5.0192   -1.4901    0.1072 N   0  0  0  0  0  0  0  0  0  0  0  0
   -4.9955   -2.2844    1.2190 C   0  0  0  0  0  0  0  0  0  0  0  0
   -6.1327   -3.0511    1.1305 C   0  0  0  0  0  0  0  0  0  0  0  0
   -6.8302   -2.7557   -0.0127 N   0  0  0  0  0  0  0  0  0  0  0  0
   -6.1329   -1.8182   -0.6120 C   0  0  0  0  0  0  0  0  0  0  0  0
   -5.4491    1.5296    0.0238 C   0  0  0  0  0  0  0  0  0  0  0  0
   -5.6122    2.1518   -1.2376 C   0  0  0  0  0  0  0  0  0  0  0  0
   -6.8155    2.7546   -1.6110 C   0  0  0  0  0  0  0  0  0  0  0  0
   -7.8901    2.7422   -0.7328 C   0  0  0  0  0  0  0  0  0  0  0  0
   -9.3741    3.4826   -1.1867 Cl  0  0  0  0  0  0  0  0  0  0  0  0
   -7.7705    2.1301    0.5091 C   0  0  0  0  0  0  0  0  0  0  0  0
   -6.5634    1.5243    0.8876 C   0  0  0  0  0  0  0  0  0  0  0  0
   -6.5649    0.7823    2.4487 Cl  0  0  0  0  0  0  0  0  0  0  0  0
   -3.0649    1.6702   -0.3025 O   0  0  0  0  0  0  0  0  0  0  0  0
    1.7735    1.1353   -1.6126 C   0  0  0  0  0  0  0  0  0  0  0  0
    3.0065    0.5129   -1.8454 C   0  0  0  0  0  0  0  0  0  0  0  0
    5.2495   -2.1830   -0.4350 C   0  0  0  0  0  0  0  0  0  0  0  0
    6.0806   -1.7562    0.7971 C   0  0  0  0  0  0  0  0  0  0  0  0
   10.0099   -2.5759    0.9580 H   0  0  0  0  0  0  0  0  0  0  0  0
    8.5149   -3.3784    0.4357 H   0  0  0  0  0  0  0  0  0  0  0  0
    8.5887   -2.5002    2.0032 H   0  0  0  0  0  0  0  0  0  0  0  0
    7.5470    0.9624   -0.6359 H   0  0  0  0  0  0  0  0  0  0  0  0
    6.0683    0.9051    0.3324 H   0  0  0  0  0  0  0  0  0  0  0  0
    5.5843    0.7853   -2.1419 H   0  0  0  0  0  0  0  0  0  0  0  0
    6.5740   -0.6586   -2.2737 H   0  0  0  0  0  0  0  0  0  0  0  0
    3.1325   -1.4054    0.9400 H   0  0  0  0  0  0  0  0  0  0  0  0
    1.0222   -0.3457    1.3442 H   0  0  0  0  0  0  0  0  0  0  0  0
   -0.3575    1.5336    1.7071 H   0  0  0  0  0  0  0  0  0  0  0  0
   -1.2004    0.2042    0.8368 H   0  0  0  0  0  0  0  0  0  0  0  0
   -1.9197    3.1753    0.5353 H   0  0  0  0  0  0  0  0  0  0  0  0
   -3.7371    2.8355    2.0882 H   0  0  0  0  0  0  0  0  0  0  0  0
   -2.4608    1.9070    2.9089 H   0  0  0  0  0  0  0  0  0  0  0  0
   -4.0216   -0.4863   -1.3914 H   0  0  0  0  0  0  0  0  0  0  0  0
   -3.0344   -1.0053   -0.0383 H   0  0  0  0  0  0  0  0  0  0  0  0
   -4.2122   -2.2314    1.9615 H   0  0  0  0  0  0  0  0  0  0  0  0
   -6.4840   -3.8008    1.8267 H   0  0  0  0  0  0  0  0  0  0  0  0
   -6.3891   -1.3523   -1.5549 H   0  0  0  0  0  0  0  0  0  0  0  0
   -4.7865    2.1758   -1.9499 H   0  0  0  0  0  0  0  0  0  0  0  0
   -6.9040    3.2275   -2.5857 H   0  0  0  0  0  0  0  0  0  0  0  0
   -8.6222    2.1162    1.1859 H   0  0  0  0  0  0  0  0  0  0  0  0
    1.3833    1.8387   -2.3439 H   0  0  0  0  0  0  0  0  0  0  0  0
    3.5156    0.7361   -2.7795 H   0  0  0  0  0  0  0  0  0  0  0  0
    5.8882   -2.7856   -1.0943 H   0  0  0  0  0  0  0  0  0  0  0  0
    4.4199   -2.8379   -0.1464 H   0  0  0  0  0  0  0  0  0  0  0  0
    5.4587   -1.2060    1.5118 H   0  0  0  0  0  0  0  0  0  0  0  0
    6.4568   -2.6457    1.3064 H   0  0  0  0  0  0  0  0  0  0  0  0
  1  2  1  0
  2  3  2  0
  2  4  1  0
  4  5  1  0
  5  6  1  0
  6  7  1  0
  7  8  1  0
  8  9  2  0
  9 10  1  0
 10 11  2  0
 11 12  1  0
 12 13  1  0
 13 14  1  0
 14 15  1  0
 15 16  1  0
 16 17  1  0
 17 18  1  6
 18 19  1  0
 19 20  1  0
 20 21  2  0
 21 22  1  0
 22 23  2  0
 17 24  1  0
 24 25  2  0
 25 26  1  0
 26 27  2  0
 27 28  1  0
 27 29  1  0
 29 30  2  0
 30 31  1  0
 17 32  1  0
 11 33  1  0
 33 34  2  0
  7 35  1  0
 35 36  1  0
 36  4  1  0
 34  8  1  0
 32 14  1  0
 23 19  1  0
 30 24  1  0
  1 37  1  0
  1 38  1  0
  1 39  1  0
  5 40  1  0
  5 41  1  0
  6 42  1  0
  6 43  1  0
  9 44  1  0
 10 45  1  0
 13 46  1  0
 13 47  1  0
 14 48  1  6
 15 49  1  0
 15 50  1  0
 18 51  1  0
 18 52  1  0
 20 53  1  0
 21 54  1  0
 23 55  1  0
 25 56  1  0
 26 57  1  0
 29 58  1  0
 33 59  1  0
 34 60  1  0
 35 61  1  0
 35 62  1  0
 36 63  1  0
 36 64  1  0
M  END
$$$$
