
     RDKit          3D

 52 54  0  0  0  0  0  0  0  0999 V2000
    1.9127   -0.8706   -2.1990 C   0  0  0  0  0  0  0  0  0  0  0  0
    0.4203   -0.9747   -2.3235 C   0  0  0  0  0  0  0  0  0  0  0  0
   -0.1139   -1.4060   -3.4768 C   0  0  0  0  0  0  0  0  0  0  0  0
   -1.5545   -1.5428   -3.7088 C   0  0  0  0  0  0  0  0  0  0  0  0
   -1.9877   -1.9410   -4.7832 O   0  0  0  0  0  0  0  0  0  0  0  0
   -2.3763   -1.1985   -2.6565 O   0  0  0  0  0  0  0  0  0  0  0  0
   -1.8664   -0.7447   -1.4157 C   0  0  0  0  0  0  0  0  0  0  0  0
   -2.8306   -0.4458   -0.4345 C   0  0  0  0  0  0  0  0  0  0  0  0
   -2.3910    0.0273    0.7975 C   0  0  0  0  0  0  0  0  0  0  0  0
   -1.0272    0.1585    1.0492 C   0  0  0  0  0  0  0  0  0  0  0  0
   -0.0800   -0.1349    0.0563 C   0  0  0  0  0  0  0  0  0  0  0  0
    1.2554   -0.0229    0.3552 O   0  0  0  0  0  0  0  0  0  0  0  0
    1.6177    1.2843    0.8194 C   0  0  0  0  0  0  0  0  0  0  0  0
    3.1332    1.4547    0.7326 C   0  0  0  0  0  0  0  0  0  0  0  0
    3.6688    2.5537    0.6185 O   0  0  0  0  0  0  0  0  0  0  0  0
    3.8428    0.2751    0.8336 N   0  0  0  0  0  0  0  0  0  0  0  0
    5.2872    0.2314    0.6554 C   0  0  1  0  0  0  0  0  0  0  0  0
    5.8463   -1.0618    1.2450 C   0  0  0  0  0  0  0  0  0  0  0  0
    5.6802    0.3871   -0.8261 C   0  0  0  0  0  0  0  0  0  0  0  0
    7.0925    0.4739   -0.9844 O   0  0  0  0  0  0  0  0  0  0  0  0
   -0.4821   -0.6124   -1.2061 C   0  0  0  0  0  0  0  0  0  0  0  0
   -3.2158    0.3676    1.8339 O   0  0  0  0  0  0  0  0  0  0  0  0
   -4.6209    0.4801    1.5420 C   0  0  0  0  0  0  0  0  0  0  0  0
   -4.9104    1.8897    1.0042 C   0  0  0  0  0  0  0  0  0  0  0  0
   -5.3432    0.3145    2.8875 C   0  0  0  0  0  0  0  0  0  0  0  0
   -5.0880   -0.6289    0.5894 C   0  0  0  0  0  0  0  0  0  0  0  0
   -4.2978   -0.6064   -0.7106 C   0  0  0  0  0  0  0  0  0  0  0  0
    2.2864   -1.5187   -1.3997 H   0  0  0  0  0  0  0  0  0  0  0  0
    2.2187    0.1634   -2.0115 H   0  0  0  0  0  0  0  0  0  0  0  0
    2.4223   -1.1843   -3.1177 H   0  0  0  0  0  0  0  0  0  0  0  0
    0.5005   -1.6835   -4.3264 H   0  0  0  0  0  0  0  0  0  0  0  0
   -0.7152    0.4809    2.0390 H   0  0  0  0  0  0  0  0  0  0  0  0
    1.3362    1.4145    1.8696 H   0  0  0  0  0  0  0  0  0  0  0  0
    1.1581    2.0584    0.1929 H   0  0  0  0  0  0  0  0  0  0  0  0
    3.3046   -0.5791    0.7178 H   0  0  0  0  0  0  0  0  0  0  0  0
    5.7192    1.0702    1.2169 H   0  0  0  0  0  0  0  0  0  0  0  0
    5.5626   -1.1623    2.2982 H   0  0  0  0  0  0  0  0  0  0  0  0
    6.9391   -1.0852    1.1877 H   0  0  0  0  0  0  0  0  0  0  0  0
    5.4564   -1.9384    0.7150 H   0  0  0  0  0  0  0  0  0  0  0  0
    5.3252   -0.4695   -1.4099 H   0  0  0  0  0  0  0  0  0  0  0  0
    5.2347    1.2853   -1.2670 H   0  0  0  0  0  0  0  0  0  0  0  0
    7.3681    1.3278   -0.6048 H   0  0  0  0  0  0  0  0  0  0  0  0
   -5.9761    2.0263    0.7936 H   0  0  0  0  0  0  0  0  0  0  0  0
   -4.3491    2.1038    0.0891 H   0  0  0  0  0  0  0  0  0  0  0  0
   -4.6011    2.6511    1.7297 H   0  0  0  0  0  0  0  0  0  0  0  0
   -6.4291    0.3991    2.7766 H   0  0  0  0  0  0  0  0  0  0  0  0
   -5.0078    1.0701    3.6077 H   0  0  0  0  0  0  0  0  0  0  0  0
   -5.1135   -0.6591    3.3363 H   0  0  0  0  0  0  0  0  0  0  0  0
   -6.1609   -0.5485    0.3772 H   0  0  0  0  0  0  0  0  0  0  0  0
   -4.9270   -1.6051    1.0689 H   0  0  0  0  0  0  0  0  0  0  0  0
   -4.6340    0.2190   -1.3487 H   0  0  0  0  0  0  0  0  0  0  0  0
   -4.4895   -1.5425   -1.2482 H   0  0  0  0  0  0  0  0  0  0  0  0
  1  2  1  0
  2  3  2  0
  3  4  1  0
  4  5  2  0
  4  6  1  0
  6  7  1  0
  7  8  2  0
  8  9  1  0
  9 10  2  0
 10 11  1  0
 11 12  1  0
 12 13  1  0
 13 14  1  0
 14 15  2  0
 14 16  1  0
 16 17  1  0
 17 18  1  0
 17 19  1  0
 19 20  1  0
 11 21  2  0
  9 22  1  0
 22 23  1  0
 23 24  1  0
 23 25  1  0
 23 26  1  0
 26 27  1  0
 21  2  1  0
 21  7  1  0
 27  8  1  0
  1 28  1  0
  1 29  1  0
  1 30  1  0
  3 31  1  0
 10 32  1  0
 13 33  1  0
 13 34  1  0
 16 35  1  0
 17 36  1  1
 18 37  1  0
 18 38  1  0
 18 39  1  0
 19 40  1  0
 19 41  1  0
 20 42  1  0
 24 43  1  0
 24 44  1  0
 24 45  1  0
 25 46  1  0
 25 47  1  0
 25 48  1  0
 26 49  1  0
 26 50  1  0
 27 51  1  0
 27 52  1  0
M  END
$$$$
