
     RDKit          3D

 53 54  0  0  0  0  0  0  0  0999 V2000
    6.4081    2.8532   -1.4662 C   0  0  0  0  0  0  0  0  0  0  0  0
    6.4462    1.3842   -1.3560 C   0  0  0  0  0  0  0  0  0  0  0  0
    7.4695    0.5613   -1.4328 N   0  0  0  0  0  0  0  0  0  0  0  0
    6.9625   -0.7099   -1.2373 N   0  0  0  0  0  0  0  0  0  0  0  0
    5.6620   -0.5720   -1.0656 C   0  0  0  0  0  0  0  0  0  0  0  0
    4.6844   -1.6214   -0.8299 C   0  0  0  0  0  0  0  0  0  0  0  0
    4.9676   -2.8114   -0.7199 O   0  0  0  0  0  0  0  0  0  0  0  0
    3.3823   -1.1584   -0.7410 N   0  0  0  0  0  0  0  0  0  0  0  0
    2.2055   -1.9546   -0.3535 C   0  0  0  0  0  0  0  0  0  0  0  0
    2.3342   -2.2923    1.1507 C   0  0  0  0  0  0  0  0  0  0  0  0
    2.0347   -3.2838   -1.1108 C   0  0  0  0  0  0  0  0  0  0  0  0
    0.9511   -1.0372   -0.6101 C   0  0  0  0  0  0  0  0  0  0  0  0
    0.1740   -0.8446    0.4006 N   0  0  0  0  0  0  0  0  0  0  0  0
   -0.9426   -0.0581    0.2657 C   0  0  0  0  0  0  0  0  0  0  0  0
   -1.7810    0.0635    1.5518 C   0  0  0  0  0  0  0  0  0  0  0  0
   -1.3041   -0.1698    2.6647 O   0  0  0  0  0  0  0  0  0  0  0  0
   -3.0967    0.4280    1.3776 N   0  0  0  0  0  0  0  0  0  0  0  0
   -3.8619    0.9598    2.4673 C   0  0  0  0  0  0  0  0  0  0  0  0
   -5.3180    1.1313    2.1077 C   0  0  0  0  0  0  0  0  0  0  0  0
   -6.3136    0.4355    2.8114 C   0  0  0  0  0  0  0  0  0  0  0  0
   -7.6599    0.6027    2.4814 C   0  0  0  0  0  0  0  0  0  0  0  0
   -8.0119    1.4643    1.4482 C   0  0  0  0  0  0  0  0  0  0  0  0
   -9.3057    1.6226    1.1354 F   0  0  0  0  0  0  0  0  0  0  0  0
   -7.0437    2.1605    0.7362 C   0  0  0  0  0  0  0  0  0  0  0  0
   -5.6979    1.9959    1.0663 C   0  0  0  0  0  0  0  0  0  0  0  0
   -1.3126    0.6175   -0.8519 C   0  0  0  0  0  0  0  0  0  0  0  0
   -2.3012    1.3904   -1.0680 O   0  0  0  0  0  1  0  0  0  0  0  0
   -0.3660    0.3919   -2.0255 C   0  0  0  0  0  0  0  0  0  0  0  0
   -0.5169    0.9619   -3.1145 O   0  0  0  0  0  0  0  0  0  0  0  0
    0.7090   -0.4775   -1.8399 N   0  0  0  0  0  0  0  0  0  0  0  0
    1.5486   -0.6110   -3.0215 C   0  0  0  0  0  0  0  0  0  0  0  0
    5.2591    0.7439   -1.1270 O   0  0  0  0  0  0  0  0  0  0  0  0
    0.0000    0.0000    0.0000 K   0  0  0  0  0 15  0  0  0  0  0  0
    7.3021    3.2242   -1.9752 H   0  0  0  0  0  0  0  0  0  0  0  0
    5.5326    3.1797   -2.0346 H   0  0  0  0  0  0  0  0  0  0  0  0
    6.3657    3.3057   -0.4724 H   0  0  0  0  0  0  0  0  0  0  0  0
    3.2676   -0.1504   -0.6827 H   0  0  0  0  0  0  0  0  0  0  0  0
    1.4601   -2.8442    1.5161 H   0  0  0  0  0  0  0  0  0  0  0  0
    2.4332   -1.3819    1.7546 H   0  0  0  0  0  0  0  0  0  0  0  0
    3.2174   -2.9077    1.3520 H   0  0  0  0  0  0  0  0  0  0  0  0
    2.1281   -3.1875   -2.1941 H   0  0  0  0  0  0  0  0  0  0  0  0
    1.0461   -3.7141   -0.9116 H   0  0  0  0  0  0  0  0  0  0  0  0
    2.7775   -4.0264   -0.7979 H   0  0  0  0  0  0  0  0  0  0  0  0
   -3.2503    0.8167    0.4361 H   0  0  0  0  0  0  0  0  0  0  0  0
   -3.4361    1.9306    2.7476 H   0  0  0  0  0  0  0  0  0  0  0  0
   -3.7478    0.2990    3.3341 H   0  0  0  0  0  0  0  0  0  0  0  0
   -6.0395   -0.2467    3.6131 H   0  0  0  0  0  0  0  0  0  0  0  0
   -8.4324    0.0627    3.0185 H   0  0  0  0  0  0  0  0  0  0  0  0
   -7.3320    2.8178   -0.0765 H   0  0  0  0  0  0  0  0  0  0  0  0
   -4.9367    2.5289    0.4955 H   0  0  0  0  0  0  0  0  0  0  0  0
    1.9864    0.3674   -3.2499 H   0  0  0  0  0  0  0  0  0  0  0  0
    0.9299   -0.9184   -3.8724 H   0  0  0  0  0  0  0  0  0  0  0  0
    2.3629   -1.3214   -2.9267 H   0  0  0  0  0  0  0  0  0  0  0  0
  1  2  1  0
  2  3  2  0
  3  4  1  0
  4  5  2  0
  5  6  1  0
  6  7  2  0
  6  8  1  0
  8  9  1  0
  9 10  1  0
  9 11  1  0
  9 12  1  0
 12 13  2  0
 13 14  1  0
 14 15  1  0
 15 16  2  0
 15 17  1  0
 17 18  1  0
 18 19  1  0
 19 20  2  0
 20 21  1  0
 21 22  2  0
 22 23  1  0
 22 24  1  0
 24 25  2  0
 14 26  2  0
 26 27  1  0
 26 28  1  0
 28 29  2  0
 28 30  1  0
 30 31  1  0
  5 32  1  0
 32  2  1  0
 30 12  1  0
 25 19  1  0
  1 34  1  0
  1 35  1  0
  1 36  1  0
  8 37  1  0
 10 38  1  0
 10 39  1  0
 10 40  1  0
 11 41  1  0
 11 42  1  0
 11 43  1  0
 17 44  1  0
 18 45  1  0
 18 46  1  0
 20 47  1  0
 21 48  1  0
 24 49  1  0
 25 50  1  0
 31 51  1  0
 31 52  1  0
 31 53  1  0
M  CHG  2  27  -1  33   1
M  END
$$$$
