
     RDKit          3D

 30 32  0  0  0  0  0  0  0  0999 V2000
    6.6974   -0.3017    0.5464 O   0  0  0  0  0  0  0  0  0  0  0  0
    5.3362   -0.2961    0.6037 C   0  0  0  0  0  0  0  0  0  0  0  0
    4.5652    0.1188   -0.4743 C   0  0  0  0  0  0  0  0  0  0  0  0
    3.1688    0.1089   -0.3702 C   0  0  0  0  0  0  0  0  0  0  0  0
    2.5318   -0.3199    0.8010 C   0  0  0  0  0  0  0  0  0  0  0  0
    1.1369   -0.3222    0.9891 N   0  0  0  0  0  0  0  0  0  0  0  0
    0.1543    0.3187    0.3134 C   0  0  0  0  0  0  0  0  0  0  0  0
   -1.0598   -0.1868    0.2503 N   0  0  0  0  0  0  0  0  0  0  0  0
   -1.9170    0.6562   -0.4494 C   0  0  0  0  0  0  0  0  0  0  0  0
   -3.3187    0.3179   -0.6895 C   0  0  0  0  0  0  0  0  0  0  0  0
   -3.8467   -0.8799   -0.2151 C   0  0  0  0  0  0  0  0  0  0  0  0
   -5.1863   -1.1696   -0.4628 C   0  0  0  0  0  0  0  0  0  0  0  0
   -5.9583   -0.2597   -1.1743 C   0  0  0  0  0  0  0  0  0  0  0  0
   -5.3563    0.9082   -1.6112 C   0  0  0  0  0  0  0  0  0  0  0  0
   -4.0602    1.2178   -1.3873 N   0  0  0  0  0  0  0  0  0  0  0  0
   -1.3365    1.8294   -0.8852 C   0  0  0  0  0  0  0  0  0  0  0  0
    0.3025    1.8828   -0.4071 S   0  0  0  0  0  0  0  0  0  0  0  0
    3.3403   -0.7292    1.8751 C   0  0  0  0  0  0  0  0  0  0  0  0
    4.7342   -0.7208    1.7784 C   0  0  0  0  0  0  0  0  0  0  0  0
    6.9720    0.0318   -0.3234 H   0  0  0  0  0  0  0  0  0  0  0  0
    5.0230    0.4480   -1.4017 H   0  0  0  0  0  0  0  0  0  0  0  0
    2.5940    0.4094   -1.2409 H   0  0  0  0  0  0  0  0  0  0  0  0
    0.8175   -1.1326    1.5081 H   0  0  0  0  0  0  0  0  0  0  0  0
   -3.2279   -1.5789    0.3390 H   0  0  0  0  0  0  0  0  0  0  0  0
   -5.6206   -2.0978   -0.1025 H   0  0  0  0  0  0  0  0  0  0  0  0
   -7.0041   -0.4555   -1.3835 H   0  0  0  0  0  0  0  0  0  0  0  0
   -5.9187    1.6502   -2.1712 H   0  0  0  0  0  0  0  0  0  0  0  0
   -1.7925    2.6388   -1.4378 H   0  0  0  0  0  0  0  0  0  0  0  0
    2.8858   -1.0478    2.8104 H   0  0  0  0  0  0  0  0  0  0  0  0
    5.3437   -1.0384    2.6193 H   0  0  0  0  0  0  0  0  0  0  0  0
  1  2  1  0
  2  3  2  0
  3  4  1  0
  4  5  2  0
  5  6  1  0
  6  7  1  0
  7  8  2  0
  8  9  1  0
  9 10  1  0
 10 11  2  0
 11 12  1  0
 12 13  2  0
 13 14  1  0
 14 15  2  0
  9 16  2  0
 16 17  1  0
  5 18  1  0
 18 19  2  0
 19  2  1  0
 17  7  1  0
 15 10  1  0
  1 20  1  0
  3 21  1  0
  4 22  1  0
  6 23  1  0
 11 24  1  0
 12 25  1  0
 13 26  1  0
 14 27  1  0
 16 28  1  0
 18 29  1  0
 19 30  1  0
M  END
$$$$
