
     RDKit          3D

 45 49  0  0  0  0  0  0  0  0999 V2000
    3.9512   -0.6427    1.3821 C   0  0  0  0  0  0  0  0  0  0  0  0
    4.6735    0.5560    0.7560 C   0  0  0  0  0  0  0  0  0  0  0  0
    4.1321    1.0196   -0.5941 C   0  0  0  0  0  0  0  0  0  0  0  0
    2.6731    1.2803   -0.5655 C   0  0  0  0  0  0  0  0  0  0  0  0
    2.1088    2.4508   -0.7462 N   0  0  0  0  0  0  0  0  0  0  0  0
    0.7602    2.2865   -0.6508 N   0  0  0  0  0  0  0  0  0  0  0  0
    0.4923    1.0140   -0.4162 C   0  0  0  0  0  0  0  0  0  0  0  0
   -0.9167    0.4767   -0.2282 C   0  0  0  0  0  0  0  0  0  0  0  0
   -1.9418    1.5730   -0.6728 C   0  0  0  0  0  0  0  0  0  0  0  0
   -3.3920    1.1028   -0.4775 C   0  0  0  0  0  0  0  0  0  0  0  0
   -3.6209    0.7809    1.0066 C   0  0  0  0  0  0  0  0  0  0  0  0
   -2.6481   -0.3185    1.4588 C   0  0  0  0  0  0  0  0  0  0  0  0
   -2.8799   -1.5793    0.6093 C   0  0  0  0  0  0  0  0  0  0  0  0
   -2.6576   -1.2635   -0.8798 C   0  0  0  0  0  0  0  0  0  0  0  0
   -3.6288   -0.1591   -1.3175 C   0  0  0  0  0  0  0  0  0  0  0  0
   -1.2085   -0.7831   -1.0816 C   0  0  0  0  0  0  0  0  0  0  0  0
   -1.2006    0.1703    1.2650 C   0  0  0  0  0  0  0  0  0  0  0  0
    1.6981    0.3336   -0.3512 N   0  0  0  0  0  0  0  0  0  0  0  0
    1.9038   -1.0757   -0.1014 C   0  0  0  0  0  0  0  0  0  0  0  0
    3.2854   -1.5600    0.3617 C   0  0  0  0  0  0  0  0  0  0  0  0
    3.2052   -0.2900    2.1054 H   0  0  0  0  0  0  0  0  0  0  0  0
    4.6841   -1.2169    1.9623 H   0  0  0  0  0  0  0  0  0  0  0  0
    5.7316    0.2973    0.6218 H   0  0  0  0  0  0  0  0  0  0  0  0
    4.6551    1.3867    1.4731 H   0  0  0  0  0  0  0  0  0  0  0  0
    4.6562    1.9401   -0.8802 H   0  0  0  0  0  0  0  0  0  0  0  0
    4.3642    0.2926   -1.3807 H   0  0  0  0  0  0  0  0  0  0  0  0
   -1.7882    2.4968   -0.0981 H   0  0  0  0  0  0  0  0  0  0  0  0
   -1.7818    1.8349   -1.7278 H   0  0  0  0  0  0  0  0  0  0  0  0
   -4.0827    1.8923   -0.7946 H   0  0  0  0  0  0  0  0  0  0  0  0
   -3.4760    1.6831    1.6135 H   0  0  0  0  0  0  0  0  0  0  0  0
   -4.6562    0.4543    1.1644 H   0  0  0  0  0  0  0  0  0  0  0  0
   -2.8194   -0.5491    2.5163 H   0  0  0  0  0  0  0  0  0  0  0  0
   -3.9005   -1.9511    0.7635 H   0  0  0  0  0  0  0  0  0  0  0  0
   -2.1990   -2.3775    0.9296 H   0  0  0  0  0  0  0  0  0  0  0  0
   -2.8323   -2.1652   -1.4776 H   0  0  0  0  0  0  0  0  0  0  0  0
   -3.4874    0.0653   -2.3818 H   0  0  0  0  0  0  0  0  0  0  0  0
   -4.6644   -0.5007   -1.1989 H   0  0  0  0  0  0  0  0  0  0  0  0
   -1.0275   -0.5745   -2.1443 H   0  0  0  0  0  0  0  0  0  0  0  0
   -0.5486   -1.6117   -0.8122 H   0  0  0  0  0  0  0  0  0  0  0  0
   -1.0293    1.0669    1.8760 H   0  0  0  0  0  0  0  0  0  0  0  0
   -0.5168   -0.5927    1.6510 H   0  0  0  0  0  0  0  0  0  0  0  0
    1.6461   -1.5999   -1.0282 H   0  0  0  0  0  0  0  0  0  0  0  0
    1.1870   -1.3720    0.6678 H   0  0  0  0  0  0  0  0  0  0  0  0
    3.9444   -1.7192   -0.4999 H   0  0  0  0  0  0  0  0  0  0  0  0
    3.1524   -2.5522    0.8120 H   0  0  0  0  0  0  0  0  0  0  0  0
  1  2  1  0
  2  3  1  0
  3  4  1  0
  4  5  2  0
  5  6  1  0
  6  7  2  0
  7  8  1  0
  8  9  1  0
  9 10  1  0
 10 11  1  0
 11 12  1  0
 12 13  1  0
 13 14  1  0
 14 15  1  0
 14 16  1  0
 12 17  1  0
  7 18  1  0
 18 19  1  0
 19 20  1  0
 20  1  1  0
 18  4  1  0
 16  8  1  0
 17  8  1  0
 15 10  1  0
  1 21  1  0
  1 22  1  0
  2 23  1  0
  2 24  1  0
  3 25  1  0
  3 26  1  0
  9 27  1  0
  9 28  1  0
 10 29  1  0
 11 30  1  0
 11 31  1  0
 12 32  1  0
 13 33  1  0
 13 34  1  0
 14 35  1  0
 15 36  1  0
 15 37  1  0
 16 38  1  0
 16 39  1  0
 17 40  1  0
 17 41  1  0
 19 42  1  0
 19 43  1  0
 20 44  1  0
 20 45  1  0
M  END
$$$$
