
     RDKit          3D

 37 39  0  0  0  0  0  0  0  0999 V2000
    1.3270   -0.8977    1.9531 O   0  0  0  0  0  0  0  0  0  0  0  0
    1.0089   -1.1729    0.8042 C   0  0  0  0  0  0  0  0  0  0  0  0
    1.9009   -1.7275   -0.0947 N   0  0  0  0  0  0  0  0  0  0  0  0
    3.2951   -1.8998    0.2566 C   0  0  0  0  0  0  0  0  0  0  0  0
    4.1174   -0.7309   -0.2203 C   0  0  0  0  0  0  0  0  0  0  0  0
    4.2149    0.4333    0.5561 C   0  0  0  0  0  0  0  0  0  0  0  0
    4.9537    1.5286    0.1037 C   0  0  0  0  0  0  0  0  0  0  0  0
    5.5978    1.4763   -1.1321 C   0  0  0  0  0  0  0  0  0  0  0  0
    5.4934    0.3257   -1.9068 C   0  0  0  0  0  0  0  0  0  0  0  0
    6.1004    0.2318   -3.1245 O   0  0  0  0  0  0  0  0  0  0  0  0
    4.7603   -0.7712   -1.4651 C   0  0  0  0  0  0  0  0  0  0  0  0
   -0.2258   -1.0194    0.2271 N   0  0  0  0  0  0  0  0  0  0  0  0
   -1.3395   -0.4558    0.7918 C   0  0  0  0  0  0  0  0  0  0  0  0
   -2.5030   -0.5085    0.1861 N   0  0  0  0  0  0  0  0  0  0  0  0
   -3.4648    0.1544    0.9394 C   0  0  0  0  0  0  0  0  0  0  0  0
   -4.8512    0.2287    0.4844 C   0  0  0  0  0  0  0  0  0  0  0  0
   -5.7724    1.1278    1.0280 C   0  0  0  0  0  0  0  0  0  0  0  0
   -7.0680    1.1317    0.5337 C   0  0  0  0  0  0  0  0  0  0  0  0
   -7.5014    0.3160   -0.4488 N   0  0  0  0  0  0  0  0  0  0  0  0
   -6.5972   -0.5409   -0.9656 C   0  0  0  0  0  0  0  0  0  0  0  0
   -5.2818   -0.6195   -0.5403 C   0  0  0  0  0  0  0  0  0  0  0  0
   -2.9887    0.6973    2.1177 C   0  0  0  0  0  0  0  0  0  0  0  0
   -1.3089    0.3882    2.2683 S   0  0  0  0  0  0  0  0  0  0  0  0
    1.7232   -1.5388   -1.0695 H   0  0  0  0  0  0  0  0  0  0  0  0
    3.6363   -2.8224   -0.2261 H   0  0  0  0  0  0  0  0  0  0  0  0
    3.4133   -2.0388    1.3371 H   0  0  0  0  0  0  0  0  0  0  0  0
    3.7074    0.4908    1.5188 H   0  0  0  0  0  0  0  0  0  0  0  0
    5.0216    2.4236    0.7171 H   0  0  0  0  0  0  0  0  0  0  0  0
    6.1671    2.3358   -1.4709 H   0  0  0  0  0  0  0  0  0  0  0  0
    6.5874    1.0559   -3.2897 H   0  0  0  0  0  0  0  0  0  0  0  0
    4.6969   -1.6545   -2.0953 H   0  0  0  0  0  0  0  0  0  0  0  0
   -0.4105   -1.4910   -0.6424 H   0  0  0  0  0  0  0  0  0  0  0  0
   -5.5089    1.8279    1.8117 H   0  0  0  0  0  0  0  0  0  0  0  0
   -7.8142    1.8162    0.9276 H   0  0  0  0  0  0  0  0  0  0  0  0
   -6.9678   -1.1854   -1.7575 H   0  0  0  0  0  0  0  0  0  0  0  0
   -4.6078   -1.3342   -1.0018 H   0  0  0  0  0  0  0  0  0  0  0  0
   -3.5112    1.2429    2.8888 H   0  0  0  0  0  0  0  0  0  0  0  0
  1  2  2  0
  2  3  1  0
  3  4  1  0
  4  5  1  0
  5  6  2  0
  6  7  1  0
  7  8  2  0
  8  9  1  0
  9 10  1  0
  9 11  2  0
  2 12  1  0
 12 13  1  0
 13 14  2  0
 14 15  1  0
 15 16  1  0
 16 17  2  0
 17 18  1  0
 18 19  2  0
 19 20  1  0
 20 21  2  0
 15 22  2  0
 22 23  1  0
 11  5  1  0
 23 13  1  0
 21 16  1  0
  3 24  1  0
  4 25  1  0
  4 26  1  0
  6 27  1  0
  7 28  1  0
  8 29  1  0
 10 30  1  0
 11 31  1  0
 12 32  1  0
 17 33  1  0
 18 34  1  0
 20 35  1  0
 21 36  1  0
 22 37  1  0
M  END
$$$$
