
     RDKit          3D

 62 65  0  0  0  0  0  0  0  0999 V2000
    9.6706   -0.1377    2.7778 C   0  0  0  0  0  0  0  0  0  0  0  0
    9.3354    0.0190    1.4013 O   0  0  0  0  0  0  0  0  0  0  0  0
    9.3262   -1.2285    0.7103 C   0  0  0  0  0  0  0  0  0  0  0  0
    8.0114   -2.0061    0.8449 C   0  0  0  0  0  0  0  0  0  0  0  0
    7.9425   -3.2193    0.6729 O   0  0  0  0  0  0  0  0  0  0  0  0
    6.9302   -1.2059    1.1382 N   0  0  0  0  0  0  0  0  0  0  0  0
    5.5847   -1.7028    1.2321 C   0  0  0  0  0  0  0  0  0  0  0  0
    4.8720   -1.3059   -0.0197 C   0  0  0  0  0  0  0  0  0  0  0  0
    3.9039   -0.3745   -0.0712 C   0  0  0  0  0  0  0  0  0  0  0  0
    3.1821    0.0025   -1.2936 C   0  0  0  0  0  0  0  0  0  0  0  0
    3.7850    0.0251   -2.5504 C   0  0  0  0  0  0  0  0  0  0  0  0
    3.0511    0.4046   -3.6809 C   0  0  0  0  0  0  0  0  0  0  0  0
    1.7183    0.7846   -3.6000 C   0  0  0  0  0  0  0  0  0  0  0  0
    1.0806    1.1207   -4.7241 N   0  0  0  0  0  0  0  0  0  0  0  0
   -0.2034    1.4719   -4.6018 C   0  0  0  0  0  0  0  0  0  0  0  0
   -0.9000    1.5347   -3.4642 N   0  0  0  0  0  0  0  0  0  0  0  0
   -0.2474    1.2114   -2.3334 C   0  0  0  0  0  0  0  0  0  0  0  0
   -0.9250    1.3042   -1.0856 N   0  0  0  0  0  0  0  0  0  0  0  0
   -2.3129    1.4195   -0.8453 C   0  0  0  0  0  0  0  0  0  0  0  0
   -2.7490    1.9927    0.3597 C   0  0  0  0  0  0  0  0  0  0  0  0
   -4.1080    2.0560    0.6760 C   0  0  0  0  0  0  0  0  0  0  0  0
   -5.0481    1.5100   -0.1982 C   0  0  0  0  0  0  0  0  0  0  0  0
   -6.3843    1.5930    0.1107 O   0  0  0  0  0  0  0  0  0  0  0  0
   -6.8843    0.7129    1.0395 C   0  0  0  0  0  0  0  0  0  0  0  0
   -6.2508   -0.4333    1.5106 C   0  0  0  0  0  0  0  0  0  0  0  0
   -6.9040   -1.2467    2.4372 C   0  0  0  0  0  0  0  0  0  0  0  0
   -8.1811   -0.8932    2.8684 C   0  0  0  0  0  0  0  0  0  0  0  0
   -8.9126   -1.7611    3.8500 C   0  0  0  0  0  0  0  0  0  0  0  0
   -8.8186    0.2121    2.4202 N   0  0  0  0  0  0  0  0  0  0  0  0
   -8.1593    0.9820    1.5193 C   0  0  0  0  0  0  0  0  0  0  0  0
   -4.6499    0.9355   -1.4102 C   0  0  0  0  0  0  0  0  0  0  0  0
   -5.6525    0.3479   -2.3603 C   0  0  0  0  0  0  0  0  0  0  0  0
   -3.2771    0.8695   -1.7032 C   0  0  0  0  0  0  0  0  0  0  0  0
    1.1019    0.8010   -2.3423 C   0  0  0  0  0  0  0  0  0  0  0  0
    1.8454    0.4040   -1.1969 C   0  0  0  0  0  0  0  0  0  0  0  0
    9.6394    0.8479    3.2502 H   0  0  0  0  0  0  0  0  0  0  0  0
   10.6852   -0.5419    2.8815 H   0  0  0  0  0  0  0  0  0  0  0  0
    8.9515   -0.7880    3.2838 H   0  0  0  0  0  0  0  0  0  0  0  0
   10.1599   -1.8610    1.0364 H   0  0  0  0  0  0  0  0  0  0  0  0
    9.4598   -1.0120   -0.3549 H   0  0  0  0  0  0  0  0  0  0  0  0
    7.1002   -0.2062    1.1985 H   0  0  0  0  0  0  0  0  0  0  0  0
    5.1304   -1.2550    2.1228 H   0  0  0  0  0  0  0  0  0  0  0  0
    5.5733   -2.7914    1.3468 H   0  0  0  0  0  0  0  0  0  0  0  0
    5.1658   -1.8546   -0.9131 H   0  0  0  0  0  0  0  0  0  0  0  0
    3.5973    0.1388    0.8387 H   0  0  0  0  0  0  0  0  0  0  0  0
    4.8296   -0.2497   -2.6757 H   0  0  0  0  0  0  0  0  0  0  0  0
    3.5384    0.4014   -4.6541 H   0  0  0  0  0  0  0  0  0  0  0  0
   -0.7295    1.7340   -5.5130 H   0  0  0  0  0  0  0  0  0  0  0  0
   -0.3903    1.9118   -0.4736 H   0  0  0  0  0  0  0  0  0  0  0  0
   -2.0326    2.4035    1.0667 H   0  0  0  0  0  0  0  0  0  0  0  0
   -4.4295    2.5201    1.6047 H   0  0  0  0  0  0  0  0  0  0  0  0
   -5.2609   -0.7189    1.1693 H   0  0  0  0  0  0  0  0  0  0  0  0
   -6.4223   -2.1447    2.8101 H   0  0  0  0  0  0  0  0  0  0  0  0
   -9.1303   -2.7366    3.3980 H   0  0  0  0  0  0  0  0  0  0  0  0
   -9.8632   -1.3005    4.1472 H   0  0  0  0  0  0  0  0  0  0  0  0
   -8.3069   -1.9074    4.7531 H   0  0  0  0  0  0  0  0  0  0  0  0
   -8.7072    1.8548    1.1748 H   0  0  0  0  0  0  0  0  0  0  0  0
   -5.2090    0.1582   -3.3427 H   0  0  0  0  0  0  0  0  0  0  0  0
   -6.4888    1.0362   -2.5133 H   0  0  0  0  0  0  0  0  0  0  0  0
   -6.0317   -0.5987   -1.9672 H   0  0  0  0  0  0  0  0  0  0  0  0
   -2.9594    0.3769   -2.6198 H   0  0  0  0  0  0  0  0  0  0  0  0
    1.3576    0.3832   -0.2240 H   0  0  0  0  0  0  0  0  0  0  0  0
  1  2  1  0
  2  3  1  0
  3  4  1  0
  4  5  2  0
  4  6  1  0
  6  7  1  0
  7  8  1  0
  8  9  2  0
  9 10  1  0
 10 11  2  0
 11 12  1  0
 12 13  2  0
 13 14  1  0
 14 15  2  0
 15 16  1  0
 16 17  2  0
 17 18  1  0
 18 19  1  0
 19 20  2  0
 20 21  1  0
 21 22  2  0
 22 23  1  0
 23 24  1  0
 24 25  2  0
 25 26  1  0
 26 27  2  0
 27 28  1  0
 27 29  1  0
 29 30  2  0
 22 31  1  0
 31 32  1  0
 31 33  2  0
 17 34  1  0
 34 35  2  0
 35 10  1  0
 34 13  1  0
 33 19  1  0
 30 24  1  0
  1 36  1  0
  1 37  1  0
  1 38  1  0
  3 39  1  0
  3 40  1  0
  6 41  1  0
  7 42  1  0
  7 43  1  0
  8 44  1  0
  9 45  1  0
 11 46  1  0
 12 47  1  0
 15 48  1  0
 18 49  1  0
 20 50  1  0
 21 51  1  0
 25 52  1  0
 26 53  1  0
 28 54  1  0
 28 55  1  0
 28 56  1  0
 30 57  1  0
 32 58  1  0
 32 59  1  0
 32 60  1  0
 33 61  1  0
 35 62  1  0
M  END
$$$$
