
     RDKit          3D

 54 57  0  0  0  0  0  0  0  0999 V2000
   -5.1281    1.7759    1.9985 C   0  0  0  0  0  0  0  0  0  0  0  0
   -5.9774    0.8829    1.0905 C   0  0  0  0  0  0  0  0  0  0  0  0
   -6.6800   -0.1957    1.9191 C   0  0  0  0  0  0  0  0  0  0  0  0
   -7.0157    1.7017    0.5202 O   0  0  0  0  0  0  0  0  0  0  0  0
   -5.1611    0.2587   -0.0697 C   0  0  0  0  0  0  0  0  0  0  0  0
   -4.0998   -0.6200    0.3959 N   0  0  0  0  0  0  0  0  0  0  0  0
   -2.8043   -0.2148    0.1309 C   0  0  0  0  0  0  0  0  0  0  0  0
   -2.4720    1.0781    0.1588 N   0  0  0  0  0  0  0  0  0  0  0  0
   -1.1792    1.3744   -0.0869 C   0  0  0  0  0  0  0  0  0  0  0  0
   -0.1923    0.4484   -0.3803 C   0  0  0  0  0  0  0  0  0  0  0  0
    1.1797    0.8717   -0.6514 C   0  0  0  0  0  0  0  0  0  0  0  0
    1.4908    1.7221   -1.6918 C   0  0  0  0  0  0  0  0  0  0  0  0
    2.8175    2.0411   -1.8219 C   0  0  0  0  0  0  0  0  0  0  0  0
    3.7735    1.5761   -1.0006 N   0  0  0  0  0  0  0  0  0  0  0  0
    3.3950    0.7600   -0.0092 C   0  0  0  0  0  0  0  0  0  0  0  0
    4.3075    0.2249    0.8953 N   0  0  0  0  0  0  0  0  0  0  0  0
    5.6880    0.3648    1.0758 C   0  0  0  0  0  0  0  0  0  0  0  0
    6.3053   -0.3517    2.1091 C   0  0  0  0  0  0  0  0  0  0  0  0
    7.6747   -0.2332    2.3003 C   0  0  0  0  0  0  0  0  0  0  0  0
    8.4700    0.5408    1.5403 N   0  0  0  0  0  0  0  0  0  0  0  0
    7.8584    1.2192    0.5504 C   0  0  0  0  0  0  0  0  0  0  0  0
    8.9082    2.1951   -0.3949 Cl  0  0  0  0  0  0  0  0  0  0  0  0
    6.5010    1.1675    0.2780 C   0  0  0  0  0  0  0  0  0  0  0  0
    2.1198    0.3912    0.1895 N   0  0  0  0  0  0  0  0  0  0  0  0
   -0.6404   -0.8678   -0.3872 C   0  0  0  0  0  0  0  0  0  0  0  0
    0.2567   -2.0413   -0.7170 C   0  0  0  0  0  0  0  0  0  0  0  0
    0.4890   -2.1516   -2.1994 C   0  0  0  0  0  0  0  0  0  0  0  0
    0.6878   -3.5072   -2.8315 C   0  0  0  0  0  0  0  0  0  0  0  0
   -0.5703   -2.7301   -3.1037 C   0  0  0  0  0  0  0  0  0  0  0  0
   -1.9382   -1.1959   -0.1397 N   0  0  0  0  0  0  0  0  0  0  0  0
   -4.3595    1.2079    2.5321 H   0  0  0  0  0  0  0  0  0  0  0  0
   -4.6395    2.5684    1.4207 H   0  0  0  0  0  0  0  0  0  0  0  0
   -5.7564    2.2813    2.7413 H   0  0  0  0  0  0  0  0  0  0  0  0
   -7.3192   -0.8198    1.2843 H   0  0  0  0  0  0  0  0  0  0  0  0
   -7.3399    0.2578    2.6680 H   0  0  0  0  0  0  0  0  0  0  0  0
   -5.9670   -0.8443    2.4381 H   0  0  0  0  0  0  0  0  0  0  0  0
   -6.5903    2.4861    0.1320 H   0  0  0  0  0  0  0  0  0  0  0  0
   -4.8038    1.0506   -0.7424 H   0  0  0  0  0  0  0  0  0  0  0  0
   -5.8441   -0.3318   -0.6954 H   0  0  0  0  0  0  0  0  0  0  0  0
   -4.1631   -1.5802    0.0746 H   0  0  0  0  0  0  0  0  0  0  0  0
   -0.9527    2.4370   -0.0295 H   0  0  0  0  0  0  0  0  0  0  0  0
    0.7474    2.1099   -2.3763 H   0  0  0  0  0  0  0  0  0  0  0  0
    3.1652    2.6986   -2.6137 H   0  0  0  0  0  0  0  0  0  0  0  0
    3.8073   -0.3498    1.5585 H   0  0  0  0  0  0  0  0  0  0  0  0
    5.7336   -0.9997    2.7653 H   0  0  0  0  0  0  0  0  0  0  0  0
    8.1776   -0.7760    3.0960 H   0  0  0  0  0  0  0  0  0  0  0  0
    6.1051    1.7515   -0.5424 H   0  0  0  0  0  0  0  0  0  0  0  0
    1.2119   -1.9685   -0.1880 H   0  0  0  0  0  0  0  0  0  0  0  0
   -0.2160   -2.9579   -0.3400 H   0  0  0  0  0  0  0  0  0  0  0  0
    1.1013   -1.3449   -2.5865 H   0  0  0  0  0  0  0  0  0  0  0  0
    0.6121   -4.3917   -2.2083 H   0  0  0  0  0  0  0  0  0  0  0  0
    1.4143   -3.5933   -3.6320 H   0  0  0  0  0  0  0  0  0  0  0  0
   -0.6946   -2.2913   -4.0870 H   0  0  0  0  0  0  0  0  0  0  0  0
   -1.4938   -3.0851   -2.6587 H   0  0  0  0  0  0  0  0  0  0  0  0
  1  2  1  0
  2  3  1  0
  2  4  1  0
  2  5  1  0
  5  6  1  0
  6  7  1  0
  7  8  2  0
  8  9  1  0
  9 10  2  0
 10 11  1  0
 11 12  2  0
 12 13  1  0
 13 14  2  0
 14 15  1  0
 15 16  1  0
 16 17  1  0
 17 18  2  0
 18 19  1  0
 19 20  2  0
 20 21  1  0
 21 22  1  0
 21 23  2  0
 15 24  2  0
 10 25  1  0
 25 26  1  0
 26 27  1  0
 27 28  1  0
 28 29  1  0
 25 30  2  0
 30  7  1  0
 24 11  1  0
 29 27  1  0
 23 17  1  0
  1 31  1  0
  1 32  1  0
  1 33  1  0
  3 34  1  0
  3 35  1  0
  3 36  1  0
  4 37  1  0
  5 38  1  0
  5 39  1  0
  6 40  1  0
  9 41  1  0
 12 42  1  0
 13 43  1  0
 16 44  1  0
 18 45  1  0
 19 46  1  0
 23 47  1  0
 26 48  1  0
 26 49  1  0
 27 50  1  0
 28 51  1  0
 28 52  1  0
 29 53  1  0
 29 54  1  0
M  END
$$$$
