
     RDKit          3D

 69 73  0  0  0  0  0  0  0  0999 V2000
    7.3371    1.5696   -0.6857 C   0  0  0  0  0  0  0  0  0  0  0  0
    7.6647    0.7513    0.5452 C   0  0  0  0  0  0  0  0  0  0  0  0
    7.8748   -1.0019    0.2340 S   0  0  0  0  0  6  0  0  0  0  0  0
    8.5394   -1.1936   -1.0368 O   0  0  0  0  0  0  0  0  0  0  0  0
    8.4243   -1.5752    1.4462 O   0  0  0  0  0  0  0  0  0  0  0  0
    6.3069   -1.5845    0.1620 N   0  0  0  0  0  0  0  0  0  0  0  0
    5.4323   -1.2952   -0.9182 C   0  0  0  0  0  0  0  0  0  0  0  0
    5.7824   -1.5875   -2.2463 C   0  0  0  0  0  0  0  0  0  0  0  0
    4.9123   -1.2906   -3.2974 C   0  0  0  0  0  0  0  0  0  0  0  0
    3.7019   -0.7121   -2.9744 C   0  0  0  0  0  0  0  0  0  0  0  0
    3.3198   -0.4334   -1.6560 C   0  0  0  0  0  0  0  0  0  0  0  0
    4.1874   -0.7284   -0.6170 C   0  0  0  0  0  0  0  0  0  0  0  0
    1.9821    0.1805   -1.7422 C   0  0  0  0  0  0  0  0  0  0  0  0
    1.1145    0.6330   -0.8094 C   0  0  0  0  0  0  0  0  0  0  0  0
   -0.0936    1.2838   -1.0855 N   0  0  0  0  0  0  0  0  0  0  0  0
   -1.3228    0.9182   -0.4786 C   0  0  0  0  0  0  0  0  0  0  0  0
   -2.2116    1.9281   -0.0981 C   0  0  0  0  0  0  0  0  0  0  0  0
   -3.4697    1.6137    0.4231 C   0  0  0  0  0  0  0  0  0  0  0  0
   -3.8813    0.2790    0.5331 C   0  0  0  0  0  0  0  0  0  0  0  0
   -5.2337   -0.0640    1.1282 C   0  0  0  0  0  0  0  0  0  0  0  0
   -5.9909   -1.0567    0.3468 N   0  0  0  0  0  0  0  0  0  0  0  0
   -6.4225   -0.5590   -0.9697 C   0  0  0  0  0  0  0  0  0  0  0  0
   -7.5772    0.4473   -0.9142 C   0  0  0  0  0  0  0  0  0  0  0  0
   -8.7568   -0.1112   -0.1285 C   0  0  0  0  0  0  0  0  0  0  0  0
   -8.3065   -0.6239    1.2350 C   0  0  0  0  0  0  0  0  0  0  0  0
   -7.1312   -1.5947    1.1020 C   0  0  0  0  0  0  0  0  0  0  0  0
   -3.0047   -0.7304    0.1151 C   0  0  0  0  0  0  0  0  0  0  0  0
   -1.7473   -0.4119   -0.4051 C   0  0  0  0  0  0  0  0  0  0  0  0
    1.4813    0.5886    0.6269 C   0  0  0  0  0  0  0  0  0  0  0  0
    1.2995   -0.5748    1.3909 C   0  0  0  0  0  0  0  0  0  0  0  0
    1.6696   -0.5986    2.7373 C   0  0  0  0  0  0  0  0  0  0  0  0
    2.2283    0.5358    3.3275 C   0  0  0  0  0  0  0  0  0  0  0  0
    2.4089    1.6989    2.5776 C   0  0  0  0  0  0  0  0  0  0  0  0
    2.0306    1.7278    1.2341 C   0  0  0  0  0  0  0  0  0  0  0  0
    1.6396    0.2525   -3.2109 C   0  0  0  0  0  0  0  0  0  0  0  0
    0.6307    0.7137   -3.7120 O   0  0  0  0  0  0  0  0  0  0  0  0
    2.7158   -0.3146   -3.8689 N   0  0  0  0  0  0  0  0  0  0  0  0
    7.2767    2.6301   -0.4228 H   0  0  0  0  0  0  0  0  0  0  0  0
    6.3808    1.2862   -1.1256 H   0  0  0  0  0  0  0  0  0  0  0  0
    8.1081    1.4585   -1.4543 H   0  0  0  0  0  0  0  0  0  0  0  0
    6.9074    0.8701    1.3285 H   0  0  0  0  0  0  0  0  0  0  0  0
    8.6228    1.0938    0.9571 H   0  0  0  0  0  0  0  0  0  0  0  0
    5.8991   -1.7821    1.0730 H   0  0  0  0  0  0  0  0  0  0  0  0
    6.7348   -2.0616   -2.4727 H   0  0  0  0  0  0  0  0  0  0  0  0
    5.1891   -1.5073   -4.3235 H   0  0  0  0  0  0  0  0  0  0  0  0
    3.9287   -0.5093    0.4109 H   0  0  0  0  0  0  0  0  0  0  0  0
   -0.2554    1.3505   -2.1019 H   0  0  0  0  0  0  0  0  0  0  0  0
   -1.9126    2.9688   -0.1895 H   0  0  0  0  0  0  0  0  0  0  0  0
   -4.1230    2.4219    0.7386 H   0  0  0  0  0  0  0  0  0  0  0  0
   -5.0215   -0.4705    2.1257 H   0  0  0  0  0  0  0  0  0  0  0  0
   -5.8183    0.8498    1.2877 H   0  0  0  0  0  0  0  0  0  0  0  0
   -5.5838   -0.1235   -1.5259 H   0  0  0  0  0  0  0  0  0  0  0  0
   -6.7402   -1.4230   -1.5682 H   0  0  0  0  0  0  0  0  0  0  0  0
   -7.9003    0.6901   -1.9342 H   0  0  0  0  0  0  0  0  0  0  0  0
   -7.2413    1.3857   -0.4588 H   0  0  0  0  0  0  0  0  0  0  0  0
   -9.5273    0.6582   -0.0072 H   0  0  0  0  0  0  0  0  0  0  0  0
   -9.2107   -0.9348   -0.6926 H   0  0  0  0  0  0  0  0  0  0  0  0
   -9.1423   -1.1294    1.7291 H   0  0  0  0  0  0  0  0  0  0  0  0
   -8.0289    0.2236    1.8727 H   0  0  0  0  0  0  0  0  0  0  0  0
   -7.4798   -2.5042    0.5941 H   0  0  0  0  0  0  0  0  0  0  0  0
   -6.8092   -1.9269    2.0965 H   0  0  0  0  0  0  0  0  0  0  0  0
   -3.3121   -1.7711    0.1766 H   0  0  0  0  0  0  0  0  0  0  0  0
   -1.1005   -1.2134   -0.7523 H   0  0  0  0  0  0  0  0  0  0  0  0
    0.8600   -1.4634    0.9440 H   0  0  0  0  0  0  0  0  0  0  0  0
    1.5122   -1.4985    3.3289 H   0  0  0  0  0  0  0  0  0  0  0  0
    2.5078    0.5192    4.3778 H   0  0  0  0  0  0  0  0  0  0  0  0
    2.8292    2.5866    3.0429 H   0  0  0  0  0  0  0  0  0  0  0  0
    2.1576    2.6433    0.6595 H   0  0  0  0  0  0  0  0  0  0  0  0
    2.7584   -0.3973   -4.8740 H   0  0  0  0  0  0  0  0  0  0  0  0
  1  2  1  0
  2  3  1  0
  3  4  2  0
  3  5  2  0
  3  6  1  0
  6  7  1  0
  7  8  2  0
  8  9  1  0
  9 10  2  0
 10 11  1  0
 11 12  2  0
 11 13  1  0
 13 14  2  0
 14 15  1  0
 15 16  1  0
 16 17  2  0
 17 18  1  0
 18 19  2  0
 19 20  1  0
 20 21  1  0
 21 22  1  0
 22 23  1  0
 23 24  1  0
 24 25  1  0
 25 26  1  0
 19 27  1  0
 27 28  2  0
 14 29  1  0
 29 30  2  0
 30 31  1  0
 31 32  2  0
 32 33  1  0
 33 34  2  0
 13 35  1  0
 35 36  2  0
 35 37  1  0
 12  7  1  0
 28 16  1  0
 34 29  1  0
 37 10  1  0
 26 21  1  0
  1 38  1  0
  1 39  1  0
  1 40  1  0
  2 41  1  0
  2 42  1  0
  6 43  1  0
  8 44  1  0
  9 45  1  0
 12 46  1  0
 15 47  1  0
 17 48  1  0
 18 49  1  0
 20 50  1  0
 20 51  1  0
 22 52  1  0
 22 53  1  0
 23 54  1  0
 23 55  1  0
 24 56  1  0
 24 57  1  0
 25 58  1  0
 25 59  1  0
 26 60  1  0
 26 61  1  0
 27 62  1  0
 28 63  1  0
 30 64  1  0
 31 65  1  0
 32 66  1  0
 33 67  1  0
 34 68  1  0
 37 69  1  0
M  END
$$$$
