
     RDKit          3D

 57 61  0  0  0  0  0  0  0  0999 V2000
   -2.2152    2.2362   -1.5940 C   0  0  0  0  0  0  0  0  0  0  0  0
   -3.1308    1.2750   -0.8783 C   0  0  0  0  0  0  0  0  0  0  0  0
   -4.3675    1.8104   -0.6117 N   0  0  0  0  0  0  0  0  0  0  0  0
   -5.2404    1.0593   -0.0285 C   0  0  0  0  0  0  0  0  0  0  0  0
   -5.0077   -0.2375    0.3586 N   0  0  0  0  0  0  0  0  0  0  0  0
   -3.7580   -0.7962    0.2173 C   0  0  0  0  0  0  0  0  0  0  0  0
   -3.4492   -1.8978    0.6665 O   0  0  0  0  0  0  0  0  0  0  0  0
   -2.7598    0.0314   -0.5166 C   0  0  0  0  0  0  0  0  0  0  0  0
   -1.4327   -0.6255   -0.8079 C   0  0  0  0  0  0  0  0  0  0  0  0
   -0.4560   -0.4809    0.3723 C   0  0  0  0  0  0  0  0  0  0  0  0
    0.8557   -1.1186    0.1251 N   0  0  0  0  0  0  0  0  0  0  0  0
    1.5800   -1.2556    1.4016 C   0  0  0  0  0  0  0  0  0  0  0  0
    2.9135   -1.9822    1.2164 C   0  0  0  0  0  0  0  0  0  0  0  0
    3.7980   -1.3668    0.1250 C   0  0  0  0  0  0  0  0  0  0  0  0
    4.6005   -0.1761    0.5794 C   0  0  0  0  0  0  0  0  0  0  0  0
    4.0514    0.8021    1.3140 N   0  0  0  0  0  0  0  0  0  0  0  0
    5.0562    1.7260    1.5365 O   0  0  0  0  0  0  0  0  0  0  0  0
    6.1994    1.3106    0.9322 C   0  0  0  0  0  0  0  0  0  0  0  0
    7.4172    1.9819    0.9316 C   0  0  0  0  0  0  0  0  0  0  0  0
    8.4480    1.3539    0.2366 C   0  0  0  0  0  0  0  0  0  0  0  0
    9.6513    1.9425    0.1911 F   0  0  0  0  0  0  0  0  0  0  0  0
    8.2703    0.1339   -0.4153 C   0  0  0  0  0  0  0  0  0  0  0  0
    7.0269   -0.5144   -0.3933 C   0  0  0  0  0  0  0  0  0  0  0  0
    5.9693    0.0987    0.3037 C   0  0  0  0  0  0  0  0  0  0  0  0
    2.9781   -1.0670   -1.1349 C   0  0  0  0  0  0  0  0  0  0  0  0
    1.6645   -0.3457   -0.8301 C   0  0  0  0  0  0  0  0  0  0  0  0
   -6.0480   -0.9522    1.0797 C   0  0  0  0  0  0  0  0  0  0  0  0
   -7.3986   -0.8214    0.3806 C   0  0  0  0  0  0  0  0  0  0  0  0
   -7.6834    0.5963   -0.1251 C   0  0  0  0  0  0  0  0  0  0  0  0
   -6.6160    1.6026    0.2849 C   0  0  0  0  0  0  0  0  0  0  0  0
   -2.2966    3.2362   -1.1525 H   0  0  0  0  0  0  0  0  0  0  0  0
   -2.4961    2.3056   -2.6501 H   0  0  0  0  0  0  0  0  0  0  0  0
   -1.1604    1.9564   -1.5342 H   0  0  0  0  0  0  0  0  0  0  0  0
   -1.5839   -1.6888   -1.0354 H   0  0  0  0  0  0  0  0  0  0  0  0
   -1.0093   -0.2048   -1.7251 H   0  0  0  0  0  0  0  0  0  0  0  0
   -0.3234    0.5779    0.6329 H   0  0  0  0  0  0  0  0  0  0  0  0
   -0.9231   -0.9583    1.2439 H   0  0  0  0  0  0  0  0  0  0  0  0
    1.7312   -0.2778    1.8737 H   0  0  0  0  0  0  0  0  0  0  0  0
    0.9793   -1.8512    2.1010 H   0  0  0  0  0  0  0  0  0  0  0  0
    3.4472   -2.0239    2.1739 H   0  0  0  0  0  0  0  0  0  0  0  0
    2.6973   -3.0229    0.9376 H   0  0  0  0  0  0  0  0  0  0  0  0
    4.5326   -2.1383   -0.1472 H   0  0  0  0  0  0  0  0  0  0  0  0
    7.5567    2.9285    1.4349 H   0  0  0  0  0  0  0  0  0  0  0  0
    9.1094   -0.3113   -0.9431 H   0  0  0  0  0  0  0  0  0  0  0  0
    6.8925   -1.4638   -0.9029 H   0  0  0  0  0  0  0  0  0  0  0  0
    2.7446   -2.0168   -1.6353 H   0  0  0  0  0  0  0  0  0  0  0  0
    3.5635   -0.4763   -1.8505 H   0  0  0  0  0  0  0  0  0  0  0  0
    1.8586    0.6679   -0.4587 H   0  0  0  0  0  0  0  0  0  0  0  0
    1.1342   -0.2377   -1.7817 H   0  0  0  0  0  0  0  0  0  0  0  0
   -6.1047   -0.5169    2.0847 H   0  0  0  0  0  0  0  0  0  0  0  0
   -5.7930   -2.0103    1.1981 H   0  0  0  0  0  0  0  0  0  0  0  0
   -8.1948   -1.1473    1.0599 H   0  0  0  0  0  0  0  0  0  0  0  0
   -7.4281   -1.5063   -0.4765 H   0  0  0  0  0  0  0  0  0  0  0  0
   -8.6651    0.9294    0.2302 H   0  0  0  0  0  0  0  0  0  0  0  0
   -7.7462    0.5695   -1.2207 H   0  0  0  0  0  0  0  0  0  0  0  0
   -6.6694    1.8075    1.3605 H   0  0  0  0  0  0  0  0  0  0  0  0
   -6.7704    2.5510   -0.2409 H   0  0  0  0  0  0  0  0  0  0  0  0
  1  2  1  0
  2  3  1  0
  3  4  2  0
  4  5  1  0
  5  6  1  0
  6  7  2  0
  6  8  1  0
  8  9  1  0
  9 10  1  0
 10 11  1  0
 11 12  1  0
 12 13  1  0
 13 14  1  0
 14 15  1  0
 15 16  2  0
 16 17  1  0
 17 18  1  0
 18 19  2  0
 19 20  1  0
 20 21  1  0
 20 22  2  0
 22 23  1  0
 23 24  2  0
 14 25  1  0
 25 26  1  0
  5 27  1  0
 27 28  1  0
 28 29  1  0
 29 30  1  0
  8  2  2  0
 26 11  1  0
 30  4  1  0
 24 15  1  0
 24 18  1  0
  1 31  1  0
  1 32  1  0
  1 33  1  0
  9 34  1  0
  9 35  1  0
 10 36  1  0
 10 37  1  0
 12 38  1  0
 12 39  1  0
 13 40  1  0
 13 41  1  0
 14 42  1  0
 19 43  1  0
 22 44  1  0
 23 45  1  0
 25 46  1  0
 25 47  1  0
 26 48  1  0
 26 49  1  0
 27 50  1  0
 27 51  1  0
 28 52  1  0
 28 53  1  0
 29 54  1  0
 29 55  1  0
 30 56  1  0
 30 57  1  0
M  END
$$$$
