
     RDKit          3D

 33 35  0  0  0  0  0  0  0  0999 V2000
    6.1123   -0.2040   -0.9560 C   0  0  0  0  0  0  0  0  0  0  0  0
    5.3977    0.7968   -0.2420 O   0  0  0  0  0  0  0  0  0  0  0  0
    4.0606    0.5854   -0.0518 C   0  0  0  0  0  0  0  0  0  0  0  0
    3.4071    1.5878    0.6668 C   0  0  0  0  0  0  0  0  0  0  0  0
    2.0373    1.4992    0.9350 C   0  0  0  0  0  0  0  0  0  0  0  0
    1.2945    0.3978    0.4904 C   0  0  0  0  0  0  0  0  0  0  0  0
   -0.1533    0.2864    0.7503 C   0  0  0  0  0  0  0  0  0  0  0  0
   -0.6759    0.5602    1.9521 C   0  0  0  0  0  0  0  0  0  0  0  0
   -2.1280    0.4266    2.1679 C   0  0  0  0  0  0  0  0  0  0  0  0
   -2.5844    0.6813    3.2740 O   0  0  0  0  0  0  0  0  0  0  0  0
   -2.9311   -0.0126    1.0032 C   0  0  0  0  0  0  0  0  0  0  0  0
   -4.3221   -0.1773    1.0458 C   0  0  0  0  0  0  0  0  0  0  0  0
   -5.0241    0.0650    2.1914 O   0  0  0  0  0  0  0  0  0  0  0  0
   -5.0184   -0.5944   -0.0916 C   0  0  0  0  0  0  0  0  0  0  0  0
   -4.3248   -0.8458   -1.2702 C   0  0  0  0  0  0  0  0  0  0  0  0
   -5.0458   -1.2492   -2.3544 O   0  0  0  0  0  0  0  0  0  0  0  0
   -2.9462   -0.6892   -1.3332 C   0  0  0  0  0  0  0  0  0  0  0  0
   -2.2535   -0.2722   -0.1927 C   0  0  0  0  0  0  0  0  0  0  0  0
   -0.8934   -0.1424   -0.3360 O   0  0  0  0  0  0  0  0  0  0  0  0
    1.9563   -0.6000   -0.2394 C   0  0  0  0  0  0  0  0  0  0  0  0
    3.3289   -0.5102   -0.5063 C   0  0  0  0  0  0  0  0  0  0  0  0
    5.7371   -0.3018   -1.9800 H   0  0  0  0  0  0  0  0  0  0  0  0
    6.0807   -1.1636   -0.4293 H   0  0  0  0  0  0  0  0  0  0  0  0
    7.1591    0.1096   -1.0137 H   0  0  0  0  0  0  0  0  0  0  0  0
    3.9690    2.4496    1.0194 H   0  0  0  0  0  0  0  0  0  0  0  0
    1.5618    2.3084    1.4847 H   0  0  0  0  0  0  0  0  0  0  0  0
   -0.0916    0.8730    2.8082 H   0  0  0  0  0  0  0  0  0  0  0  0
   -5.9702   -0.0963    2.0482 H   0  0  0  0  0  0  0  0  0  0  0  0
   -6.0962   -0.7269   -0.0766 H   0  0  0  0  0  0  0  0  0  0  0  0
   -4.4451   -1.3782   -3.1077 H   0  0  0  0  0  0  0  0  0  0  0  0
   -2.3979   -0.8830   -2.2498 H   0  0  0  0  0  0  0  0  0  0  0  0
    1.4084   -1.4672   -0.6029 H   0  0  0  0  0  0  0  0  0  0  0  0
    3.7911   -1.3129   -1.0709 H   0  0  0  0  0  0  0  0  0  0  0  0
  1  2  1  0
  2  3  1  0
  3  4  2  0
  4  5  1  0
  5  6  2  0
  6  7  1  0
  7  8  2  0
  8  9  1  0
  9 10  2  0
  9 11  1  0
 11 12  2  0
 12 13  1  0
 12 14  1  0
 14 15  2  0
 15 16  1  0
 15 17  1  0
 17 18  2  0
 18 19  1  0
  6 20  1  0
 20 21  2  0
 21  3  1  0
 19  7  1  0
 18 11  1  0
  1 22  1  0
  1 23  1  0
  1 24  1  0
  4 25  1  0
  5 26  1  0
  8 27  1  0
 13 28  1  0
 14 29  1  0
 16 30  1  0
 17 31  1  0
 20 32  1  0
 21 33  1  0
M  END
$$$$
