
     RDKit          3D

 46 49  0  0  0  0  0  0  0  0999 V2000
   -4.3555   -3.1750    0.8588 C   0  0  0  0  0  0  0  0  0  0  0  0
   -4.3545   -2.0465    1.8797 C   0  0  0  0  0  0  0  0  0  0  0  0
   -4.5189   -0.7362    1.2569 N   0  0  0  0  0  0  0  0  0  0  0  0
   -5.8063   -0.2187    1.1500 C   0  0  0  0  0  0  0  0  0  0  0  0
   -6.8170   -0.8103    1.5312 O   0  0  0  0  0  0  0  0  0  0  0  0
   -5.8820    1.2018    0.6067 C   0  0  0  0  0  0  0  0  0  0  0  0
   -4.9169    1.6188   -0.3368 O   0  0  0  0  0  0  0  0  0  0  0  0
   -3.6697    1.1088   -0.1017 C   0  0  0  0  0  0  0  0  0  0  0  0
   -2.6259    1.7910   -0.7389 C   0  0  0  0  0  0  0  0  0  0  0  0
   -1.3038    1.3531   -0.6129 C   0  0  0  0  0  0  0  0  0  0  0  0
   -0.2061    2.0608   -1.2639 C   0  0  0  0  0  0  0  0  0  0  0  0
   -0.3638    3.1681   -2.0082 N   0  0  0  0  0  0  0  0  0  0  0  0
    0.9318    3.4847   -2.4166 O   0  0  0  0  0  0  0  0  0  0  0  0
    1.7465    2.5383   -1.8761 C   0  0  0  0  0  0  0  0  0  0  0  0
    3.1734    2.5877   -2.1238 C   0  0  0  0  0  0  0  0  0  0  0  0
    3.7281    3.4281   -2.8278 O   0  0  0  0  0  0  0  0  0  0  0  0
    3.8793    1.5749   -1.4923 N   0  0  0  0  0  0  0  0  0  0  0  0
    5.2710    1.3024   -1.8007 C   0  0  0  0  0  0  0  0  0  0  0  0
    6.0002    0.5812   -0.6641 C   0  0  0  0  0  0  0  0  0  0  0  0
    5.4146   -0.7693   -0.3554 C   0  0  0  0  0  0  0  0  0  0  0  0
    4.5847   -1.1187    0.6922 C   0  0  0  0  0  0  0  0  0  0  0  0
    4.2253   -2.4968    0.6617 C   0  0  0  0  0  0  0  0  0  0  0  0
    4.7989   -3.1552   -0.4025 C   0  0  0  0  0  0  0  0  0  0  0  0
    5.7659   -2.1161   -1.3547 S   0  0  0  0  0  0  0  0  0  0  0  0
    1.1033    1.6369   -1.1590 N   0  0  0  0  0  0  0  0  0  0  0  0
   -1.0543    0.2092    0.1539 C   0  0  0  0  0  0  0  0  0  0  0  0
   -2.1020   -0.4820    0.7789 C   0  0  0  0  0  0  0  0  0  0  0  0
   -3.4265   -0.0415    0.6624 C   0  0  0  0  0  0  0  0  0  0  0  0
   -3.5269   -3.0762    0.1508 H   0  0  0  0  0  0  0  0  0  0  0  0
   -4.2591   -4.1418    1.3625 H   0  0  0  0  0  0  0  0  0  0  0  0
   -5.2867   -3.1812    0.2827 H   0  0  0  0  0  0  0  0  0  0  0  0
   -3.4496   -2.0656    2.4945 H   0  0  0  0  0  0  0  0  0  0  0  0
   -5.1810   -2.2159    2.5805 H   0  0  0  0  0  0  0  0  0  0  0  0
   -6.8605    1.3131    0.1261 H   0  0  0  0  0  0  0  0  0  0  0  0
   -5.8583    1.8890    1.4613 H   0  0  0  0  0  0  0  0  0  0  0  0
   -2.8631    2.6702   -1.3359 H   0  0  0  0  0  0  0  0  0  0  0  0
    3.3158    0.8269   -1.0968 H   0  0  0  0  0  0  0  0  0  0  0  0
    5.2858    0.7111   -2.7231 H   0  0  0  0  0  0  0  0  0  0  0  0
    5.7791    2.2499   -2.0124 H   0  0  0  0  0  0  0  0  0  0  0  0
    7.0602    0.4723   -0.9252 H   0  0  0  0  0  0  0  0  0  0  0  0
    5.9642    1.2015    0.2408 H   0  0  0  0  0  0  0  0  0  0  0  0
    4.2506   -0.4183    1.4489 H   0  0  0  0  0  0  0  0  0  0  0  0
    3.5842   -2.9830    1.3869 H   0  0  0  0  0  0  0  0  0  0  0  0
    4.7022   -4.1997   -0.6660 H   0  0  0  0  0  0  0  0  0  0  0  0
   -0.0377   -0.1639    0.2692 H   0  0  0  0  0  0  0  0  0  0  0  0
   -1.8389   -1.3678    1.3477 H   0  0  0  0  0  0  0  0  0  0  0  0
  1  2  1  0
  2  3  1  0
  3  4  1  0
  4  5  2  0
  4  6  1  0
  6  7  1  0
  7  8  1  0
  8  9  2  0
  9 10  1  0
 10 11  1  0
 11 12  2  0
 12 13  1  0
 13 14  1  0
 14 15  1  0
 15 16  2  0
 15 17  1  0
 17 18  1  0
 18 19  1  0
 19 20  1  0
 20 21  2  0
 21 22  1  0
 22 23  2  0
 23 24  1  0
 14 25  2  0
 10 26  2  0
 26 27  1  0
 27 28  2  0
 28  3  1  0
 28  8  1  0
 25 11  1  0
 24 20  1  0
  1 29  1  0
  1 30  1  0
  1 31  1  0
  2 32  1  0
  2 33  1  0
  6 34  1  0
  6 35  1  0
  9 36  1  0
 17 37  1  0
 18 38  1  0
 18 39  1  0
 19 40  1  0
 19 41  1  0
 21 42  1  0
 22 43  1  0
 23 44  1  0
 26 45  1  0
 27 46  1  0
M  END
$$$$
