
     RDKit          3D

 48 52  0  0  0  0  0  0  0  0999 V2000
   -3.4492   -0.5115    1.9252 O   0  0  0  0  0  0  0  0  0  0  0  0
   -3.3093    0.0971    0.8628 C   0  0  0  0  0  0  0  0  0  0  0  0
   -2.0420    0.9065    0.5672 C   0  0  0  0  0  0  0  0  0  0  0  0
   -1.1923    0.1842   -0.4895 C   0  0  0  0  0  0  0  0  0  0  0  0
    0.3114    0.3583   -0.2824 C   0  0  0  0  0  0  0  0  0  0  0  0
    0.7005   -0.0651    1.0535 N   0  0  0  0  0  0  0  0  0  0  0  0
    1.9889   -0.4790    1.3457 C   0  0  0  0  0  0  0  0  0  0  0  0
    2.2441   -1.0665    2.5508 N   0  0  0  0  0  0  0  0  0  0  0  0
    3.4898   -1.4887    2.8471 C   0  0  0  0  0  0  0  0  0  0  0  0
    4.5928   -1.4052    2.0903 N   0  0  0  0  0  0  0  0  0  0  0  0
    4.3576   -0.8113    0.8976 C   0  0  0  0  0  0  0  0  0  0  0  0
    3.1062   -0.3537    0.5100 C   0  0  0  0  0  0  0  0  0  0  0  0
    3.1829    0.2109   -0.7336 O   0  0  0  0  0  0  0  0  0  0  0  0
    4.4778    0.1017   -1.1415 C   0  0  0  0  0  0  0  0  0  0  0  0
    4.9780    0.5518   -2.3616 C   0  0  0  0  0  0  0  0  0  0  0  0
    6.3426    0.3462   -2.5923 C   0  0  0  0  0  0  0  0  0  0  0  0
    7.1515   -0.2792   -1.6396 C   0  0  0  0  0  0  0  0  0  0  0  0
    6.6197   -0.7210   -0.4201 C   0  0  0  0  0  0  0  0  0  0  0  0
    5.2489   -0.5247   -0.1692 C   0  0  0  0  0  0  0  0  0  0  0  0
   -0.2604    0.0349    2.1499 C   0  0  0  0  0  0  0  0  0  0  0  0
   -1.2507    1.1615    1.8607 C   0  0  0  0  0  0  0  0  0  0  0  0
   -4.2810    0.0527   -0.1136 N   0  0  0  0  0  0  0  0  0  0  0  0
   -4.3301    0.7838   -1.3707 C   0  0  0  0  0  0  0  0  0  0  0  0
   -5.7802    0.6662   -1.8215 C   0  0  0  0  0  0  0  0  0  0  0  0
   -6.2010   -0.6846   -1.2582 C   0  0  0  0  0  0  0  0  0  0  0  0
   -5.4959   -0.7199    0.0893 C   0  0  0  0  0  0  0  0  0  0  0  0
   -2.3516    1.8888    0.1921 H   0  0  0  0  0  0  0  0  0  0  0  0
   -1.4520    0.5525   -1.4884 H   0  0  0  0  0  0  0  0  0  0  0  0
   -1.4238   -0.8897   -0.4901 H   0  0  0  0  0  0  0  0  0  0  0  0
    0.8066   -0.2463   -1.0506 H   0  0  0  0  0  0  0  0  0  0  0  0
    0.5952    1.4058   -0.4391 H   0  0  0  0  0  0  0  0  0  0  0  0
    3.6114   -1.9533    3.8211 H   0  0  0  0  0  0  0  0  0  0  0  0
    4.3391    1.0358   -3.0902 H   0  0  0  0  0  0  0  0  0  0  0  0
    6.7812    0.6800   -3.5307 H   0  0  0  0  0  0  0  0  0  0  0  0
    8.2101   -0.4260   -1.8447 H   0  0  0  0  0  0  0  0  0  0  0  0
    7.2506   -1.2061    0.3193 H   0  0  0  0  0  0  0  0  0  0  0  0
    0.2343    0.2736    3.0996 H   0  0  0  0  0  0  0  0  0  0  0  0
   -0.7774   -0.9230    2.2768 H   0  0  0  0  0  0  0  0  0  0  0  0
   -1.9190    1.3027    2.7182 H   0  0  0  0  0  0  0  0  0  0  0  0
   -0.6928    2.1016    1.7514 H   0  0  0  0  0  0  0  0  0  0  0  0
   -4.0157    1.8226   -1.2468 H   0  0  0  0  0  0  0  0  0  0  0  0
   -3.6641    0.2816   -2.0793 H   0  0  0  0  0  0  0  0  0  0  0  0
   -5.8910    0.7316   -2.9072 H   0  0  0  0  0  0  0  0  0  0  0  0
   -6.3815    1.4616   -1.3647 H   0  0  0  0  0  0  0  0  0  0  0  0
   -7.2852   -0.7942   -1.1704 H   0  0  0  0  0  0  0  0  0  0  0  0
   -5.8237   -1.4884   -1.9018 H   0  0  0  0  0  0  0  0  0  0  0  0
   -5.2626   -1.7364    0.4202 H   0  0  0  0  0  0  0  0  0  0  0  0
   -6.0887   -0.2202    0.8638 H   0  0  0  0  0  0  0  0  0  0  0  0
  1  2  2  0
  2  3  1  0
  3  4  1  0
  4  5  1  0
  5  6  1  0
  6  7  1  0
  7  8  2  0
  8  9  1  0
  9 10  2  0
 10 11  1  0
 11 12  2  0
 12 13  1  0
 13 14  1  0
 14 15  2  0
 15 16  1  0
 16 17  2  0
 17 18  1  0
 18 19  2  0
  6 20  1  0
 20 21  1  0
  2 22  1  0
 22 23  1  0
 23 24  1  0
 24 25  1  0
 25 26  1  0
 21  3  1  0
 26 22  1  0
 12  7  1  0
 19 14  1  0
 19 11  1  0
  3 27  1  0
  4 28  1  0
  4 29  1  0
  5 30  1  0
  5 31  1  0
  9 32  1  0
 15 33  1  0
 16 34  1  0
 17 35  1  0
 18 36  1  0
 20 37  1  0
 20 38  1  0
 21 39  1  0
 21 40  1  0
 23 41  1  0
 23 42  1  0
 24 43  1  0
 24 44  1  0
 25 45  1  0
 25 46  1  0
 26 47  1  0
 26 48  1  0
M  END
$$$$
