
     RDKit          3D

 59 61  0  0  0  0  0  0  0  0999 V2000
   -5.0701   -1.7162   -1.4343 C   0  0  0  0  0  0  0  0  0  0  0  0
   -4.9747   -1.9391    0.0770 C   0  0  0  0  0  0  0  0  0  0  0  0
   -5.0778   -0.7201    0.8174 N   0  0  0  0  0  0  0  0  0  0  0  0
   -6.4827   -0.3894    1.2033 C   0  0  0  0  0  0  0  0  0  0  0  0
   -7.0994    0.4273    0.1179 C   0  0  0  0  0  0  0  0  0  0  0  0
   -4.1172    0.1892    1.2204 C   0  0  0  0  0  0  0  0  0  0  0  0
   -4.5899    1.1978    1.9334 O   0  0  0  0  0  0  0  0  0  0  0  0
   -2.7012    0.2734    1.0288 C   0  0  0  0  0  0  0  0  0  0  0  0
   -1.9272    1.2627    1.6563 C   0  0  0  0  0  0  0  0  0  0  0  0
   -0.5744    1.3737    1.4615 C   0  0  0  0  0  0  0  0  0  0  0  0
    0.1064    0.5515    0.6579 C   0  0  0  0  0  0  0  0  0  0  0  0
    1.4911    0.5633    0.2415 C   0  0  0  0  0  0  0  0  0  0  0  0
    2.1604   -0.6158    0.2588 C   0  0  0  0  0  0  0  0  0  0  0  0
    3.5616   -0.7905   -0.1287 C   0  0  0  0  0  0  0  0  0  0  0  0
    3.7014   -1.8577   -1.2195 C   0  0  0  0  0  0  0  0  0  0  0  0
    4.8972   -2.7491   -0.9616 C   0  0  0  0  0  0  0  0  0  0  0  0
    6.0686   -2.0155   -0.5626 N   0  0  0  0  0  0  0  0  0  0  0  0
    5.8346   -1.2376    0.6208 C   0  0  0  0  0  0  0  0  0  0  0  0
    4.3849   -1.3638    1.0473 C   0  0  0  0  0  0  0  0  0  0  0  0
    4.1964    0.3824   -0.4914 O   0  0  0  0  0  0  0  0  0  0  0  0
    3.5813    1.5992   -0.5747 C   0  0  0  0  0  0  0  0  0  0  0  0
    4.3142    2.7032   -1.0353 C   0  0  0  0  0  0  0  0  0  0  0  0
    3.6778    3.9113   -1.1322 C   0  0  0  0  0  0  0  0  0  0  0  0
    2.3610    4.0603   -0.7959 C   0  0  0  0  0  0  0  0  0  0  0  0
    1.6377    2.9567   -0.3353 C   0  0  0  0  0  0  0  0  0  0  0  0
    0.3026    3.1421   -0.0238 O   0  0  0  0  0  0  0  0  0  0  0  0
    2.2272    1.7167   -0.2077 C   0  0  0  0  0  0  0  0  0  0  0  0
   -0.6529   -0.4536    0.0168 C   0  0  0  0  0  0  0  0  0  0  0  0
   -2.0045   -0.5644    0.2132 C   0  0  0  0  0  0  0  0  0  0  0  0
    0.6912    0.0000    0.0000 Cl  0  0  0  0  0  0  0  0  0  0  0  0
   -4.5233   -2.5438   -1.9317 H   0  0  0  0  0  0  0  0  0  0  0  0
   -6.1275   -1.7804   -1.7743 H   0  0  0  0  0  0  0  0  0  0  0  0
   -4.5820   -0.7769   -1.7366 H   0  0  0  0  0  0  0  0  0  0  0  0
   -5.8894   -2.6085    0.3105 H   0  0  0  0  0  0  0  0  0  0  0  0
   -4.1476   -2.5994    0.2876 H   0  0  0  0  0  0  0  0  0  0  0  0
   -7.0665   -1.3117    1.3468 H   0  0  0  0  0  0  0  0  0  0  0  0
   -6.4413    0.1267    2.1778 H   0  0  0  0  0  0  0  0  0  0  0  0
   -7.1497    1.5069    0.4193 H   0  0  0  0  0  0  0  0  0  0  0  0
   -6.4733    0.3755   -0.7793 H   0  0  0  0  0  0  0  0  0  0  0  0
   -8.1229    0.0503   -0.1073 H   0  0  0  0  0  0  0  0  0  0  0  0
   -2.4197    1.9674    2.3231 H   0  0  0  0  0  0  0  0  0  0  0  0
   -0.0179    2.1193    2.0490 H   0  0  0  0  0  0  0  0  0  0  0  0
    1.6013   -1.4834    0.5866 H   0  0  0  0  0  0  0  0  0  0  0  0
    3.6904   -1.4261   -2.2220 H   0  0  0  0  0  0  0  0  0  0  0  0
    2.7950   -2.5162   -1.1220 H   0  0  0  0  0  0  0  0  0  0  0  0
    4.6306   -3.5749   -0.2844 H   0  0  0  0  0  0  0  0  0  0  0  0
    5.1250   -3.2393   -1.9534 H   0  0  0  0  0  0  0  0  0  0  0  0
    6.3573   -1.4340   -1.3911 H   0  0  0  0  0  0  0  0  0  0  0  0
    5.9675   -0.1579    0.3273 H   0  0  0  0  0  0  0  0  0  0  0  0
    6.5414   -1.4170    1.4355 H   0  0  0  0  0  0  0  0  0  0  0  0
    4.0863   -2.3858    1.2820 H   0  0  0  0  0  0  0  0  0  0  0  0
    4.2202   -0.6481    1.8768 H   0  0  0  0  0  0  0  0  0  0  0  0
    5.3511    2.5630   -1.2968 H   0  0  0  0  0  0  0  0  0  0  0  0
    4.2528    4.7656   -1.4890 H   0  0  0  0  0  0  0  0  0  0  0  0
    1.8382    5.0169   -0.8713 H   0  0  0  0  0  0  0  0  0  0  0  0
   -0.1054    4.0503   -0.1233 H   0  0  0  0  0  0  0  0  0  0  0  0
   -0.1489   -1.1674   -0.6575 H   0  0  0  0  0  0  0  0  0  0  0  0
   -2.4742   -1.3693   -0.3518 H   0  0  0  0  0  0  0  0  0  0  0  0
   -0.6912    0.0000    0.0000 H   0  0  0  0  0  0  0  0  0  0  0  0
  1  2  1  0
  2  3  1  0
  3  4  1  0
  4  5  1  0
  3  6  1  0
  6  7  2  0
  6  8  1  0
  8  9  2  0
  9 10  1  0
 10 11  2  0
 11 12  1  0
 12 13  2  0
 13 14  1  0
 14 15  1  0
 15 16  1  0
 16 17  1  0
 17 18  1  0
 18 19  1  0
 14 20  1  0
 20 21  1  0
 21 22  2  0
 22 23  1  0
 23 24  2  0
 24 25  1  0
 25 26  1  0
 25 27  2  0
 11 28  1  0
 28 29  2  0
 29  8  1  0
 27 12  1  0
 19 14  1  0
 27 21  1  0
  1 31  1  0
  1 32  1  0
  1 33  1  0
  2 34  1  0
  2 35  1  0
  4 36  1  0
  4 37  1  0
  5 38  1  0
  5 39  1  0
  5 40  1  0
  9 41  1  0
 10 42  1  0
 13 43  1  0
 15 44  1  0
 15 45  1  0
 16 46  1  0
 16 47  1  0
 17 48  1  0
 18 49  1  0
 18 50  1  0
 19 51  1  0
 19 52  1  0
 22 53  1  0
 23 54  1  0
 24 55  1  0
 26 56  1  0
 28 57  1  0
 29 58  1  0
 30 59  1  0
M  END
$$$$
