
     RDKit          3D

 76 78  0  0  0  0  0  0  0  0999 V2000
   -4.4287   -5.3919    0.9734 C   0  0  0  0  0  0  0  0  0  0  0  0
   -4.6365   -4.1759    0.0437 C   0  0  0  0  0  0  0  0  0  0  0  0
   -5.7453   -3.2922    0.6438 C   0  0  0  0  0  0  0  0  0  0  0  0
   -5.1333   -4.7246   -1.3136 C   0  0  0  0  0  0  0  0  0  0  0  0
   -3.2852   -3.3920   -0.1514 C   0  0  1  0  0  0  0  0  0  0  0  0
   -3.3948   -2.1181   -1.0284 C   0  0  0  0  0  0  0  0  0  0  0  0
   -3.3594   -0.8079   -0.2401 C   0  0  0  0  0  0  0  0  0  0  0  0
   -2.1330   -0.6754    0.6865 C   0  0  2  0  0  0  0  0  0  0  0  0
   -1.1840    0.3595    0.2218 N   0  0  0  0  0  0  0  0  0  0  0  0
   -0.3142    0.0527   -0.9180 C   0  0  0  0  0  0  0  0  0  0  0  0
    1.1437   -0.1829   -0.5743 C   0  0  0  0  0  0  0  0  0  0  0  0
    1.6243   -0.2351    0.7427 C   0  0  0  0  0  0  0  0  0  0  0  0
    2.9800   -0.4576    0.9988 C   0  0  0  0  0  0  0  0  0  0  0  0
    3.8737   -0.6504   -0.0589 C   0  0  0  0  0  0  0  0  0  0  0  0
    5.3062   -0.8852    0.2558 C   0  0  0  0  0  0  0  0  0  0  0  0
    5.8177   -0.3450    1.2296 O   0  0  0  0  0  0  0  0  0  0  0  0
    5.9817   -1.7454   -0.5864 N   0  0  0  0  0  0  0  0  0  0  0  0
    7.3975   -2.0230   -0.4188 C   0  0  0  0  0  0  0  0  0  0  0  0
    8.2693   -1.1399   -1.2969 C   0  0  0  0  0  0  0  0  0  0  0  0
    8.2461    0.2863   -0.8384 C   0  0  0  0  0  0  0  0  0  0  0  0
    7.6757    1.2089   -1.3989 O   0  0  0  0  0  0  0  0  0  0  0  0
    8.9520    0.4835    0.2895 O   0  0  0  0  0  0  0  0  0  0  0  0
    3.4119   -0.5879   -1.3768 C   0  0  0  0  0  0  0  0  0  0  0  0
    2.0560   -0.3599   -1.6292 C   0  0  0  0  0  0  0  0  0  0  0  0
   -1.4665    1.6875    0.5855 C   0  0  0  0  0  0  0  0  0  0  0  0
   -2.4921    1.9854    1.1934 O   0  0  0  0  0  0  0  0  0  0  0  0
   -0.4839    2.5873    0.2278 N   0  0  0  0  0  0  0  0  0  0  0  0
   -0.5468    3.9920    0.3204 C   0  0  0  0  0  0  0  0  0  0  0  0
    0.6535    4.7008    0.2184 C   0  0  0  0  0  0  0  0  0  0  0  0
    0.6598    6.0974    0.2946 C   0  0  0  0  0  0  0  0  0  0  0  0
   -0.5308    6.8101    0.4527 C   0  0  0  0  0  0  0  0  0  0  0  0
   -0.3765    8.1647    0.5129 O   0  0  0  0  0  0  0  0  0  0  0  0
   -1.5486    8.9608    0.5548 C   0  0  0  0  0  0  0  0  0  0  0  0
   -1.1856   10.2632    0.5631 F   0  0  0  0  0  0  0  0  0  0  0  0
   -2.3214    8.7501   -0.5330 F   0  0  0  0  0  0  0  0  0  0  0  0
   -2.2663    8.7203    1.6735 F   0  0  0  0  0  0  0  0  0  0  0  0
   -1.7303    6.1058    0.5408 C   0  0  0  0  0  0  0  0  0  0  0  0
   -1.7364    4.7050    0.4742 C   0  0  0  0  0  0  0  0  0  0  0  0
   -1.4748   -2.0294    0.9976 C   0  0  0  0  0  0  0  0  0  0  0  0
   -2.5408   -3.1058    1.1733 C   0  0  0  0  0  0  0  0  0  0  0  0
   -3.6174   -6.0321    0.6095 H   0  0  0  0  0  0  0  0  0  0  0  0
   -5.3347   -6.0069    1.0286 H   0  0  0  0  0  0  0  0  0  0  0  0
   -4.1889   -5.0876    1.9973 H   0  0  0  0  0  0  0  0  0  0  0  0
   -6.6630   -3.8710    0.8006 H   0  0  0  0  0  0  0  0  0  0  0  0
   -6.0019   -2.4571   -0.0157 H   0  0  0  0  0  0  0  0  0  0  0  0
   -5.4542   -2.8783    1.6143 H   0  0  0  0  0  0  0  0  0  0  0  0
   -6.0298   -5.3421   -1.1844 H   0  0  0  0  0  0  0  0  0  0  0  0
   -4.3691   -5.3499   -1.7895 H   0  0  0  0  0  0  0  0  0  0  0  0
   -5.3960   -3.9266   -2.0146 H   0  0  0  0  0  0  0  0  0  0  0  0
   -2.6289   -4.0730   -0.7157 H   0  0  0  0  0  0  0  0  0  0  0  0
   -4.2904   -2.1287   -1.6548 H   0  0  0  0  0  0  0  0  0  0  0  0
   -2.5543   -2.1173   -1.7339 H   0  0  0  0  0  0  0  0  0  0  0  0
   -4.2657   -0.7518    0.3760 H   0  0  0  0  0  0  0  0  0  0  0  0
   -3.4196    0.0366   -0.9373 H   0  0  0  0  0  0  0  0  0  0  0  0
   -2.5246   -0.3148    1.6487 H   0  0  0  0  0  0  0  0  0  0  0  0
   -0.6994   -0.8276   -1.4407 H   0  0  0  0  0  0  0  0  0  0  0  0
   -0.3753    0.8845   -1.6311 H   0  0  0  0  0  0  0  0  0  0  0  0
    0.9536   -0.1009    1.5894 H   0  0  0  0  0  0  0  0  0  0  0  0
    3.3381   -0.4862    2.0266 H   0  0  0  0  0  0  0  0  0  0  0  0
    5.4795   -2.2254   -1.3209 H   0  0  0  0  0  0  0  0  0  0  0  0
    7.5408   -3.0721   -0.7002 H   0  0  0  0  0  0  0  0  0  0  0  0
    7.6669   -1.9215    0.6387 H   0  0  0  0  0  0  0  0  0  0  0  0
    9.3084   -1.4870   -1.2856 H   0  0  0  0  0  0  0  0  0  0  0  0
    7.9345   -1.1720   -2.3402 H   0  0  0  0  0  0  0  0  0  0  0  0
    8.7416    1.4065    0.5441 H   0  0  0  0  0  0  0  0  0  0  0  0
    4.0974   -0.6830   -2.2147 H   0  0  0  0  0  0  0  0  0  0  0  0
    1.7136   -0.3112   -2.6620 H   0  0  0  0  0  0  0  0  0  0  0  0
    0.4407    2.1956    0.1270 H   0  0  0  0  0  0  0  0  0  0  0  0
    1.6004    4.1816    0.0917 H   0  0  0  0  0  0  0  0  0  0  0  0
    1.6059    6.6289    0.2284 H   0  0  0  0  0  0  0  0  0  0  0  0
   -2.6892    6.6010    0.6669 H   0  0  0  0  0  0  0  0  0  0  0  0
   -2.6948    4.1965    0.5343 H   0  0  0  0  0  0  0  0  0  0  0  0
   -0.8807   -1.9411    1.9153 H   0  0  0  0  0  0  0  0  0  0  0  0
   -0.7810   -2.3456    0.2111 H   0  0  0  0  0  0  0  0  0  0  0  0
   -3.2369   -2.7907    1.9586 H   0  0  0  0  0  0  0  0  0  0  0  0
   -2.0595   -4.0253    1.5285 H   0  0  0  0  0  0  0  0  0  0  0  0
  1  2  1  0
  2  3  1  0
  2  4  1  0
  2  5  1  0
  5  6  1  0
  6  7  1  0
  7  8  1  0
  8  9  1  0
  9 10  1  0
 10 11  1  0
 11 12  2  0
 12 13  1  0
 13 14  2  0
 14 15  1  0
 15 16  2  0
 15 17  1  0
 17 18  1  0
 18 19  1  0
 19 20  1  0
 20 21  2  0
 20 22  1  0
 14 23  1  0
 23 24  2  0
  9 25  1  0
 25 26  2  0
 25 27  1  0
 27 28  1  0
 28 29  2  0
 29 30  1  0
 30 31  2  0
 31 32  1  0
 32 33  1  0
 33 34  1  0
 33 35  1  0
 33 36  1  0
 31 37  1  0
 37 38  2  0
  8 39  1  0
 39 40  1  0
 40  5  1  0
 24 11  1  0
 38 28  1  0
  1 41  1  0
  1 42  1  0
  1 43  1  0
  3 44  1  0
  3 45  1  0
  3 46  1  0
  4 47  1  0
  4 48  1  0
  4 49  1  0
  5 50  1  6
  6 51  1  0
  6 52  1  0
  7 53  1  0
  7 54  1  0
  8 55  1  1
 10 56  1  0
 10 57  1  0
 12 58  1  0
 13 59  1  0
 17 60  1  0
 18 61  1  0
 18 62  1  0
 19 63  1  0
 19 64  1  0
 22 65  1  0
 23 66  1  0
 24 67  1  0
 27 68  1  0
 29 69  1  0
 30 70  1  0
 37 71  1  0
 38 72  1  0
 39 73  1  0
 39 74  1  0
 40 75  1  0
 40 76  1  0
M  END
$$$$
