
     RDKit          3D

 67 72  0  0  0  0  0  0  0  0999 V2000
    0.6445   -2.1254    0.8480 C   0  0  0  0  0  0  0  0  0  0  0  0
    1.0430   -0.7631    1.3970 C   0  0  0  0  0  0  0  0  0  0  0  0
    2.0639   -0.1178    0.5766 N   0  0  0  0  0  0  0  0  0  0  0  0
    3.4027   -0.3350    0.8729 C   0  0  0  0  0  0  0  0  0  0  0  0
    3.7831   -1.0269    1.8169 O   0  0  0  0  0  0  0  0  0  0  0  0
    4.4186    0.3305   -0.0113 C   0  0  0  0  0  0  0  0  0  0  0  0
    5.8572    0.1531    0.2529 C   0  0  0  0  0  0  0  0  0  0  0  0
    6.4762    0.9893    1.1917 C   0  0  0  0  0  0  0  0  0  0  0  0
    7.8404    0.8565    1.4725 C   0  0  0  0  0  0  0  0  0  0  0  0
    8.6184   -0.1150    0.8263 C   0  0  0  0  0  0  0  0  0  0  0  0
   10.0485   -0.2285    1.1320 C   0  0  0  0  0  0  0  0  0  0  0  0
   10.9827    0.7650    1.3768 C   0  0  0  0  0  0  0  0  0  0  0  0
   12.2678    0.3432    1.6610 N   0  0  0  0  0  0  0  0  0  0  0  0
   12.3014   -0.9698    1.6379 C   0  0  0  0  0  0  0  0  0  0  0  0
   10.8244   -1.7591    1.2795 S   0  0  0  0  0  0  0  0  0  0  0  0
    7.9971   -0.9482   -0.1154 C   0  0  0  0  0  0  0  0  0  0  0  0
    6.6316   -0.8189   -0.3978 C   0  0  0  0  0  0  0  0  0  0  0  0
    5.9494   -1.8857   -1.5777 Cl  0  0  0  0  0  0  0  0  0  0  0  0
    4.0299    1.0828   -1.0524 C   0  0  0  0  0  0  0  0  0  0  0  0
    2.6135    1.2383   -1.3355 C   0  0  0  0  0  0  0  0  0  0  0  0
    2.1345    1.9669   -2.3983 C   0  0  0  0  0  0  0  0  0  0  0  0
    0.8247    2.1128   -2.6737 N   0  0  0  0  0  0  0  0  0  0  0  0
   -0.0484    1.5003   -1.8580 C   0  0  0  0  0  0  0  0  0  0  0  0
   -1.3852    1.6824   -2.1958 N   0  0  0  0  0  0  0  0  0  0  0  0
   -2.5939    1.1945   -1.6924 C   0  0  0  0  0  0  0  0  0  0  0  0
   -3.7892    1.6220   -2.2818 C   0  0  0  0  0  0  0  0  0  0  0  0
   -5.0344    1.1798   -1.8128 C   0  0  0  0  0  0  0  0  0  0  0  0
   -5.1448    0.3006   -0.7274 C   0  0  0  0  0  0  0  0  0  0  0  0
   -6.4136   -0.1228   -0.3036 N   0  0  0  0  0  0  0  0  0  0  0  0
   -6.4900   -1.2962    0.5931 C   0  0  0  0  0  0  0  0  0  0  0  0
   -7.9569   -1.7559    0.7619 C   0  0  0  0  0  0  0  0  0  0  0  0
   -8.8336   -0.6768    1.2689 N   0  0  0  0  0  0  0  0  0  0  0  0
  -10.2148   -1.1414    1.3725 C   0  0  0  0  0  0  0  0  0  0  0  0
   -8.7405    0.4838    0.3558 C   0  0  0  0  0  0  0  0  0  0  0  0
   -7.2887    0.9831    0.1578 C   0  0  0  0  0  0  0  0  0  0  0  0
   -3.9462   -0.1303   -0.1491 C   0  0  0  0  0  0  0  0  0  0  0  0
   -2.6974    0.3142   -0.6169 C   0  0  0  0  0  0  0  0  0  0  0  0
    0.3289    0.7748   -0.7973 N   0  0  0  0  0  0  0  0  0  0  0  0
    1.6477    0.6486   -0.5444 C   0  0  0  0  0  0  0  0  0  0  0  0
    0.2235   -2.0418   -0.1589 H   0  0  0  0  0  0  0  0  0  0  0  0
   -0.1071   -2.5895    1.4939 H   0  0  0  0  0  0  0  0  0  0  0  0
    1.5093   -2.7948    0.7931 H   0  0  0  0  0  0  0  0  0  0  0  0
    0.1684   -0.1105    1.4962 H   0  0  0  0  0  0  0  0  0  0  0  0
    1.4336   -0.8960    2.4130 H   0  0  0  0  0  0  0  0  0  0  0  0
    5.8981    1.7418    1.7255 H   0  0  0  0  0  0  0  0  0  0  0  0
    8.2824    1.5116    2.2216 H   0  0  0  0  0  0  0  0  0  0  0  0
   10.7796    1.8291    1.3548 H   0  0  0  0  0  0  0  0  0  0  0  0
   13.2077   -1.5277    1.8343 H   0  0  0  0  0  0  0  0  0  0  0  0
    8.5741   -1.7034   -0.6450 H   0  0  0  0  0  0  0  0  0  0  0  0
    4.7465    1.5682   -1.7075 H   0  0  0  0  0  0  0  0  0  0  0  0
    2.8017    2.4738   -3.0898 H   0  0  0  0  0  0  0  0  0  0  0  0
   -1.4372    2.2533   -3.0268 H   0  0  0  0  0  0  0  0  0  0  0  0
   -3.7715    2.3043   -3.1276 H   0  0  0  0  0  0  0  0  0  0  0  0
   -5.9293    1.5138   -2.3313 H   0  0  0  0  0  0  0  0  0  0  0  0
   -5.9202   -2.1335    0.1718 H   0  0  0  0  0  0  0  0  0  0  0  0
   -6.0744   -1.0529    1.5797 H   0  0  0  0  0  0  0  0  0  0  0  0
   -7.9728   -2.5982    1.4637 H   0  0  0  0  0  0  0  0  0  0  0  0
   -8.3273   -2.1249   -0.2042 H   0  0  0  0  0  0  0  0  0  0  0  0
  -10.2842   -1.9832    2.0704 H   0  0  0  0  0  0  0  0  0  0  0  0
  -10.8571   -0.3482    1.7708 H   0  0  0  0  0  0  0  0  0  0  0  0
  -10.6215   -1.4609    0.4062 H   0  0  0  0  0  0  0  0  0  0  0  0
   -9.1607    0.2272   -0.6263 H   0  0  0  0  0  0  0  0  0  0  0  0
   -9.3341    1.3127    0.7598 H   0  0  0  0  0  0  0  0  0  0  0  0
   -6.9052    1.3869    1.1044 H   0  0  0  0  0  0  0  0  0  0  0  0
   -7.3189    1.8060   -0.5652 H   0  0  0  0  0  0  0  0  0  0  0  0
   -3.9443   -0.8120    0.6955 H   0  0  0  0  0  0  0  0  0  0  0  0
   -1.8117   -0.0570   -0.1134 H   0  0  0  0  0  0  0  0  0  0  0  0
  1  2  1  0
  2  3  1  0
  3  4  1  0
  4  5  2  0
  4  6  1  0
  6  7  1  0
  7  8  2  0
  8  9  1  0
  9 10  2  0
 10 11  1  0
 11 12  2  0
 12 13  1  0
 13 14  2  0
 14 15  1  0
 10 16  1  0
 16 17  2  0
 17 18  1  0
  6 19  2  0
 19 20  1  0
 20 21  2  0
 21 22  1  0
 22 23  2  0
 23 24  1  0
 24 25  1  0
 25 26  2  0
 26 27  1  0
 27 28  2  0
 28 29  1  0
 29 30  1  0
 30 31  1  0
 31 32  1  0
 32 33  1  0
 32 34  1  0
 34 35  1  0
 28 36  1  0
 36 37  2  0
 23 38  1  0
 38 39  2  0
 39  3  1  0
 17  7  1  0
 39 20  1  0
 15 11  1  0
 37 25  1  0
 35 29  1  0
  1 40  1  0
  1 41  1  0
  1 42  1  0
  2 43  1  0
  2 44  1  0
  8 45  1  0
  9 46  1  0
 12 47  1  0
 14 48  1  0
 16 49  1  0
 19 50  1  0
 21 51  1  0
 24 52  1  0
 26 53  1  0
 27 54  1  0
 30 55  1  0
 30 56  1  0
 31 57  1  0
 31 58  1  0
 33 59  1  0
 33 60  1  0
 33 61  1  0
 34 62  1  0
 34 63  1  0
 35 64  1  0
 35 65  1  0
 36 66  1  0
 37 67  1  0
M  END
$$$$
