
     RDKit          3D

 65 67  0  0  0  0  0  0  0  0999 V2000
    1.8801    4.0005    0.6720 C   0  0  0  0  0  0  0  0  0  0  0  0
    2.7822    2.7761    0.6797 C   0  0  0  0  0  0  0  0  0  0  0  0
    3.6827    2.7392   -0.5569 C   0  0  0  0  0  0  0  0  0  0  0  0
    4.6205    1.5329   -0.5745 C   0  0  0  0  0  0  0  0  0  0  0  0
    3.9138    0.2999   -0.8587 N   0  0  0  0  0  0  0  0  0  0  0  0
    3.5964   -0.6202    0.1039 C   0  0  0  0  0  0  0  0  0  0  0  0
    3.9219   -0.4546    1.2784 O   0  0  0  0  0  0  0  0  0  0  0  0
    2.8753   -1.8245   -0.3005 C   0  0  0  0  0  0  0  0  0  0  0  0
    2.8116   -2.9298    0.5406 C   0  0  0  0  0  0  0  0  0  0  0  0
    2.0434   -3.8659   -0.0680 N   0  0  0  0  0  0  0  0  0  0  0  0
    1.6906   -5.1746    0.4487 C   0  0  0  0  0  0  0  0  0  0  0  0
    0.2876   -5.2018    1.0288 C   0  0  0  0  0  0  0  0  0  0  0  0
    1.5598   -3.4644   -1.2474 N   0  0  0  0  0  0  0  0  0  0  0  0
    2.0856   -2.2298   -1.4245 C   0  0  0  0  0  0  0  0  0  0  0  0
    1.6301   -1.2808   -2.8432 S   0  0  0  0  0  6  0  0  0  0  0  0
    2.6713   -0.2862   -3.0013 O   0  0  0  0  0  0  0  0  0  0  0  0
    1.3909   -2.2546   -3.8881 O   0  0  0  0  0  0  0  0  0  0  0  0
    0.1683   -0.4824   -2.5218 N   0  0  0  0  0  0  0  0  0  0  0  0
   -1.0283   -1.3583   -2.3170 C   0  0  0  0  0  0  0  0  0  0  0  0
   -1.4243   -1.5044   -0.8353 C   0  0  0  0  0  0  0  0  0  0  0  0
   -1.5524   -0.2004   -0.1542 N   0  0  0  0  0  0  0  0  0  0  0  0
   -2.5086   -0.1016    0.8613 C   0  0  0  0  0  0  0  0  0  0  0  0
   -2.5424   -1.1127    1.8465 C   0  0  0  0  0  0  0  0  0  0  0  0
   -3.4592   -1.1006    2.9014 C   0  0  0  0  0  0  0  0  0  0  0  0
   -4.3844   -0.0725    2.9978 C   0  0  0  0  0  0  0  0  0  0  0  0
   -4.3816    0.9457    2.0472 C   0  0  0  0  0  0  0  0  0  0  0  0
   -3.4415    0.9538    1.0015 C   0  0  0  0  0  0  0  0  0  0  0  0
   -3.4976    1.9199    0.0246 O   0  0  0  0  0  0  0  0  0  0  0  0
   -3.6866    3.2642    0.4771 C   0  0  0  0  0  0  0  0  0  0  0  0
   -5.0214    3.7802   -0.0351 C   0  0  0  0  0  0  0  0  0  0  0  0
   -1.1072    0.9766   -0.9100 C   0  0  0  0  0  0  0  0  0  0  0  0
    0.2428    0.6756   -1.5832 C   0  0  0  0  0  0  0  0  0  0  0  0
    2.4705    4.9230    0.6583 H   0  0  0  0  0  0  0  0  0  0  0  0
    1.2238    3.9979   -0.2049 H   0  0  0  0  0  0  0  0  0  0  0  0
    1.2498    4.0136    1.5670 H   0  0  0  0  0  0  0  0  0  0  0  0
    2.1565    1.8785    0.7269 H   0  0  0  0  0  0  0  0  0  0  0  0
    3.3993    2.7884    1.5863 H   0  0  0  0  0  0  0  0  0  0  0  0
    3.0661    2.7434   -1.4637 H   0  0  0  0  0  0  0  0  0  0  0  0
    4.2916    3.6514   -0.5778 H   0  0  0  0  0  0  0  0  0  0  0  0
    5.1695    1.4523    0.3686 H   0  0  0  0  0  0  0  0  0  0  0  0
    5.3546    1.6582   -1.3774 H   0  0  0  0  0  0  0  0  0  0  0  0
    3.6751    0.1292   -1.8337 H   0  0  0  0  0  0  0  0  0  0  0  0
    3.2474   -3.0928    1.5183 H   0  0  0  0  0  0  0  0  0  0  0  0
    2.4251   -5.4417    1.2163 H   0  0  0  0  0  0  0  0  0  0  0  0
    1.7869   -5.8912   -0.3748 H   0  0  0  0  0  0  0  0  0  0  0  0
    0.1838   -4.4773    1.8434 H   0  0  0  0  0  0  0  0  0  0  0  0
    0.0607   -6.1971    1.4218 H   0  0  0  0  0  0  0  0  0  0  0  0
   -0.4614   -4.9564    0.2682 H   0  0  0  0  0  0  0  0  0  0  0  0
   -1.8557   -0.9056   -2.8779 H   0  0  0  0  0  0  0  0  0  0  0  0
   -0.8787   -2.3503   -2.7536 H   0  0  0  0  0  0  0  0  0  0  0  0
   -0.6704   -2.0940   -0.3067 H   0  0  0  0  0  0  0  0  0  0  0  0
   -2.3676   -2.0635   -0.7967 H   0  0  0  0  0  0  0  0  0  0  0  0
   -1.8190   -1.9239    1.8114 H   0  0  0  0  0  0  0  0  0  0  0  0
   -3.4472   -1.8963    3.6415 H   0  0  0  0  0  0  0  0  0  0  0  0
   -5.1121   -0.0663    3.8050 H   0  0  0  0  0  0  0  0  0  0  0  0
   -5.1409    1.7175    2.1200 H   0  0  0  0  0  0  0  0  0  0  0  0
   -2.8809    3.8642    0.0366 H   0  0  0  0  0  0  0  0  0  0  0  0
   -3.6011    3.3783    1.5645 H   0  0  0  0  0  0  0  0  0  0  0  0
   -5.1746    4.8245    0.2535 H   0  0  0  0  0  0  0  0  0  0  0  0
   -5.8512    3.1825    0.3570 H   0  0  0  0  0  0  0  0  0  0  0  0
   -5.0672    3.7062   -1.1271 H   0  0  0  0  0  0  0  0  0  0  0  0
   -0.9579    1.8319   -0.2409 H   0  0  0  0  0  0  0  0  0  0  0  0
   -1.8446    1.2460   -1.6748 H   0  0  0  0  0  0  0  0  0  0  0  0
    0.9768    0.4692   -0.8003 H   0  0  0  0  0  0  0  0  0  0  0  0
    0.5738    1.5557   -2.1440 H   0  0  0  0  0  0  0  0  0  0  0  0
  1  2  1  0
  2  3  1  0
  3  4  1  0
  4  5  1  0
  5  6  1  0
  6  7  2  0
  6  8  1  0
  8  9  2  0
  9 10  1  0
 10 11  1  0
 11 12  1  0
 10 13  1  0
 13 14  2  0
 14 15  1  0
 15 16  2  0
 15 17  2  0
 15 18  1  0
 18 19  1  0
 19 20  1  0
 20 21  1  0
 21 22  1  0
 22 23  2  0
 23 24  1  0
 24 25  2  0
 25 26  1  0
 26 27  2  0
 27 28  1  0
 28 29  1  0
 29 30  1  0
 21 31  1  0
 31 32  1  0
 14  8  1  0
 32 18  1  0
 27 22  1  0
  1 33  1  0
  1 34  1  0
  1 35  1  0
  2 36  1  0
  2 37  1  0
  3 38  1  0
  3 39  1  0
  4 40  1  0
  4 41  1  0
  5 42  1  0
  9 43  1  0
 11 44  1  0
 11 45  1  0
 12 46  1  0
 12 47  1  0
 12 48  1  0
 19 49  1  0
 19 50  1  0
 20 51  1  0
 20 52  1  0
 23 53  1  0
 24 54  1  0
 25 55  1  0
 26 56  1  0
 29 57  1  0
 29 58  1  0
 30 59  1  0
 30 60  1  0
 30 61  1  0
 31 62  1  0
 31 63  1  0
 32 64  1  0
 32 65  1  0
M  END
$$$$
