
     RDKit          3D

 31 33  0  0  0  0  0  0  0  0999 V2000
   -3.7948   -2.4239    0.1676 C   0  0  0  0  0  0  0  0  0  0  0  0
   -3.1379   -1.1013   -0.0951 C   0  0  0  0  0  0  0  0  0  0  0  0
   -3.8904    0.0000   -0.4905 C   0  0  0  0  0  0  0  0  0  0  0  0
   -3.2706    1.2322   -0.6857 C   0  0  0  0  0  0  0  0  0  0  0  0
   -1.8851    1.3998   -0.4822 C   0  0  0  0  0  0  0  0  0  0  0  0
   -1.3548    2.8027   -0.6199 C   0  0  0  0  0  0  0  0  0  0  0  0
   -1.0974    0.2824   -0.1163 C   0  0  0  0  0  0  0  0  0  0  0  0
    0.3239    0.3320    0.0378 N   0  0  0  0  0  0  0  0  0  0  0  0
    1.3176    1.1683   -1.1084 S   0  0  0  0  0  0  0  0  0  0  0  0
    2.7851    0.4816   -0.4170 C   0  0  0  0  0  0  0  0  0  0  0  0
    4.0948    0.7136   -0.8042 C   0  0  0  0  0  0  0  0  0  0  0  0
    5.1096    0.0560   -0.1118 C   0  0  0  0  0  0  0  0  0  0  0  0
    6.3840    0.2639   -0.4670 F   0  0  0  0  0  0  0  0  0  0  0  0
    4.8305   -0.8172    0.9454 C   0  0  0  0  0  0  0  0  0  0  0  0
    3.5080   -1.0457    1.3282 C   0  0  0  0  0  0  0  0  0  0  0  0
    2.5009   -0.3839    0.6332 C   0  0  0  0  0  0  0  0  0  0  0  0
    1.0538   -0.5069    0.8925 C   0  0  0  0  0  0  0  0  0  0  0  0
    0.6527   -1.2556    1.7728 O   0  0  0  0  0  0  0  0  0  0  0  0
   -1.7573   -0.9455    0.1013 C   0  0  0  0  0  0  0  0  0  0  0  0
   -4.0378   -2.5161    1.2306 H   0  0  0  0  0  0  0  0  0  0  0  0
   -3.1355   -3.2497   -0.1199 H   0  0  0  0  0  0  0  0  0  0  0  0
   -4.7166   -2.5277   -0.4144 H   0  0  0  0  0  0  0  0  0  0  0  0
   -4.9642   -0.0874   -0.6380 H   0  0  0  0  0  0  0  0  0  0  0  0
   -3.8866    2.0816   -0.9767 H   0  0  0  0  0  0  0  0  0  0  0  0
   -0.9567    2.9676   -1.6252 H   0  0  0  0  0  0  0  0  0  0  0  0
   -0.5917    3.0146    0.1354 H   0  0  0  0  0  0  0  0  0  0  0  0
   -2.1494    3.5396   -0.4538 H   0  0  0  0  0  0  0  0  0  0  0  0
    4.3397    1.3840   -1.6203 H   0  0  0  0  0  0  0  0  0  0  0  0
    5.6491   -1.3119    1.4605 H   0  0  0  0  0  0  0  0  0  0  0  0
    3.2680   -1.7203    2.1454 H   0  0  0  0  0  0  0  0  0  0  0  0
   -1.1910   -1.8271    0.3954 H   0  0  0  0  0  0  0  0  0  0  0  0
  1  2  1  0
  2  3  2  0
  3  4  1  0
  4  5  2  0
  5  6  1  0
  5  7  1  0
  7  8  1  0
  8  9  1  0
  9 10  1  0
 10 11  2  0
 11 12  1  0
 12 13  1  0
 12 14  2  0
 14 15  1  0
 15 16  2  0
 16 17  1  0
 17 18  2  0
  7 19  2  0
 19  2  1  0
 17  8  1  0
 16 10  1  0
  1 20  1  0
  1 21  1  0
  1 22  1  0
  3 23  1  0
  4 24  1  0
  6 25  1  0
  6 26  1  0
  6 27  1  0
 11 28  1  0
 14 29  1  0
 15 30  1  0
 19 31  1  0
M  END
$$$$
