
     RDKit          3D

 48 50  0  0  0  0  0  0  0  0999 V2000
   -3.3200    0.2147   -2.0535 C   0  0  0  0  0  0  0  0  0  0  0  0
   -3.2441   -1.2456   -1.9148 N   0  0  0  0  0  0  0  0  0  0  0  0
   -1.9743   -1.7518   -2.3315 C   0  0  0  0  0  0  0  0  0  0  0  0
   -1.1876   -2.4300   -1.2463 C   0  0  0  0  0  0  0  0  0  0  0  0
   -1.2147   -1.6690    0.0283 C   0  0  0  0  0  0  0  0  0  0  0  0
   -2.4921   -1.2170    0.3786 C   0  0  0  0  0  0  0  0  0  0  0  0
   -2.3599   -0.5530    1.5602 C   0  0  0  0  0  0  0  0  0  0  0  0
   -3.3152    0.0821    2.3380 C   0  0  0  0  0  0  0  0  0  0  0  0
   -2.8952    0.6762    3.5029 C   0  0  0  0  0  0  0  0  0  0  0  0
   -1.5815    0.6649    3.9208 C   0  0  0  0  0  0  0  0  0  0  0  0
   -0.6561    0.0204    3.1167 C   0  0  0  0  0  0  0  0  0  0  0  0
   -1.0316   -0.5938    1.9315 C   0  0  0  0  0  0  0  0  0  0  0  0
   -0.3403   -1.2856    0.9742 N   0  0  0  0  0  0  0  0  0  0  0  0
    1.0696   -1.5545    0.9738 C   0  0  0  0  0  0  0  0  0  0  0  0
    1.9040   -0.5383    0.3098 C   0  0  0  0  0  0  0  0  0  0  0  0
    2.3529    0.5654    1.0048 C   0  0  0  0  0  0  0  0  0  0  0  0
    3.1495    1.5299    0.3809 C   0  0  0  0  0  0  0  0  0  0  0  0
    3.5195    1.4254   -0.9400 C   0  0  0  0  0  0  0  0  0  0  0  0
    4.3500    2.4200   -1.6113 C   0  0  0  0  0  0  0  0  0  0  0  0
    4.6487    2.2536   -2.8332 O   0  0  0  0  0  0  0  0  0  0  0  0
    4.8591    3.5797   -0.9936 N   0  0  0  0  0  0  0  0  0  0  0  0
    5.6177    4.4527   -1.6732 O   0  0  0  0  0  0  0  0  0  0  0  0
    3.0646    0.3162   -1.6263 C   0  0  0  0  0  0  0  0  0  0  0  0
    2.2854   -0.6336   -1.0278 C   0  0  0  0  0  0  0  0  0  0  0  0
   -3.5880   -1.5450   -0.5500 C   0  0  0  0  0  0  0  0  0  0  0  0
    0.6847    0.0000    0.0000 Cl  0  0  0  0  0  0  0  0  0  0  0  0
   -2.6392    0.5032   -2.8581 H   0  0  0  0  0  0  0  0  0  0  0  0
   -3.0830    0.7056   -1.0797 H   0  0  0  0  0  0  0  0  0  0  0  0
   -4.3758    0.4585   -2.2885 H   0  0  0  0  0  0  0  0  0  0  0  0
   -1.3873   -0.9452   -2.8106 H   0  0  0  0  0  0  0  0  0  0  0  0
   -2.1705   -2.5327   -3.1162 H   0  0  0  0  0  0  0  0  0  0  0  0
   -0.1386   -2.4826   -1.5808 H   0  0  0  0  0  0  0  0  0  0  0  0
   -1.5183   -3.4819   -1.0960 H   0  0  0  0  0  0  0  0  0  0  0  0
   -4.3375    0.0810    1.9960 H   0  0  0  0  0  0  0  0  0  0  0  0
   -3.6459    1.1789    4.1203 H   0  0  0  0  0  0  0  0  0  0  0  0
   -1.2676    1.1419    4.8484 H   0  0  0  0  0  0  0  0  0  0  0  0
    0.3905   -0.0062    3.4308 H   0  0  0  0  0  0  0  0  0  0  0  0
    1.3072   -2.5340    0.4705 H   0  0  0  0  0  0  0  0  0  0  0  0
    1.4295   -1.6813    2.0175 H   0  0  0  0  0  0  0  0  0  0  0  0
    2.1377    0.7657    2.0419 H   0  0  0  0  0  0  0  0  0  0  0  0
    3.5036    2.3986    0.9253 H   0  0  0  0  0  0  0  0  0  0  0  0
    4.6557    3.7768   -0.0047 H   0  0  0  0  0  0  0  0  0  0  0  0
    6.5776    4.2962   -1.5367 H   0  0  0  0  0  0  0  0  0  0  0  0
    3.3551    0.2260   -2.6786 H   0  0  0  0  0  0  0  0  0  0  0  0
    1.9820   -1.4670   -1.6410 H   0  0  0  0  0  0  0  0  0  0  0  0
   -4.4972   -0.9600   -0.2972 H   0  0  0  0  0  0  0  0  0  0  0  0
   -3.8985   -2.6253   -0.4818 H   0  0  0  0  0  0  0  0  0  0  0  0
   -0.6847    0.0000    0.0000 H   0  0  0  0  0  0  0  0  0  0  0  0
  1  2  1  0
  2  3  1  0
  3  4  1  0
  4  5  1  0
  5  6  2  0
  6  7  1  0
  7  8  2  0
  8  9  1  0
  9 10  2  0
 10 11  1  0
 11 12  2  0
 12 13  1  0
 13 14  1  0
 14 15  1  0
 15 16  2  0
 16 17  1  0
 17 18  2  0
 18 19  1  0
 19 20  2  0
 19 21  1  0
 21 22  1  0
 18 23  1  0
 23 24  2  0
  6 25  1  0
 25  2  1  0
 13  5  1  0
 24 15  1  0
 12  7  1  0
  1 27  1  0
  1 28  1  0
  1 29  1  0
  3 30  1  0
  3 31  1  0
  4 32  1  0
  4 33  1  0
  8 34  1  0
  9 35  1  0
 10 36  1  0
 11 37  1  0
 14 38  1  0
 14 39  1  0
 16 40  1  0
 17 41  1  0
 21 42  1  0
 22 43  1  0
 23 44  1  0
 24 45  1  0
 25 46  1  0
 25 47  1  0
 26 48  1  0
M  END
$$$$
