
     RDKit          3D

 57 55  0  0  0  0  0  0  0  0999 V2000
   -5.5138    1.1498    0.4296 C   0  0  0  0  0  0  0  0  0  0  0  0
   -4.6668    0.2712    1.3363 C   0  0  0  0  0  0  0  0  0  0  0  0
   -3.5954   -0.3100    0.6522 N   0  0  0  0  0  0  0  0  0  0  0  0
   -3.9993   -1.2904   -0.2877 C   0  0  0  0  0  0  0  0  0  0  0  0
   -2.8856   -1.8824   -1.1254 C   0  0  0  0  0  0  0  0  0  0  0  0
   -2.2864   -0.3087    1.0158 C   0  0  0  0  0  0  0  0  0  0  0  0
   -1.3596    0.7959    0.7765 C   0  0  0  0  0  0  0  0  0  0  0  0
   -0.0957    0.4429    0.2466 C   0  0  0  0  0  0  0  0  0  0  0  0
    0.8977    1.3559    0.0462 C   0  0  0  0  0  0  0  0  0  0  0  0
    2.2277    1.0499   -0.4033 N   0  0  0  0  0  0  0  0  0  0  0  0
    2.9412   -0.1040   -0.0738 C   0  0  0  0  0  0  0  0  0  0  0  0
    2.5212   -0.9004    0.9760 C   0  0  0  0  0  0  0  0  0  0  0  0
    3.2060   -2.0175    1.3769 C   0  0  0  0  0  0  0  0  0  0  0  0
    4.3284   -2.3688    0.7392 N   0  0  0  0  0  0  0  0  0  0  0  0
    4.7748   -1.6041   -0.3044 C   0  0  0  0  0  0  0  0  0  0  0  0
    5.9413   -1.9730   -0.9478 C   0  0  0  0  0  0  0  0  0  0  0  0
    6.4691   -1.2452   -2.0124 C   0  0  0  0  0  0  0  0  0  0  0  0
    7.9409   -1.7046   -2.8030 Cl  0  0  0  0  0  0  0  0  0  0  0  0
    5.7662   -0.1218   -2.4029 C   0  0  0  0  0  0  0  0  0  0  0  0
    4.6089    0.2710   -1.7882 C   0  0  0  0  0  0  0  0  0  0  0  0
    4.0988   -0.4692   -0.7277 C   0  0  0  0  0  0  0  0  0  0  0  0
    0.6179    2.6738    0.3807 C   0  0  0  0  0  0  0  0  0  0  0  0
   -0.6041    3.0282    0.8929 C   0  0  0  0  0  0  0  0  0  0  0  0
   -1.6102    2.1055    1.1011 C   0  0  0  0  0  0  0  0  0  0  0  0
   -2.8258    2.4888    1.6166 O   0  0  0  0  0  0  0  0  0  0  0  0
    0.6855    0.0000    0.0000 Cl  0  0  0  0  0  0  0  0  0  0  0  0
    0.6901    0.0000    0.0000 Cl  0  0  0  0  0  0  0  0  0  0  0  0
   -0.0019    0.3579   -0.0000 O   0  0  0  0  0  0  0  0  0  0  0  0
   -0.0020    0.3701   -0.0000 O   0  0  0  0  0  0  0  0  0  0  0  0
   -6.6033    0.9297    0.4884 H   0  0  0  0  0  0  0  0  0  0  0  0
   -5.2148    1.0674   -0.6361 H   0  0  0  0  0  0  0  0  0  0  0  0
   -5.3761    2.2285    0.7090 H   0  0  0  0  0  0  0  0  0  0  0  0
   -5.4210   -0.5966    1.5923 H   0  0  0  0  0  0  0  0  0  0  0  0
   -4.5025    0.6905    2.3425 H   0  0  0  0  0  0  0  0  0  0  0  0
   -4.4282   -2.1659    0.2797 H   0  0  0  0  0  0  0  0  0  0  0  0
   -4.8448   -0.9648   -0.9455 H   0  0  0  0  0  0  0  0  0  0  0  0
   -2.4132   -2.7761   -0.6523 H   0  0  0  0  0  0  0  0  0  0  0  0
   -3.3860   -2.2800   -2.0592 H   0  0  0  0  0  0  0  0  0  0  0  0
   -2.1899   -1.1223   -1.4811 H   0  0  0  0  0  0  0  0  0  0  0  0
   -2.1732   -0.5635    2.1430 H   0  0  0  0  0  0  0  0  0  0  0  0
   -1.8107   -1.2512    0.5450 H   0  0  0  0  0  0  0  0  0  0  0  0
    0.1074   -0.6000   -0.0560 H   0  0  0  0  0  0  0  0  0  0  0  0
    2.6987    1.7782   -1.0150 H   0  0  0  0  0  0  0  0  0  0  0  0
    1.6283   -0.6579    1.5730 H   0  0  0  0  0  0  0  0  0  0  0  0
    2.8921   -2.6645    2.2103 H   0  0  0  0  0  0  0  0  0  0  0  0
    6.4641   -2.8588   -0.6030 H   0  0  0  0  0  0  0  0  0  0  0  0
    6.1701    0.4769   -3.2522 H   0  0  0  0  0  0  0  0  0  0  0  0
    4.0765    1.1523   -2.1147 H   0  0  0  0  0  0  0  0  0  0  0  0
    1.3944    3.4023    0.2151 H   0  0  0  0  0  0  0  0  0  0  0  0
   -0.8461    4.0440    1.1543 H   0  0  0  0  0  0  0  0  0  0  0  0
   -3.1193    3.3991    1.8764 H   0  0  0  0  0  0  0  0  0  0  0  0
   -0.6855    0.0000    0.0000 H   0  0  0  0  0  0  0  0  0  0  0  0
   -0.6901    0.0000    0.0000 H   0  0  0  0  0  0  0  0  0  0  0  0
   -0.8227   -0.1796   -0.0000 H   0  0  0  0  0  0  0  0  0  0  0  0
    0.8247   -0.1783    0.0000 H   0  0  0  0  0  0  0  0  0  0  0  0
   -0.8135   -0.1857   -0.0000 H   0  0  0  0  0  0  0  0  0  0  0  0
    0.8155   -0.1844    0.0000 H   0  0  0  0  0  0  0  0  0  0  0  0
  1  2  1  0
  2  3  1  0
  3  4  1  0
  4  5  1  0
  3  6  1  0
  6  7  1  0
  7  8  2  0
  8  9  1  0
  9 10  1  0
 10 11  1  0
 11 12  2  0
 12 13  1  0
 13 14  2  0
 14 15  1  0
 15 16  2  0
 16 17  1  0
 17 18  1  0
 17 19  2  0
 19 20  1  0
 20 21  2  0
  9 22  2  0
 22 23  1  0
 23 24  2  0
 24 25  1  0
 24  7  1  0
 21 11  1  0
 21 15  1  0
  1 30  1  0
  1 31  1  0
  1 32  1  0
  2 33  1  0
  2 34  1  0
  4 35  1  0
  4 36  1  0
  5 37  1  0
  5 38  1  0
  5 39  1  0
  6 40  1  0
  6 41  1  0
  8 42  1  0
 10 43  1  0
 12 44  1  0
 13 45  1  0
 16 46  1  0
 19 47  1  0
 20 48  1  0
 22 49  1  0
 23 50  1  0
 25 51  1  0
 26 52  1  0
 27 53  1  0
 28 54  1  0
 28 55  1  0
 29 56  1  0
 29 57  1  0
M  END
$$$$
