
     RDKit          3D

 55 58  0  0  0  0  0  0  0  0999 V2000
   -5.2945    0.9830    4.0861 C   0  0  0  0  0  0  0  0  0  0  0  0
   -5.3025    0.6005    2.6338 C   0  0  0  0  0  0  0  0  0  0  0  0
   -6.3027   -0.2426    2.1372 C   0  0  0  0  0  0  0  0  0  0  0  0
   -6.3087   -0.6136    0.7923 C   0  0  0  0  0  0  0  0  0  0  0  0
   -5.3158   -0.1437   -0.0682 C   0  0  0  0  0  0  0  0  0  0  0  0
   -4.2936    0.6889    0.4109 C   0  0  0  0  0  0  0  0  0  0  0  0
   -3.2344    1.2156   -0.5188 C   0  0  0  0  0  0  0  0  0  0  0  0
   -2.4764    0.1516   -1.1305 N   0  0  0  0  0  0  0  0  0  0  0  0
   -1.3738    0.4160   -1.9119 C   0  0  0  0  0  0  0  0  0  0  0  0
   -0.9001    1.5407   -2.0454 O   0  0  0  0  0  0  0  0  0  0  0  0
   -0.7960   -0.8070   -2.6286 C   0  0  0  0  0  0  0  0  0  0  0  0
   -0.2704   -1.7872   -1.6704 N   0  0  0  0  0  0  0  0  0  0  0  0
   -1.1849   -2.7091   -1.1597 C   0  0  0  0  0  0  0  0  0  0  0  0
   -2.3731   -2.6971   -1.5070 O   0  0  0  0  0  0  0  0  0  0  0  0
   -0.7454   -3.6270   -0.0438 C   0  0  0  0  0  0  0  0  0  0  0  0
    0.8534   -4.3769   -0.3622 S   0  0  0  0  0  0  0  0  0  0  0  0
    1.7382   -2.8704   -0.7002 C   0  0  0  0  0  0  0  0  0  0  0  0
    3.1090   -2.8555   -0.3961 C   0  0  0  0  0  0  0  0  0  0  0  0
    3.8832   -1.7338   -0.6777 C   0  0  0  0  0  0  0  0  0  0  0  0
    3.2803   -0.6243   -1.2641 C   0  0  0  0  0  0  0  0  0  0  0  0
    4.0843    0.5635   -1.6188 C   0  0  0  0  0  0  0  0  0  0  0  0
    4.1379    0.8929   -2.7995 O   0  0  0  0  0  0  0  0  0  0  0  0
    4.7250    1.2423   -0.6019 N   0  0  0  0  0  0  0  0  0  0  0  0
    5.5103    2.4297   -0.8895 C   0  0  0  0  0  0  0  0  0  0  0  0
    6.0664    2.8500    0.4604 C   0  0  0  0  0  0  0  0  0  0  0  0
    4.9650    2.4207    1.4210 C   0  0  0  0  0  0  0  0  0  0  0  0
    4.4965    1.0972    0.8302 C   0  0  0  0  0  0  0  0  0  0  0  0
    1.9182   -0.6369   -1.5909 C   0  0  0  0  0  0  0  0  0  0  0  0
    1.1198   -1.7591   -1.3105 C   0  0  0  0  0  0  0  0  0  0  0  0
   -4.2934    1.0487    1.7692 C   0  0  0  0  0  0  0  0  0  0  0  0
   -4.8452    0.1813    4.6837 H   0  0  0  0  0  0  0  0  0  0  0  0
   -6.3135    1.1652    4.4393 H   0  0  0  0  0  0  0  0  0  0  0  0
   -4.7233    1.9032    4.2491 H   0  0  0  0  0  0  0  0  0  0  0  0
   -7.0883   -0.6120    2.7955 H   0  0  0  0  0  0  0  0  0  0  0  0
   -7.0937   -1.2631    0.4141 H   0  0  0  0  0  0  0  0  0  0  0  0
   -5.3428   -0.4328   -1.1162 H   0  0  0  0  0  0  0  0  0  0  0  0
   -2.5385    1.8771    0.0075 H   0  0  0  0  0  0  0  0  0  0  0  0
   -3.7034    1.8079   -1.3128 H   0  0  0  0  0  0  0  0  0  0  0  0
   -2.8971   -0.7728   -1.2011 H   0  0  0  0  0  0  0  0  0  0  0  0
   -1.5997   -1.2578   -3.2249 H   0  0  0  0  0  0  0  0  0  0  0  0
   -0.0315   -0.5031   -3.3511 H   0  0  0  0  0  0  0  0  0  0  0  0
   -1.4815   -4.4305    0.0585 H   0  0  0  0  0  0  0  0  0  0  0  0
   -0.7261   -3.0591    0.8927 H   0  0  0  0  0  0  0  0  0  0  0  0
    3.5851   -3.7279    0.0478 H   0  0  0  0  0  0  0  0  0  0  0  0
    4.9485   -1.7378   -0.4652 H   0  0  0  0  0  0  0  0  0  0  0  0
    4.8382    3.1941   -1.3015 H   0  0  0  0  0  0  0  0  0  0  0  0
    6.2894    2.2081   -1.6251 H   0  0  0  0  0  0  0  0  0  0  0  0
    6.9861    2.2948    0.6802 H   0  0  0  0  0  0  0  0  0  0  0  0
    6.2868    3.9199    0.5109 H   0  0  0  0  0  0  0  0  0  0  0  0
    4.1488    3.1517    1.3959 H   0  0  0  0  0  0  0  0  0  0  0  0
    5.3078    2.3241    2.4540 H   0  0  0  0  0  0  0  0  0  0  0  0
    3.4469    0.8875    1.0524 H   0  0  0  0  0  0  0  0  0  0  0  0
    5.1165    0.2696    1.1852 H   0  0  0  0  0  0  0  0  0  0  0  0
    1.5141    0.2618   -2.0510 H   0  0  0  0  0  0  0  0  0  0  0  0
   -3.5056    1.6936    2.1564 H   0  0  0  0  0  0  0  0  0  0  0  0
  1  2  1  0
  2  3  2  0
  3  4  1  0
  4  5  2  0
  5  6  1  0
  6  7  1  0
  7  8  1  0
  8  9  1  0
  9 10  2  0
  9 11  1  0
 11 12  1  0
 12 13  1  0
 13 14  2  0
 13 15  1  0
 15 16  1  0
 16 17  1  0
 17 18  2  0
 18 19  1  0
 19 20  2  0
 20 21  1  0
 21 22  2  0
 21 23  1  0
 23 24  1  0
 24 25  1  0
 25 26  1  0
 26 27  1  0
 20 28  1  0
 28 29  2  0
  6 30  2  0
 30  2  1  0
 29 12  1  0
 29 17  1  0
 27 23  1  0
  1 31  1  0
  1 32  1  0
  1 33  1  0
  3 34  1  0
  4 35  1  0
  5 36  1  0
  7 37  1  0
  7 38  1  0
  8 39  1  0
 11 40  1  0
 11 41  1  0
 15 42  1  0
 15 43  1  0
 18 44  1  0
 19 45  1  0
 24 46  1  0
 24 47  1  0
 25 48  1  0
 25 49  1  0
 26 50  1  0
 26 51  1  0
 27 52  1  0
 27 53  1  0
 28 54  1  0
 30 55  1  0
M  END
$$$$
