
     RDKit          3D

 57 59  0  0  0  0  0  0  0  0999 V2000
   -7.7434   -0.2789    1.8922 N   0  0  0  0  0  0  0  0  0  0  0  0
   -7.3333    0.6832    0.8748 C   0  0  0  0  0  0  0  0  0  0  0  0
   -5.8423    0.6371    0.4898 C   0  0  0  0  0  0  0  0  0  0  0  0
   -4.9071    0.8785    1.6791 C   0  0  0  0  0  0  0  0  0  0  0  0
   -3.4481    1.0390    1.2379 C   0  0  0  0  0  0  0  0  0  0  0  0
   -3.1094    0.3081   -0.0761 C   0  0  0  0  0  0  0  0  0  0  0  0
   -1.6005    0.0102   -0.1425 C   0  0  0  0  0  0  0  0  0  0  0  0
   -1.2424   -0.4610   -1.4795 N   0  0  0  0  0  0  0  0  0  0  0  0
    0.1057   -0.8120   -1.6679 C   0  0  0  0  0  0  0  0  0  0  0  0
    0.9066   -0.8883   -0.5809 N   0  0  0  0  0  0  0  0  0  0  0  0
    2.1718   -1.3139   -0.7221 C   0  0  0  0  0  0  0  0  0  0  0  0
    2.9153   -1.3589    0.4331 N   0  0  0  0  0  0  0  0  0  0  0  0
    4.3564   -1.2384    0.3552 C   0  0  0  0  0  0  0  0  0  0  0  0
    4.8748    0.1806    0.5205 C   0  0  0  0  0  0  0  0  0  0  0  0
    4.1056    1.3083    0.1841 C   0  0  0  0  0  0  0  0  0  0  0  0
    4.6198    2.5999    0.3215 C   0  0  0  0  0  0  0  0  0  0  0  0
    5.9137    2.7897    0.7950 C   0  0  0  0  0  0  0  0  0  0  0  0
    6.7027    1.6878    1.1165 C   0  0  0  0  0  0  0  0  0  0  0  0
    6.1999    0.3922    0.9530 C   0  0  0  0  0  0  0  0  0  0  0  0
    6.9495   -0.7058    1.2843 O   0  0  0  0  0  0  0  0  0  0  0  0
    8.1825   -0.7866    0.5761 C   0  0  0  0  0  0  0  0  0  0  0  0
    9.0941    0.0674    1.0875 F   0  0  0  0  0  0  0  0  0  0  0  0
    8.6665   -2.0426    0.7056 F   0  0  0  0  0  0  0  0  0  0  0  0
    8.0165   -0.5368   -0.7403 F   0  0  0  0  0  0  0  0  0  0  0  0
    2.7057   -1.6697   -1.8964 N   0  0  0  0  0  0  0  0  0  0  0  0
    1.9039   -1.6009   -2.9766 C   0  0  0  0  0  0  0  0  0  0  0  0
    0.5995   -1.1757   -2.9069 C   0  0  0  0  0  0  0  0  0  0  0  0
   -0.1791   -1.0911   -4.1137 N   0  0  0  0  0  4  0  0  0  0  0  0
   -0.9844   -0.1523   -4.2171 O   0  0  0  0  0  0  0  0  0  0  0  0
    0.0388   -1.9357   -4.9944 O   0  0  0  0  0  1  0  0  0  0  0  0
   -3.9558   -0.9637   -0.2113 C   0  0  0  0  0  0  0  0  0  0  0  0
   -5.4577   -0.6577   -0.2515 C   0  0  0  0  0  0  0  0  0  0  0  0
   -7.5292   -1.2271    1.5916 H   0  0  0  0  0  0  0  0  0  0  0  0
   -7.2179   -0.1253    2.7510 H   0  0  0  0  0  0  0  0  0  0  0  0
   -7.9439    0.5237   -0.0214 H   0  0  0  0  0  0  0  0  0  0  0  0
   -7.5772    1.6876    1.2412 H   0  0  0  0  0  0  0  0  0  0  0  0
   -5.6892    1.4695   -0.2131 H   0  0  0  0  0  0  0  0  0  0  0  0
   -5.2132    1.7687    2.2413 H   0  0  0  0  0  0  0  0  0  0  0  0
   -4.9677    0.0328    2.3758 H   0  0  0  0  0  0  0  0  0  0  0  0
   -2.8023    0.6916    2.0549 H   0  0  0  0  0  0  0  0  0  0  0  0
   -3.2235    2.1059    1.1097 H   0  0  0  0  0  0  0  0  0  0  0  0
   -3.3648    0.9752   -0.9118 H   0  0  0  0  0  0  0  0  0  0  0  0
   -1.0412    0.9273    0.0829 H   0  0  0  0  0  0  0  0  0  0  0  0
   -1.3489   -0.7431    0.6149 H   0  0  0  0  0  0  0  0  0  0  0  0
   -1.5539    0.1786   -2.2149 H   0  0  0  0  0  0  0  0  0  0  0  0
    2.4558   -0.8406    1.1693 H   0  0  0  0  0  0  0  0  0  0  0  0
    4.7461   -1.8432    1.1832 H   0  0  0  0  0  0  0  0  0  0  0  0
    4.7738   -1.6694   -0.5628 H   0  0  0  0  0  0  0  0  0  0  0  0
    3.0918    1.2036   -0.1933 H   0  0  0  0  0  0  0  0  0  0  0  0
    4.0053    3.4578    0.0608 H   0  0  0  0  0  0  0  0  0  0  0  0
    6.3080    3.7959    0.9150 H   0  0  0  0  0  0  0  0  0  0  0  0
    7.7020    1.8612    1.5075 H   0  0  0  0  0  0  0  0  0  0  0  0
    2.3703   -1.9011   -3.9115 H   0  0  0  0  0  0  0  0  0  0  0  0
   -3.7501   -1.6258    0.6403 H   0  0  0  0  0  0  0  0  0  0  0  0
   -3.6865   -1.5269   -1.1117 H   0  0  0  0  0  0  0  0  0  0  0  0
   -5.9920   -1.5291    0.1437 H   0  0  0  0  0  0  0  0  0  0  0  0
   -5.7773   -0.5603   -1.2972 H   0  0  0  0  0  0  0  0  0  0  0  0
  1  2  1  0
  2  3  1  0
  3  4  1  0
  4  5  1  0
  5  6  1  0
  6  7  1  0
  7  8  1  0
  8  9  1  0
  9 10  2  0
 10 11  1  0
 11 12  1  0
 12 13  1  0
 13 14  1  0
 14 15  2  0
 15 16  1  0
 16 17  2  0
 17 18  1  0
 18 19  2  0
 19 20  1  0
 20 21  1  0
 21 22  1  0
 21 23  1  0
 21 24  1  0
 11 25  2  0
 25 26  1  0
 26 27  2  0
 27 28  1  0
 28 29  2  0
 28 30  1  0
  6 31  1  0
 31 32  1  0
 32  3  1  0
 27  9  1  0
 19 14  1  0
  1 33  1  0
  1 34  1  0
  2 35  1  0
  2 36  1  0
  3 37  1  0
  4 38  1  0
  4 39  1  0
  5 40  1  0
  5 41  1  0
  6 42  1  0
  7 43  1  0
  7 44  1  0
  8 45  1  0
 12 46  1  0
 13 47  1  0
 13 48  1  0
 15 49  1  0
 16 50  1  0
 17 51  1  0
 18 52  1  0
 26 53  1  0
 31 54  1  0
 31 55  1  0
 32 56  1  0
 32 57  1  0
M  CHG  2  28   1  30  -1
M  END
$$$$
