
     RDKit          3D

 44 45  0  0  0  0  0  0  0  0999 V2000
   -8.3488   -0.3080    1.5866 C   0  0  0  0  0  0  0  0  0  0  0  0
   -7.7818    0.7456    0.6480 C   0  0  0  0  0  0  0  0  0  0  0  0
   -6.4098    0.3803    0.0796 C   0  0  0  0  0  0  0  0  0  0  0  0
   -5.3149    0.3099    1.1424 C   0  0  0  0  0  0  0  0  0  0  0  0
   -4.0220    0.0368    0.5520 N   0  0  0  0  0  0  0  0  0  0  0  0
   -3.2260    1.0305    0.0212 C   0  0  0  0  0  0  0  0  0  0  0  0
   -3.5076    2.2236    0.0556 O   0  0  0  0  0  0  0  0  0  0  0  0
   -1.9573    0.5001   -0.6558 C   0  0  0  0  0  0  0  0  0  0  0  0
   -1.5339   -0.7681   -0.1519 O   0  0  0  0  0  0  0  0  0  0  0  0
   -0.7630   -0.6519    1.0518 C   0  0  0  0  0  0  0  0  0  0  0  0
    0.6771   -0.4936    0.6874 C   0  0  0  0  0  0  0  0  0  0  0  0
    1.3418    0.6451    0.7254 N   0  0  0  0  0  0  0  0  0  0  0  0
    2.6546    0.4965    0.3286 N   0  0  0  0  0  0  0  0  0  0  0  0
    2.9319   -0.7534    0.0069 C   0  0  0  0  0  0  0  0  0  0  0  0
    4.2488   -1.1802   -0.4484 C   0  0  0  0  0  0  0  0  0  0  0  0
    4.5171   -2.3433   -0.7371 O   0  0  0  0  0  0  0  0  0  0  0  0
    5.1479   -0.1220   -0.5106 N   0  0  0  0  0  0  0  0  0  0  0  0
    6.5005   -0.1409   -0.9013 C   0  0  0  0  0  0  0  0  0  0  0  0
    7.1808   -1.2899   -1.3127 C   0  0  0  0  0  0  0  0  0  0  0  0
    8.5280   -1.2240   -1.6855 C   0  0  0  0  0  0  0  0  0  0  0  0
    9.2065   -0.0081   -1.6509 C   0  0  0  0  0  0  0  0  0  0  0  0
    8.5329    1.1386   -1.2423 C   0  0  0  0  0  0  0  0  0  0  0  0
    9.3641    2.6453   -1.1958 Cl  0  0  0  0  0  0  0  0  0  0  0  0
    7.1890    1.0784   -0.8692 C   0  0  0  0  0  0  0  0  0  0  0  0
    1.6193   -1.8381    0.1704 S   0  0  0  0  0  0  0  0  0  0  0  0
   -7.7507   -0.3967    2.4982 H   0  0  0  0  0  0  0  0  0  0  0  0
   -8.3876   -1.2878    1.1002 H   0  0  0  0  0  0  0  0  0  0  0  0
   -9.3669   -0.0369    1.8840 H   0  0  0  0  0  0  0  0  0  0  0  0
   -8.4795    0.8797   -0.1873 H   0  0  0  0  0  0  0  0  0  0  0  0
   -7.7251    1.7074    1.1708 H   0  0  0  0  0  0  0  0  0  0  0  0
   -6.4710   -0.5779   -0.4516 H   0  0  0  0  0  0  0  0  0  0  0  0
   -6.1379    1.1309   -0.6734 H   0  0  0  0  0  0  0  0  0  0  0  0
   -5.5094   -0.4974    1.8547 H   0  0  0  0  0  0  0  0  0  0  0  0
   -5.2594    1.2533    1.6967 H   0  0  0  0  0  0  0  0  0  0  0  0
   -3.7540   -0.9229    0.3574 H   0  0  0  0  0  0  0  0  0  0  0  0
   -2.1931    0.3683   -1.7169 H   0  0  0  0  0  0  0  0  0  0  0  0
   -1.1600    1.2463   -0.5730 H   0  0  0  0  0  0  0  0  0  0  0  0
   -0.9083   -1.5731    1.6262 H   0  0  0  0  0  0  0  0  0  0  0  0
   -1.1128    0.1800    1.6738 H   0  0  0  0  0  0  0  0  0  0  0  0
    4.7615    0.7773   -0.2321 H   0  0  0  0  0  0  0  0  0  0  0  0
    6.6947   -2.2599   -1.3574 H   0  0  0  0  0  0  0  0  0  0  0  0
    9.0443   -2.1270   -2.0031 H   0  0  0  0  0  0  0  0  0  0  0  0
   10.2525    0.0374   -1.9415 H   0  0  0  0  0  0  0  0  0  0  0  0
    6.6873    1.9897   -0.5545 H   0  0  0  0  0  0  0  0  0  0  0  0
  1  2  1  0
  2  3  1  0
  3  4  1  0
  4  5  1  0
  5  6  1  0
  6  7  2  0
  6  8  1  0
  8  9  1  0
  9 10  1  0
 10 11  1  0
 11 12  2  0
 12 13  1  0
 13 14  2  0
 14 15  1  0
 15 16  2  0
 15 17  1  0
 17 18  1  0
 18 19  2  0
 19 20  1  0
 20 21  2  0
 21 22  1  0
 22 23  1  0
 22 24  2  0
 14 25  1  0
 25 11  1  0
 24 18  1  0
  1 26  1  0
  1 27  1  0
  1 28  1  0
  2 29  1  0
  2 30  1  0
  3 31  1  0
  3 32  1  0
  4 33  1  0
  4 34  1  0
  5 35  1  0
  8 36  1  0
  8 37  1  0
 10 38  1  0
 10 39  1  0
 17 40  1  0
 19 41  1  0
 20 42  1  0
 21 43  1  0
 24 44  1  0
M  END
$$$$
