
     RDKit          3D

 61 65  0  0  0  0  0  0  0  0999 V2000
   -3.1696   -0.2067    0.1914 C   0  0  0  0  0  0  0  0  0  0  0  0
   -1.6775   -0.1062    0.0621 C   0  0  0  0  0  0  0  0  0  0  0  0
   -0.8457   -0.9916    0.7621 C   0  0  0  0  0  0  0  0  0  0  0  0
    0.5407   -0.9226    0.6182 C   0  0  0  0  0  0  0  0  0  0  0  0
    1.0941    0.0275   -0.2429 C   0  0  0  0  0  0  0  0  0  0  0  0
    2.8533    0.1303   -0.4011 S   0  0  0  0  0  6  0  0  0  0  0  0
    3.1991    1.4895   -0.7600 O   0  0  0  0  0  0  0  0  0  0  0  0
    3.2940   -1.0056   -1.1775 O   0  0  0  0  0  0  0  0  0  0  0  0
    3.4068   -0.0476    1.1047 O   0  0  0  0  0  0  0  0  0  0  0  0
    0.2802    0.9109   -0.9544 C   0  0  0  0  0  0  0  0  0  0  0  0
   -1.1055    0.8360   -0.8048 C   0  0  0  0  0  0  0  0  0  0  0  0
   -1.0784    1.9589   -2.2269 C   0  0  0  0  0  0  0  0  0  0  0  0
   -0.3442    2.5559   -1.1412 N   0  0  0  0  0  0  0  0  0  0  0  0
    0.0942    3.8214   -1.2841 N   0  0  0  0  0  0  0  0  0  0  0  0
    0.6819    4.0408   -0.1095 C   0  0  0  0  0  0  0  0  0  0  0  0
    0.6709    2.9825    0.7457 N   0  0  0  0  0  0  0  0  0  0  0  0
    0.0243    2.0417    0.0794 C   0  0  0  0  0  0  0  0  0  0  0  0
   -0.1964    0.6408    0.5867 C   0  0  1  0  0  0  0  0  0  0  0  0
   -1.6383    0.1778    0.3918 C   0  0  0  0  0  0  0  0  0  0  0  0
   -2.6120    1.0415    0.3866 N   0  0  0  0  0  0  0  0  0  0  0  0
   -3.8871    0.5842    0.2467 N   0  0  0  0  0  0  0  0  0  0  0  0
   -4.2728   -0.7321    0.1609 C   0  0  0  0  0  0  0  0  0  0  0  0
   -5.4442   -1.0761    0.0650 O   0  0  0  0  0  0  0  0  0  0  0  0
   -3.1882   -1.7220    0.1769 C   0  0  0  0  0  0  0  0  0  0  0  0
   -3.4623   -3.0872    0.1056 C   0  0  0  0  0  0  0  0  0  0  0  0
   -2.4017   -3.9808    0.1415 C   0  0  0  0  0  0  0  0  0  0  0  0
   -2.6468   -5.2961    0.0956 F   0  0  0  0  0  0  0  0  0  0  0  0
   -1.0827   -3.5352    0.2263 C   0  0  0  0  0  0  0  0  0  0  0  0
   -0.7977   -2.1660    0.2511 C   0  0  0  0  0  0  0  0  0  0  0  0
   -1.8742   -1.2719    0.2676 C   0  0  0  0  0  0  0  0  0  0  0  0
    0.5234   -1.7344    0.3954 N   0  0  0  0  0  0  0  0  0  0  0  0
    0.7950   -0.3575   -0.0492 C   0  0  2  0  0  0  0  0  0  0  0  0
    2.2543   -0.0541    0.2699 C   0  0  0  0  0  0  0  0  0  0  0  0
    2.7556   -0.1886    1.5781 C   0  0  0  0  0  0  0  0  0  0  0  0
    4.0918    0.0984    1.8605 C   0  0  0  0  0  0  0  0  0  0  0  0
    4.9318    0.5218    0.8391 C   0  0  0  0  0  0  0  0  0  0  0  0
    6.2147    0.7955    1.1096 F   0  0  0  0  0  0  0  0  0  0  0  0
    4.4613    0.6636   -0.4603 C   0  0  0  0  0  0  0  0  0  0  0  0
    3.1252    0.3765   -0.7467 C   0  0  0  0  0  0  0  0  0  0  0  0
   -3.5648   -0.8932   -0.5636 H   0  0  0  0  0  0  0  0  0  0  0  0
   -3.4522   -0.5717    1.1845 H   0  0  0  0  0  0  0  0  0  0  0  0
   -3.6395    0.7738    0.0603 H   0  0  0  0  0  0  0  0  0  0  0  0
   -1.2757   -1.7417    1.4230 H   0  0  0  0  0  0  0  0  0  0  0  0
    1.1776   -1.6129    1.1668 H   0  0  0  0  0  0  0  0  0  0  0  0
    3.9124    0.7634    1.3249 H   0  0  0  0  0  0  0  0  0  0  0  0
    0.7117    1.6508   -1.6249 H   0  0  0  0  0  0  0  0  0  0  0  0
   -1.7393    1.5178   -1.3687 H   0  0  0  0  0  0  0  0  0  0  0  0
   -0.6471    2.2991   -3.1726 H   0  0  0  0  0  0  0  0  0  0  0  0
   -1.0075    0.8721   -2.1804 H   0  0  0  0  0  0  0  0  0  0  0  0
   -2.1199    2.2805   -2.1549 H   0  0  0  0  0  0  0  0  0  0  0  0
    1.1369    4.9939    0.1272 H   0  0  0  0  0  0  0  0  0  0  0  0
   -0.0505    0.6612    1.6770 H   0  0  0  0  0  0  0  0  0  0  0  0
   -4.6248    1.2837    0.2734 H   0  0  0  0  0  0  0  0  0  0  0  0
   -4.4819   -3.4563    0.0389 H   0  0  0  0  0  0  0  0  0  0  0  0
   -0.2872   -4.2740    0.2699 H   0  0  0  0  0  0  0  0  0  0  0  0
    1.2147   -2.4016    0.0537 H   0  0  0  0  0  0  0  0  0  0  0  0
    0.6787   -0.3459   -1.1421 H   0  0  0  0  0  0  0  0  0  0  0  0
    2.1039   -0.5180    2.3855 H   0  0  0  0  0  0  0  0  0  0  0  0
    4.4795   -0.0012    2.8692 H   0  0  0  0  0  0  0  0  0  0  0  0
    5.1364    1.0029   -1.2396 H   0  0  0  0  0  0  0  0  0  0  0  0
    2.7716    0.5043   -1.7674 H   0  0  0  0  0  0  0  0  0  0  0  0
  1  2  1  0
  2  3  2  0
  3  4  1  0
  4  5  2  0
  5  6  1  0
  6  7  2  0
  6  8  2  0
  6  9  1  0
  5 10  1  0
 10 11  2  0
 12 13  1  0
 13 14  1  0
 14 15  2  0
 15 16  1  0
 16 17  2  0
 17 18  1  0
 18 19  1  0
 19 20  2  0
 20 21  1  0
 21 22  1  0
 22 23  2  0
 22 24  1  0
 24 25  2  0
 25 26  1  0
 26 27  1  0
 26 28  2  0
 28 29  1  0
 29 30  2  0
 29 31  1  0
 31 32  1  0
 32 33  1  0
 33 34  2  0
 34 35  1  0
 35 36  2  0
 36 37  1  0
 36 38  1  0
 38 39  2  0
 11  2  1  0
 17 13  1  0
 32 18  1  0
 39 33  1  0
 30 19  1  0
 30 24  1  0
  1 40  1  0
  1 41  1  0
  1 42  1  0
  3 43  1  0
  4 44  1  0
  9 45  1  0
 10 46  1  0
 11 47  1  0
 12 48  1  0
 12 49  1  0
 12 50  1  0
 15 51  1  0
 18 52  1  1
 21 53  1  0
 25 54  1  0
 28 55  1  0
 31 56  1  0
 32 57  1  6
 34 58  1  0
 35 59  1  0
 38 60  1  0
 39 61  1  0
M  END
$$$$
