
     RDKit          3D

 21 20  0  0  0  0  0  0  0  0999 V2000
   -3.3593    0.1603    0.7646 C   0  0  0  0  0  0  0  0  0  0  0  0
   -2.2099    1.0865    0.4690 C   0  0  0  0  0  0  0  0  0  0  0  0
   -1.8292    1.9239    1.2874 O   0  0  0  0  0  0  0  0  0  0  0  0
   -1.4990    0.9095   -0.8420 C   0  0  0  0  0  0  0  0  0  0  0  0
   -0.4643   -0.1784   -0.7676 C   0  0  0  0  0  0  0  0  0  0  0  0
   -0.7683   -1.3466   -1.0105 O   0  0  0  0  0  0  0  0  0  0  0  0
    0.9312    0.2295   -0.3422 C   0  0  0  0  0  0  0  0  0  0  0  0
    1.8668   -0.9685   -0.2357 C   0  0  0  0  0  0  0  0  0  0  0  0
    3.2543   -0.5345    0.1370 C   0  0  0  0  0  0  0  0  0  0  0  0
    3.6723    0.6079    0.2128 O   0  0  0  0  0  0  0  0  0  0  0  0
    4.0640   -1.5814    0.3836 O   0  0  0  0  0  0  0  0  0  0  0  0
   -2.9932   -0.8645    0.8600 H   0  0  0  0  0  0  0  0  0  0  0  0
   -4.0988    0.2241   -0.0375 H   0  0  0  0  0  0  0  0  0  0  0  0
   -3.8374    0.4567    1.7025 H   0  0  0  0  0  0  0  0  0  0  0  0
   -1.0264    1.8535   -1.1328 H   0  0  0  0  0  0  0  0  0  0  0  0
   -2.2235    0.6724   -1.6281 H   0  0  0  0  0  0  0  0  0  0  0  0
    1.3124    0.9446   -1.0802 H   0  0  0  0  0  0  0  0  0  0  0  0
    0.8635    0.7392    0.6255 H   0  0  0  0  0  0  0  0  0  0  0  0
    1.9190   -1.4993   -1.1928 H   0  0  0  0  0  0  0  0  0  0  0  0
    1.4984   -1.6603    0.5304 H   0  0  0  0  0  0  0  0  0  0  0  0
    4.9274   -1.1746    0.6070 H   0  0  0  0  0  0  0  0  0  0  0  0
  1  2  1  0
  2  3  2  0
  2  4  1  0
  4  5  1  0
  5  6  2  0
  5  7  1  0
  7  8  1  0
  8  9  1  0
  9 10  2  0
  9 11  1  0
  1 12  1  0
  1 13  1  0
  1 14  1  0
  4 15  1  0
  4 16  1  0
  7 17  1  0
  7 18  1  0
  8 19  1  0
  8 20  1  0
 11 21  1  0
M  END
$$$$
