
     RDKit          3D

 29 30  0  0  0  0  0  0  0  0999 V2000
   -1.9107   -2.1843   -0.8609 C   0  0  0  0  0  0  0  0  0  0  0  0
   -1.1171   -1.1639   -1.6650 C   0  0  0  0  0  0  0  0  0  0  0  0
   -0.7543   -0.0077   -0.8377 N   0  0  0  0  0  0  0  0  0  0  0  0
   -1.5489    1.1181   -0.7141 C   0  0  0  0  0  0  0  0  0  0  0  0
   -1.2945    2.1902    0.0541 C   0  0  0  0  0  0  0  0  0  0  0  0
   -2.2256    3.3339    0.1107 C   0  0  0  0  0  0  0  0  0  0  0  0
   -2.1639    4.3035    0.8432 O   0  0  0  0  0  0  0  0  0  0  0  0
   -3.2439    3.2382   -0.7701 O   0  0  0  0  0  0  0  0  0  0  0  0
   -0.0365    2.1492    0.8453 C   0  0  0  0  0  0  0  0  0  0  0  0
    0.3287    3.0799    1.5555 O   0  0  0  0  0  0  0  0  0  0  0  0
    0.8031    0.9317    0.7612 C   0  0  0  0  0  0  0  0  0  0  0  0
    1.9730    0.8328    1.5185 C   0  0  0  0  0  0  0  0  0  0  0  0
    2.7437   -0.3190    1.4281 C   0  0  0  0  0  0  0  0  0  0  0  0
    2.3188   -1.3352    0.5823 C   0  0  0  0  0  0  0  0  0  0  0  0
    3.1225   -2.5950    0.4575 C   0  0  0  0  0  0  0  0  0  0  0  0
    1.1855   -1.2471   -0.1575 N   0  0  0  0  0  0  0  0  0  0  0  0
    0.4284   -0.1239   -0.0744 C   0  0  0  0  0  0  0  0  0  0  0  0
   -2.2023   -3.0243   -1.4990 H   0  0  0  0  0  0  0  0  0  0  0  0
   -2.8219   -1.7379   -0.4488 H   0  0  0  0  0  0  0  0  0  0  0  0
   -1.3255   -2.5807   -0.0251 H   0  0  0  0  0  0  0  0  0  0  0  0
   -0.2376   -1.6350   -2.1209 H   0  0  0  0  0  0  0  0  0  0  0  0
   -1.7329   -0.8290   -2.5097 H   0  0  0  0  0  0  0  0  0  0  0  0
   -2.4500    1.0636   -1.3211 H   0  0  0  0  0  0  0  0  0  0  0  0
   -3.7508    4.0624   -0.6064 H   0  0  0  0  0  0  0  0  0  0  0  0
    2.2789    1.6458    2.1728 H   0  0  0  0  0  0  0  0  0  0  0  0
    3.6560   -0.4168    2.0081 H   0  0  0  0  0  0  0  0  0  0  0  0
    3.1994   -3.0923    1.4294 H   0  0  0  0  0  0  0  0  0  0  0  0
    2.6506   -3.2899   -0.2446 H   0  0  0  0  0  0  0  0  0  0  0  0
    4.1274   -2.3675    0.0885 H   0  0  0  0  0  0  0  0  0  0  0  0
  1  2  1  0
  2  3  1  0
  3  4  1  0
  4  5  2  0
  5  6  1  0
  6  7  2  0
  6  8  1  0
  5  9  1  0
  9 10  2  0
  9 11  1  0
 11 12  2  0
 12 13  1  0
 13 14  2  0
 14 15  1  0
 14 16  1  0
 16 17  2  0
 17  3  1  0
 17 11  1  0
  1 18  1  0
  1 19  1  0
  1 20  1  0
  2 21  1  0
  2 22  1  0
  4 23  1  0
  8 24  1  0
 12 25  1  0
 13 26  1  0
 15 27  1  0
 15 28  1  0
 15 29  1  0
M  END
$$$$
