
     RDKit          3D

 24 26  0  0  0  0  0  0  0  0999 V2000
    1.2410    3.1371    0.7067 O   0  0  0  0  0  0  0  0  0  0  0  0
    0.6713    2.0804    0.4522 C   0  0  0  0  0  0  0  0  0  0  0  0
   -0.6906    2.0343    0.2958 N   0  0  0  0  0  0  0  0  0  0  0  0
   -1.4128    0.8715    0.0054 C   0  0  0  0  0  0  0  0  0  0  0  0
   -2.8017    0.9702   -0.1275 C   0  0  0  0  0  0  0  0  0  0  0  0
   -3.5526   -0.1652   -0.4161 C   0  0  0  0  0  0  0  0  0  0  0  0
   -2.9145   -1.3914   -0.5703 C   0  0  0  0  0  0  0  0  0  0  0  0
   -1.5240   -1.4851   -0.4363 C   0  0  0  0  0  0  0  0  0  0  0  0
   -0.7391   -0.3554   -0.1451 C   0  0  0  0  0  0  0  0  0  0  0  0
    0.7323   -0.3864    0.0091 C   0  0  0  0  0  0  0  0  0  0  0  0
    1.5062   -1.5551   -0.1199 C   0  0  0  0  0  0  0  0  0  0  0  0
    2.8981   -1.5324    0.0355 C   0  0  0  0  0  0  0  0  0  0  0  0
    3.5534   -0.3405    0.3240 C   0  0  0  0  0  0  0  0  0  0  0  0
    2.8168    0.8318    0.4577 C   0  0  0  0  0  0  0  0  0  0  0  0
    1.4219    0.8075    0.3017 C   0  0  0  0  0  0  0  0  0  0  0  0
   -1.1700    2.9180    0.4048 H   0  0  0  0  0  0  0  0  0  0  0  0
   -3.3063    1.9250   -0.0083 H   0  0  0  0  0  0  0  0  0  0  0  0
   -4.6321   -0.0943   -0.5205 H   0  0  0  0  0  0  0  0  0  0  0  0
   -3.4973   -2.2815   -0.7959 H   0  0  0  0  0  0  0  0  0  0  0  0
   -1.0771   -2.4660   -0.5666 H   0  0  0  0  0  0  0  0  0  0  0  0
    1.0483   -2.5139   -0.3444 H   0  0  0  0  0  0  0  0  0  0  0  0
    3.4689   -2.4523   -0.0702 H   0  0  0  0  0  0  0  0  0  0  0  0
    4.6335   -0.3229    0.4446 H   0  0  0  0  0  0  0  0  0  0  0  0
    3.3264    1.7664    0.6834 H   0  0  0  0  0  0  0  0  0  0  0  0
  1  2  2  0
  2  3  1  0
  3  4  1  0
  4  5  2  0
  5  6  1  0
  6  7  2  0
  7  8  1  0
  8  9  2  0
  9 10  1  0
 10 11  2  0
 11 12  1  0
 12 13  2  0
 13 14  1  0
 14 15  2  0
 15  2  1  0
  9  4  1  0
 15 10  1  0
  3 16  1  0
  5 17  1  0
  6 18  1  0
  7 19  1  0
  8 20  1  0
 11 21  1  0
 12 22  1  0
 13 23  1  0
 14 24  1  0
M  END
$$$$
