
     RDKit          3D

 45 48  0  0  0  0  0  0  0  0999 V2000
   -2.4837   -1.1225    4.1018 O   0  0  0  0  0  0  0  0  0  0  0  0
   -2.0582   -0.8963    2.9779 C   0  0  0  0  0  0  0  0  0  0  0  0
   -0.7270   -0.8542    2.6338 N   0  0  0  0  0  0  0  0  0  0  0  0
   -0.5177   -0.5866    1.3840 C   0  0  0  0  0  0  0  0  0  0  0  0
    0.7262   -0.4857    0.8045 N   0  0  0  0  0  0  0  0  0  0  0  0
    1.9375   -0.5702    1.6400 C   0  0  0  0  0  0  0  0  0  0  0  0
    3.0459    0.3871    1.1549 C   0  0  0  0  0  0  0  0  0  0  0  0
    3.3931    0.1593   -0.2593 N   0  0  0  0  0  0  0  0  0  0  0  0
    4.6709    0.4238   -0.7271 C   0  0  0  0  0  0  0  0  0  0  0  0
    5.2063   -0.2272   -1.8505 C   0  0  0  0  0  0  0  0  0  0  0  0
    6.4964    0.0460   -2.3233 C   0  0  0  0  0  0  0  0  0  0  0  0
    7.2894    0.9891   -1.6820 C   0  0  0  0  0  0  0  0  0  0  0  0
    6.7891    1.6564   -0.5716 C   0  0  0  0  0  0  0  0  0  0  0  0
    5.4987    1.3746   -0.1058 C   0  0  0  0  0  0  0  0  0  0  0  0
    2.3972   -0.5494   -1.0755 C   0  0  0  0  0  0  0  0  0  0  0  0
    0.9562   -0.2220   -0.6254 C   0  0  0  0  0  0  0  0  0  0  0  0
   -1.9712   -0.3411    0.4239 S   0  0  0  0  0  0  0  0  0  0  0  0
   -2.9409   -0.6264    1.8079 C   0  0  0  0  0  0  0  0  0  0  0  0
   -4.2766   -0.6058    1.9097 C   0  0  0  0  0  0  0  0  0  0  0  0
   -5.2178   -0.3392    0.8184 C   0  0  0  0  0  0  0  0  0  0  0  0
   -6.0061    0.8178    0.8584 C   0  0  0  0  0  0  0  0  0  0  0  0
   -6.9207    1.0857   -0.1637 C   0  0  0  0  0  0  0  0  0  0  0  0
   -7.0473    0.1891   -1.2201 C   0  0  0  0  0  0  0  0  0  0  0  0
   -7.9265    0.4101   -2.2381 O   0  0  0  0  0  0  0  0  0  0  0  0
   -6.2786   -0.9676   -1.2689 C   0  0  0  0  0  0  0  0  0  0  0  0
   -5.3651   -1.2352   -0.2476 C   0  0  0  0  0  0  0  0  0  0  0  0
    2.3019   -1.6044    1.6198 H   0  0  0  0  0  0  0  0  0  0  0  0
    1.7173   -0.3225    2.6848 H   0  0  0  0  0  0  0  0  0  0  0  0
    3.9169    0.2329    1.8035 H   0  0  0  0  0  0  0  0  0  0  0  0
    2.7109    1.4247    1.2729 H   0  0  0  0  0  0  0  0  0  0  0  0
    4.6356   -0.9873   -2.3757 H   0  0  0  0  0  0  0  0  0  0  0  0
    6.8772   -0.4844   -3.1918 H   0  0  0  0  0  0  0  0  0  0  0  0
    8.2900    1.2034   -2.0464 H   0  0  0  0  0  0  0  0  0  0  0  0
    7.3955    2.4025   -0.0652 H   0  0  0  0  0  0  0  0  0  0  0  0
    5.1414    1.9402    0.7502 H   0  0  0  0  0  0  0  0  0  0  0  0
    2.5715   -1.6299   -1.0004 H   0  0  0  0  0  0  0  0  0  0  0  0
    2.4803   -0.2627   -2.1307 H   0  0  0  0  0  0  0  0  0  0  0  0
    0.2780   -0.8245   -1.2400 H   0  0  0  0  0  0  0  0  0  0  0  0
    0.7476    0.8364   -0.8239 H   0  0  0  0  0  0  0  0  0  0  0  0
   -4.7431   -0.7810    2.8781 H   0  0  0  0  0  0  0  0  0  0  0  0
   -5.9100    1.5211    1.6830 H   0  0  0  0  0  0  0  0  0  0  0  0
   -7.5192    1.9899   -0.1166 H   0  0  0  0  0  0  0  0  0  0  0  0
   -8.3944    1.2442   -2.0682 H   0  0  0  0  0  0  0  0  0  0  0  0
   -6.3917   -1.6612   -2.0974 H   0  0  0  0  0  0  0  0  0  0  0  0
   -4.7750   -2.1473   -0.2917 H   0  0  0  0  0  0  0  0  0  0  0  0
  1  2  2  0
  2  3  1  0
  3  4  2  0
  4  5  1  0
  5  6  1  0
  6  7  1  0
  7  8  1  0
  8  9  1  0
  9 10  2  0
 10 11  1  0
 11 12  2  0
 12 13  1  0
 13 14  2  0
  8 15  1  0
 15 16  1  0
  4 17  1  0
 17 18  1  0
 18 19  2  0
 19 20  1  0
 20 21  2  0
 21 22  1  0
 22 23  2  0
 23 24  1  0
 23 25  1  0
 25 26  2  0
 18  2  1  0
 26 20  1  0
 16  5  1  0
 14  9  1  0
  6 27  1  0
  6 28  1  0
  7 29  1  0
  7 30  1  0
 10 31  1  0
 11 32  1  0
 12 33  1  0
 13 34  1  0
 14 35  1  0
 15 36  1  0
 15 37  1  0
 16 38  1  0
 16 39  1  0
 19 40  1  0
 21 41  1  0
 22 42  1  0
 24 43  1  0
 25 44  1  0
 26 45  1  0
M  END
$$$$
