
     RDKit          3D

 48 51  0  0  0  0  0  0  0  0999 V2000
    3.1755   -1.3445   -3.6855 C   0  0  0  0  0  0  0  0  0  0  0  0
    2.3195   -2.1856   -2.7569 C   0  0  0  0  0  0  0  0  0  0  0  0
    2.5691   -1.8227   -1.3900 O   0  0  0  0  0  0  0  0  0  0  0  0
    3.6109   -2.4533   -0.7854 C   0  0  0  0  0  0  0  0  0  0  0  0
    4.3207   -3.2850   -1.3366 O   0  0  0  0  0  0  0  0  0  0  0  0
    3.7760   -2.0203    0.5764 C   0  0  0  0  0  0  0  0  0  0  0  0
    4.7413   -2.5001    1.4469 C   0  0  0  0  0  0  0  0  0  0  0  0
    4.6668   -1.9147    2.6771 N   0  0  0  0  0  0  0  0  0  0  0  0
    3.6640   -1.0723    2.5914 C   0  0  0  0  0  0  0  0  0  0  0  0
    3.1226   -0.1921    3.5680 C   0  0  0  0  0  0  0  0  0  0  0  0
    2.0825    0.6007    3.2549 C   0  0  0  0  0  0  0  0  0  0  0  0
    1.4828    0.5918    1.9231 C   0  0  0  0  0  0  0  0  0  0  0  0
    0.3422    1.4406    1.5527 C   0  0  0  0  0  0  0  0  0  0  0  0
    0.4858    2.5147    0.6761 C   0  0  0  0  0  0  0  0  0  0  0  0
   -0.5300    3.3246    0.2935 N   0  0  0  0  0  0  0  0  0  0  0  0
   -1.7477    3.0506    0.8157 C   0  0  0  0  0  0  0  0  0  0  0  0
   -1.9971    2.0100    1.7053 C   0  0  0  0  0  0  0  0  0  0  0  0
   -3.3159    1.7605    2.1831 N   0  0  0  0  0  0  0  0  0  0  0  0
   -4.1049    0.3414    1.7101 S   0  0  0  0  0  6  0  0  0  0  0  0
   -5.4871    0.5026    2.1081 O   0  0  0  0  0  0  0  0  0  0  0  0
   -3.3261   -0.8012    2.1355 O   0  0  0  0  0  0  0  0  0  0  0  0
   -4.0443    0.4246   -0.0652 C   0  0  0  0  0  0  0  0  0  0  0  0
   -5.0254    1.1460   -0.7527 C   0  0  0  0  0  0  0  0  0  0  0  0
   -4.9820    1.2043   -2.1456 C   0  0  0  0  0  0  0  0  0  0  0  0
   -3.9714    0.5391   -2.8419 C   0  0  0  0  0  0  0  0  0  0  0  0
   -3.0049   -0.1942   -2.1511 C   0  0  0  0  0  0  0  0  0  0  0  0
   -3.0417   -0.2601   -0.7588 C   0  0  0  0  0  0  0  0  0  0  0  0
   -0.9305    1.1959    2.0770 C   0  0  0  0  0  0  0  0  0  0  0  0
    1.9946   -0.2514    1.0018 C   0  0  0  0  0  0  0  0  0  0  0  0
    3.0758   -1.0828    1.3233 N   0  0  0  0  0  0  0  0  0  0  0  0
    3.0028   -0.2782   -3.5066 H   0  0  0  0  0  0  0  0  0  0  0  0
    2.9481   -1.5688   -4.7314 H   0  0  0  0  0  0  0  0  0  0  0  0
    4.2407   -1.5276   -3.5123 H   0  0  0  0  0  0  0  0  0  0  0  0
    1.2606   -1.9846   -2.9512 H   0  0  0  0  0  0  0  0  0  0  0  0
    2.4783   -3.2577   -2.9215 H   0  0  0  0  0  0  0  0  0  0  0  0
    5.4922   -3.2520    1.2315 H   0  0  0  0  0  0  0  0  0  0  0  0
    3.5676   -0.1823    4.5566 H   0  0  0  0  0  0  0  0  0  0  0  0
    1.6666    1.2732    4.0006 H   0  0  0  0  0  0  0  0  0  0  0  0
    1.4521    2.7645    0.2436 H   0  0  0  0  0  0  0  0  0  0  0  0
   -2.5415    3.7105    0.4785 H   0  0  0  0  0  0  0  0  0  0  0  0
   -3.9617    2.5461    2.2525 H   0  0  0  0  0  0  0  0  0  0  0  0
   -5.8254    1.6521   -0.2176 H   0  0  0  0  0  0  0  0  0  0  0  0
   -5.7403    1.7606   -2.6920 H   0  0  0  0  0  0  0  0  0  0  0  0
   -3.9440    0.5817   -3.9289 H   0  0  0  0  0  0  0  0  0  0  0  0
   -2.2277   -0.7198   -2.7007 H   0  0  0  0  0  0  0  0  0  0  0  0
   -2.2922   -0.8418   -0.2269 H   0  0  0  0  0  0  0  0  0  0  0  0
   -1.0857    0.3725    2.7709 H   0  0  0  0  0  0  0  0  0  0  0  0
    1.5885   -0.3154    0.0021 H   0  0  0  0  0  0  0  0  0  0  0  0
  1  2  1  0
  2  3  1  0
  3  4  1  0
  4  5  2  0
  4  6  1  0
  6  7  2  0
  7  8  1  0
  8  9  2  0
  9 10  1  0
 10 11  2  0
 11 12  1  0
 12 13  1  0
 13 14  2  0
 14 15  1  0
 15 16  2  0
 16 17  1  0
 17 18  1  0
 18 19  1  0
 19 20  2  0
 19 21  2  0
 19 22  1  0
 22 23  2  0
 23 24  1  0
 24 25  2  0
 25 26  1  0
 26 27  2  0
 17 28  2  0
 12 29  2  0
 29 30  1  0
 30  6  1  0
 30  9  1  0
 28 13  1  0
 27 22  1  0
  1 31  1  0
  1 32  1  0
  1 33  1  0
  2 34  1  0
  2 35  1  0
  7 36  1  0
 10 37  1  0
 11 38  1  0
 14 39  1  0
 16 40  1  0
 18 41  1  0
 23 42  1  0
 24 43  1  0
 25 44  1  0
 26 45  1  0
 27 46  1  0
 28 47  1  0
 29 48  1  0
M  END
$$$$
