
     RDKit          3D

 35 37  0  0  0  0  0  0  0  0999 V2000
    1.1452   -3.2572   -0.3614 O   0  0  0  0  0  0  0  0  0  0  0  0
    0.0704   -2.6860   -0.3843 C   0  0  0  0  0  0  0  0  0  0  0  0
   -1.0954   -3.2283   -0.7946 N   0  0  0  0  0  0  0  0  0  0  0  0
   -2.1293   -2.4427   -0.4422 C   0  0  0  0  0  0  0  0  0  0  0  0
   -3.3121   -2.7238   -0.4912 O   0  0  0  0  0  0  0  0  0  0  0  0
   -1.5654   -1.1832    0.0816 C   0  0  0  0  0  0  0  0  0  0  0  0
   -2.3618   -0.0302    0.5043 C   0  0  0  0  0  0  0  0  0  0  0  0
   -3.2057   -0.1817    1.6163 C   0  0  0  0  0  0  0  0  0  0  0  0
   -3.9636    0.8921    2.0962 C   0  0  0  0  0  0  0  0  0  0  0  0
   -3.8942    2.1385    1.4758 C   0  0  0  0  0  0  0  0  0  0  0  0
   -3.0736    2.3150    0.3642 C   0  0  0  0  0  0  0  0  0  0  0  0
   -2.3219    1.2315   -0.1172 C   0  0  0  0  0  0  0  0  0  0  0  0
   -1.5000    1.4623   -1.2989 N   0  0  0  0  0  4  0  0  0  0  0  0
   -1.5657    0.6325   -2.2153 O   0  0  0  0  0  0  0  0  0  0  0  0
   -0.7948    2.4802   -1.2995 O   0  0  0  0  0  1  0  0  0  0  0  0
   -0.2269   -1.3019    0.1048 C   0  0  0  0  0  0  0  0  0  0  0  0
    0.7240   -0.4315    0.5898 N   0  0  0  0  0  0  0  0  0  0  0  0
    1.9840   -0.1201    0.0344 C   0  0  0  0  0  0  0  0  0  0  0  0
    2.4084   -0.5523   -1.2292 C   0  0  0  0  0  0  0  0  0  0  0  0
    3.6841   -0.2381   -1.7115 C   0  0  0  0  0  0  0  0  0  0  0  0
    4.5546    0.5030   -0.9258 C   0  0  0  0  0  0  0  0  0  0  0  0
    5.7893    0.7847   -1.4399 O   0  0  0  0  0  0  0  0  0  0  0  0
    4.1602    0.9303    0.3400 C   0  0  0  0  0  0  0  0  0  0  0  0
    5.2376    1.8446    1.3291 Cl  0  0  0  0  0  0  0  0  0  0  0  0
    2.8863    0.6178    0.8188 C   0  0  0  0  0  0  0  0  0  0  0  0
   -1.1905   -4.1867   -1.0854 H   0  0  0  0  0  0  0  0  0  0  0  0
   -3.2879   -1.1434    2.1232 H   0  0  0  0  0  0  0  0  0  0  0  0
   -4.6141    0.7513    2.9577 H   0  0  0  0  0  0  0  0  0  0  0  0
   -4.4876    2.9683    1.8545 H   0  0  0  0  0  0  0  0  0  0  0  0
   -3.0316    3.2877   -0.1229 H   0  0  0  0  0  0  0  0  0  0  0  0
    0.3603    0.3334    1.1513 H   0  0  0  0  0  0  0  0  0  0  0  0
    1.7535   -1.1279   -1.8771 H   0  0  0  0  0  0  0  0  0  0  0  0
    3.9922   -0.5766   -2.6970 H   0  0  0  0  0  0  0  0  0  0  0  0
    6.2724    1.2953   -0.7640 H   0  0  0  0  0  0  0  0  0  0  0  0
    2.5995    0.9430    1.8153 H   0  0  0  0  0  0  0  0  0  0  0  0
  1  2  2  0
  2  3  1  0
  3  4  1  0
  4  5  2  0
  4  6  1  0
  6  7  1  0
  7  8  2  0
  8  9  1  0
  9 10  2  0
 10 11  1  0
 11 12  2  0
 12 13  1  0
 13 14  2  0
 13 15  1  0
  6 16  2  0
 16 17  1  0
 17 18  1  0
 18 19  2  0
 19 20  1  0
 20 21  2  0
 21 22  1  0
 21 23  1  0
 23 24  1  0
 23 25  2  0
 16  2  1  0
 25 18  1  0
 12  7  1  0
  3 26  1  0
  8 27  1  0
  9 28  1  0
 10 29  1  0
 11 30  1  0
 17 31  1  0
 19 32  1  0
 20 33  1  0
 22 34  1  0
 25 35  1  0
M  CHG  2  13   1  15  -1
M  END
$$$$
