
     RDKit          3D

 32 34  0  0  0  0  0  0  0  0999 V2000
   -5.1238   -1.1043   -1.6767 C   0  0  0  0  0  0  0  0  0  0  0  0
   -3.6779   -0.9545   -1.7350 N   0  0  0  0  0  0  0  0  0  0  0  0
   -3.0978   -0.4559   -0.5594 C   0  0  0  0  0  0  0  0  0  0  0  0
   -1.7218   -0.2604   -0.5351 C   0  0  0  0  0  0  0  0  0  0  0  0
   -1.0849    0.2104    0.6408 C   0  0  0  0  0  0  0  0  0  0  0  0
    0.2956    0.4530    0.7806 C   0  0  0  0  0  0  0  0  0  0  0  0
    1.1405    0.2691   -0.3479 N   0  0  0  0  0  0  0  0  0  0  0  0
    2.5519    0.1931   -0.3866 C   0  0  0  0  0  0  0  0  0  0  0  0
    3.3127   -0.3032    0.6799 C   0  0  0  0  0  0  0  0  0  0  0  0
    4.7024   -0.4283    0.5828 C   0  0  0  0  0  0  0  0  0  0  0  0
    5.3535   -0.0812   -0.5976 C   0  0  0  0  0  0  0  0  0  0  0  0
    4.6063    0.3777   -1.6777 C   0  0  0  0  0  0  0  0  0  0  0  0
    5.4774    0.8273   -3.2953 Br  0  0  0  0  0  0  0  0  0  0  0  0
    3.2182    0.5033   -1.5823 C   0  0  0  0  0  0  0  0  0  0  0  0
    0.8291    0.8691    1.9440 N   0  0  0  0  0  0  0  0  0  0  0  0
   -0.0102    1.0616    2.9645 C   0  0  0  0  0  0  0  0  0  0  0  0
   -1.3329    0.8794    2.9391 N   0  0  0  0  0  0  0  0  0  0  0  0
   -1.8526    0.4503    1.7791 C   0  0  0  0  0  0  0  0  0  0  0  0
   -3.2100    0.2150    1.6497 C   0  0  0  0  0  0  0  0  0  0  0  0
   -3.8451   -0.2224    0.5298 N   0  0  0  0  0  0  0  0  0  0  0  0
   -5.6221   -0.1424   -1.5130 H   0  0  0  0  0  0  0  0  0  0  0  0
   -5.4781   -1.5019   -2.6332 H   0  0  0  0  0  0  0  0  0  0  0  0
   -5.4236   -1.8137   -0.8976 H   0  0  0  0  0  0  0  0  0  0  0  0
   -3.3903   -0.3868   -2.5261 H   0  0  0  0  0  0  0  0  0  0  0  0
   -1.1399   -0.5041   -1.4184 H   0  0  0  0  0  0  0  0  0  0  0  0
    0.7769    0.8155   -1.1216 H   0  0  0  0  0  0  0  0  0  0  0  0
    2.8301   -0.6080    1.6051 H   0  0  0  0  0  0  0  0  0  0  0  0
    5.2705   -0.8049    1.4296 H   0  0  0  0  0  0  0  0  0  0  0  0
    6.4329   -0.1822   -0.6675 H   0  0  0  0  0  0  0  0  0  0  0  0
    2.6557    0.8489   -2.4450 H   0  0  0  0  0  0  0  0  0  0  0  0
    0.4234    1.3999    3.8995 H   0  0  0  0  0  0  0  0  0  0  0  0
   -3.8661    0.3805    2.5009 H   0  0  0  0  0  0  0  0  0  0  0  0
  1  2  1  0
  2  3  1  0
  3  4  2  0
  4  5  1  0
  5  6  2  0
  6  7  1  0
  7  8  1  0
  8  9  2  0
  9 10  1  0
 10 11  2  0
 11 12  1  0
 12 13  1  0
 12 14  2  0
  6 15  1  0
 15 16  2  0
 16 17  1  0
 17 18  2  0
 18 19  1  0
 19 20  2  0
 20  3  1  0
 18  5  1  0
 14  8  1  0
  1 21  1  0
  1 22  1  0
  1 23  1  0
  2 24  1  0
  4 25  1  0
  7 26  1  0
  9 27  1  0
 10 28  1  0
 11 29  1  0
 14 30  1  0
 16 31  1  0
 19 32  1  0
M  END
$$$$
