
     RDKit          3D

 57 60  0  0  0  0  0  0  0  0999 V2000
    7.7467   -2.8324   -1.5532 C   0  0  0  0  0  0  0  0  0  0  0  0
    6.6463   -1.7869   -1.5688 C   0  0  0  0  0  0  0  0  0  0  0  0
    6.5783   -1.1998   -0.2695 O   0  0  0  0  0  0  0  0  0  0  0  0
    5.6000   -0.2691   -0.0558 C   0  0  0  0  0  0  0  0  0  0  0  0
    5.5090    0.1876    1.2629 C   0  0  0  0  0  0  0  0  0  0  0  0
    4.5473    1.1330    1.6239 C   0  0  0  0  0  0  0  0  0  0  0  0
    3.6594    1.6152    0.6615 C   0  0  0  0  0  0  0  0  0  0  0  0
    2.6386    2.6086    1.0667 C   0  0  0  0  0  0  0  0  0  0  0  0
    3.0157    3.6113    1.6676 O   0  0  0  0  0  0  0  0  0  0  0  0
    1.3038    2.3642    0.7611 N   0  0  0  0  0  0  0  0  0  0  0  0
    0.7634    1.0641    0.3425 C   0  0  0  0  0  0  0  0  0  0  0  0
   -0.6740    0.8465    0.8343 C   0  0  0  0  0  0  0  0  0  0  0  0
   -1.6048    1.9267    0.3738 N   0  0  0  0  0  0  0  0  0  0  0  0
   -2.5934    1.5343   -0.9605 S   0  0  0  0  0  6  0  0  0  0  0  0
   -1.7217    0.9536   -1.9619 O   0  0  0  0  0  0  0  0  0  0  0  0
   -3.4226    2.6780   -1.2699 O   0  0  0  0  0  0  0  0  0  0  0  0
   -3.6544    0.2506   -0.3141 C   0  0  0  0  0  0  0  0  0  0  0  0
   -3.5201   -1.0364   -0.8582 C   0  0  0  0  0  0  0  0  0  0  0  0
   -4.3254   -2.0772   -0.4027 C   0  0  0  0  0  0  0  0  0  0  0  0
   -5.2670   -1.8365    0.5951 C   0  0  0  0  0  0  0  0  0  0  0  0
   -5.4107   -0.5565    1.1374 C   0  0  0  0  0  0  0  0  0  0  0  0
   -4.6071    0.5091    0.6922 C   0  0  0  0  0  0  0  0  0  0  0  0
   -4.8336    1.8727    1.2846 C   0  0  0  0  0  0  0  0  0  0  0  0
   -6.0666   -2.8742    1.0708 N   0  0  0  0  0  0  0  0  0  0  0  0
   -6.0032   -4.1327    0.5435 C   0  0  0  0  0  0  0  0  0  0  0  0
   -6.7034   -5.0444    0.9795 O   0  0  0  0  0  0  0  0  0  0  0  0
   -5.0478   -4.3059   -0.6369 C   0  0  0  0  0  0  0  0  0  0  0  0
   -4.1025   -3.3009   -0.9664 O   0  0  0  0  0  0  0  0  0  0  0  0
   -0.9453    3.2705    0.2313 C   0  0  0  0  0  0  0  0  0  0  0  0
    0.3174    3.3948    1.0887 C   0  0  0  0  0  0  0  0  0  0  0  0
    3.7641    1.1899   -0.6673 C   0  0  0  0  0  0  0  0  0  0  0  0
    4.7323    0.2448   -1.0235 C   0  0  0  0  0  0  0  0  0  0  0  0
    7.5565   -3.5823   -0.7773 H   0  0  0  0  0  0  0  0  0  0  0  0
    8.7117   -2.3712   -1.3209 H   0  0  0  0  0  0  0  0  0  0  0  0
    7.8209   -3.3361   -2.5223 H   0  0  0  0  0  0  0  0  0  0  0  0
    5.6946   -2.2728   -1.8166 H   0  0  0  0  0  0  0  0  0  0  0  0
    6.8881   -1.0244   -2.3184 H   0  0  0  0  0  0  0  0  0  0  0  0
    6.1917   -0.1990    2.0147 H   0  0  0  0  0  0  0  0  0  0  0  0
    4.4903    1.4878    2.6503 H   0  0  0  0  0  0  0  0  0  0  0  0
    0.7926    1.0436   -0.7522 H   0  0  0  0  0  0  0  0  0  0  0  0
    1.3997    0.2577    0.7196 H   0  0  0  0  0  0  0  0  0  0  0  0
   -1.0224   -0.1414    0.5191 H   0  0  0  0  0  0  0  0  0  0  0  0
   -0.6990    0.8442    1.9312 H   0  0  0  0  0  0  0  0  0  0  0  0
   -2.7920   -1.2390   -1.6415 H   0  0  0  0  0  0  0  0  0  0  0  0
   -6.1573   -0.3803    1.9094 H   0  0  0  0  0  0  0  0  0  0  0  0
   -5.3103    2.5305    0.5529 H   0  0  0  0  0  0  0  0  0  0  0  0
   -5.4960    1.8200    2.1559 H   0  0  0  0  0  0  0  0  0  0  0  0
   -3.8994    2.3171    1.6339 H   0  0  0  0  0  0  0  0  0  0  0  0
   -6.7266   -2.7287    1.8237 H   0  0  0  0  0  0  0  0  0  0  0  0
   -5.6662   -4.4799   -1.5251 H   0  0  0  0  0  0  0  0  0  0  0  0
   -4.4773   -5.2224   -0.4484 H   0  0  0  0  0  0  0  0  0  0  0  0
   -1.6654    4.0391    0.5314 H   0  0  0  0  0  0  0  0  0  0  0  0
   -0.6738    3.4396   -0.8180 H   0  0  0  0  0  0  0  0  0  0  0  0
    0.0718    3.2819    2.1518 H   0  0  0  0  0  0  0  0  0  0  0  0
    0.7631    4.3868    0.9568 H   0  0  0  0  0  0  0  0  0  0  0  0
    3.1034    1.5963   -1.4291 H   0  0  0  0  0  0  0  0  0  0  0  0
    4.7824   -0.0696   -2.0610 H   0  0  0  0  0  0  0  0  0  0  0  0
  1  2  1  0
  2  3  1  0
  3  4  1  0
  4  5  2  0
  5  6  1  0
  6  7  2  0
  7  8  1  0
  8  9  2  0
  8 10  1  0
 10 11  1  0
 11 12  1  0
 12 13  1  0
 13 14  1  0
 14 15  2  0
 14 16  2  0
 14 17  1  0
 17 18  2  0
 18 19  1  0
 19 20  2  0
 20 21  1  0
 21 22  2  0
 22 23  1  0
 20 24  1  0
 24 25  1  0
 25 26  2  0
 25 27  1  0
 27 28  1  0
 13 29  1  0
 29 30  1  0
  7 31  1  0
 31 32  2  0
 32  4  1  0
 30 10  1  0
 22 17  1  0
 28 19  1  0
  1 33  1  0
  1 34  1  0
  1 35  1  0
  2 36  1  0
  2 37  1  0
  5 38  1  0
  6 39  1  0
 11 40  1  0
 11 41  1  0
 12 42  1  0
 12 43  1  0
 18 44  1  0
 21 45  1  0
 23 46  1  0
 23 47  1  0
 23 48  1  0
 24 49  1  0
 27 50  1  0
 27 51  1  0
 29 52  1  0
 29 53  1  0
 30 54  1  0
 30 55  1  0
 31 56  1  0
 32 57  1  0
M  END
$$$$
