
     RDKit          3D

 51 54  0  0  0  0  0  0  0  0999 V2000
    0.3728   -2.3804    0.4655 O   0  0  0  0  0  0  0  0  0  0  0  0
    0.5222   -1.2171    0.0843 C   0  0  0  0  0  0  0  0  0  0  0  0
    1.8823   -0.7589   -0.2451 C   0  0  0  0  0  0  0  0  0  0  0  0
    3.0881   -1.3078    0.2728 C   0  0  0  0  0  0  0  0  0  0  0  0
    4.0878   -0.6067   -0.3481 C   0  0  0  0  0  0  0  0  0  0  0  0
    5.6083   -0.8035   -0.1410 C   0  0  0  0  0  0  0  0  0  0  0  0
    6.4513    0.4011    0.1866 C   0  0  0  0  0  0  0  0  0  0  0  0
    6.1984   -0.6419    1.2354 C   0  0  0  0  0  0  0  0  0  0  0  0
    3.5372    0.2854   -1.2095 O   0  0  0  0  0  0  0  0  0  0  0  0
    2.1600    0.1797   -1.1672 N   0  0  0  0  0  0  0  0  0  0  0  0
   -0.5813   -0.3423   -0.0407 N   0  0  0  0  0  0  0  0  0  0  0  0
   -0.4477    1.1339   -0.0850 C   0  0  0  0  0  0  0  0  0  0  0  0
   -1.2399    1.8481    1.0282 C   0  0  0  0  0  0  0  0  0  0  0  0
   -1.0332    3.3612    0.9672 C   0  0  0  0  0  0  0  0  0  0  0  0
   -1.3855    3.9194   -0.4093 C   0  0  0  0  0  0  0  0  0  0  0  0
   -0.6185    3.2097   -1.5222 C   0  0  0  0  0  0  0  0  0  0  0  0
   -0.8144    1.6957   -1.4679 C   0  0  0  0  0  0  0  0  0  0  0  0
   -1.9426   -0.9217   -0.0205 C   0  0  0  0  0  0  0  0  0  0  0  0
   -2.1615   -1.9685   -1.1262 C   0  0  0  0  0  0  0  0  0  0  0  0
   -3.6241   -2.4139   -1.2005 C   0  0  0  0  0  0  0  0  0  0  0  0
   -4.3205   -2.4672    0.1609 C   0  0  0  0  0  0  0  0  0  0  0  0
   -3.3333   -2.6180    1.3106 C   0  0  0  0  0  0  0  0  0  0  0  0
   -2.3563   -1.4425    1.3715 C   0  0  0  0  0  0  0  0  0  0  0  0
    3.1893   -2.1021    0.9971 H   0  0  0  0  0  0  0  0  0  0  0  0
    6.0523   -1.5505   -0.7908 H   0  0  0  0  0  0  0  0  0  0  0  0
    7.4420    0.4579   -0.2494 H   0  0  0  0  0  0  0  0  0  0  0  0
    5.9629    1.3628    0.2979 H   0  0  0  0  0  0  0  0  0  0  0  0
    7.0194   -1.2928    1.5125 H   0  0  0  0  0  0  0  0  0  0  0  0
    5.5447   -0.3824    2.0594 H   0  0  0  0  0  0  0  0  0  0  0  0
    0.5941    1.3923    0.1203 H   0  0  0  0  0  0  0  0  0  0  0  0
   -0.9235    1.4733    2.0090 H   0  0  0  0  0  0  0  0  0  0  0  0
   -2.3130    1.6445    0.9450 H   0  0  0  0  0  0  0  0  0  0  0  0
    0.0118    3.5980    1.2017 H   0  0  0  0  0  0  0  0  0  0  0  0
   -1.6499    3.8481    1.7311 H   0  0  0  0  0  0  0  0  0  0  0  0
   -1.1672    4.9928   -0.4384 H   0  0  0  0  0  0  0  0  0  0  0  0
   -2.4629    3.8075   -0.5821 H   0  0  0  0  0  0  0  0  0  0  0  0
   -0.9481    3.5887   -2.4961 H   0  0  0  0  0  0  0  0  0  0  0  0
    0.4501    3.4420   -1.4345 H   0  0  0  0  0  0  0  0  0  0  0  0
   -0.2063    1.2213   -2.2465 H   0  0  0  0  0  0  0  0  0  0  0  0
   -1.8583    1.4630   -1.7111 H   0  0  0  0  0  0  0  0  0  0  0  0
   -2.6364   -0.1096   -0.2705 H   0  0  0  0  0  0  0  0  0  0  0  0
   -1.8529   -1.5677   -2.0995 H   0  0  0  0  0  0  0  0  0  0  0  0
   -1.5405   -2.8543   -0.9529 H   0  0  0  0  0  0  0  0  0  0  0  0
   -4.1847   -1.7372   -1.8566 H   0  0  0  0  0  0  0  0  0  0  0  0
   -3.6658   -3.4014   -1.6757 H   0  0  0  0  0  0  0  0  0  0  0  0
   -4.8996   -1.5463    0.3061 H   0  0  0  0  0  0  0  0  0  0  0  0
   -5.0427   -3.2912    0.1715 H   0  0  0  0  0  0  0  0  0  0  0  0
   -3.8718   -2.6946    2.2618 H   0  0  0  0  0  0  0  0  0  0  0  0
   -2.7738   -3.5537    1.1899 H   0  0  0  0  0  0  0  0  0  0  0  0
   -2.8255   -0.6170    1.9221 H   0  0  0  0  0  0  0  0  0  0  0  0
   -1.4936   -1.7350    1.9793 H   0  0  0  0  0  0  0  0  0  0  0  0
  1  2  2  0
  2  3  1  0
  3  4  1  0
  4  5  2  0
  5  6  1  0
  6  7  1  0
  7  8  1  0
  5  9  1  0
  9 10  1  0
  2 11  1  0
 11 12  1  0
 12 13  1  0
 13 14  1  0
 14 15  1  0
 15 16  1  0
 16 17  1  0
 11 18  1  0
 18 19  1  0
 19 20  1  0
 20 21  1  0
 21 22  1  0
 22 23  1  0
 10  3  2  0
 17 12  1  0
 23 18  1  0
  8  6  1  0
  4 24  1  0
  6 25  1  0
  7 26  1  0
  7 27  1  0
  8 28  1  0
  8 29  1  0
 12 30  1  0
 13 31  1  0
 13 32  1  0
 14 33  1  0
 14 34  1  0
 15 35  1  0
 15 36  1  0
 16 37  1  0
 16 38  1  0
 17 39  1  0
 17 40  1  0
 18 41  1  0
 19 42  1  0
 19 43  1  0
 20 44  1  0
 20 45  1  0
 21 46  1  0
 21 47  1  0
 22 48  1  0
 22 49  1  0
 23 50  1  0
 23 51  1  0
M  END
$$$$
