
     RDKit          3D

 61 64  0  0  0  0  0  0  0  0999 V2000
    6.2858    3.8789   -1.4772 C   0  0  0  0  0  0  0  0  0  0  0  0
    5.1012    3.1259   -1.7022 O   0  0  0  0  0  0  0  0  0  0  0  0
    5.0245    1.8942   -1.1086 C   0  0  0  0  0  0  0  0  0  0  0  0
    3.8013    1.2422   -1.2898 C   0  0  0  0  0  0  0  0  0  0  0  0
    3.5761   -0.0295   -0.7486 C   0  0  0  0  0  0  0  0  0  0  0  0
    2.2492   -0.7223   -0.9420 C   0  0  0  0  0  0  0  0  0  0  0  0
    1.1866   -0.3464    0.0846 C   0  0  0  0  0  0  0  0  0  0  0  0
    1.4356    0.2832    1.1123 O   0  0  0  0  0  0  0  0  0  0  0  0
   -0.0986   -0.7722   -0.1929 N   0  0  0  0  0  0  0  0  0  0  0  0
   -0.5490   -1.5255   -1.3397 C   0  0  0  0  0  0  0  0  0  0  0  0
   -1.9781   -1.9686   -1.0027 C   0  0  1  0  0  0  0  0  0  0  0  0
   -2.0163   -3.3546   -0.3582 C   0  0  0  0  0  0  0  0  0  0  0  0
   -3.4080   -3.9822   -0.4237 C   0  0  0  0  0  0  0  0  0  0  0  0
   -4.5591   -2.9932   -0.5316 C   0  0  0  0  0  0  0  0  0  0  0  0
   -4.6490   -2.0556    0.6448 C   0  0  0  0  0  0  0  0  0  0  0  0
   -5.6411   -2.1263    1.3752 O   0  0  0  0  0  0  0  0  0  0  0  0
   -3.6204   -1.1459    0.8659 N   0  0  0  0  0  0  0  0  0  0  0  0
   -3.8755   -0.1568    1.9317 C   0  0  0  0  0  0  0  0  0  0  0  0
   -4.3477    1.1788    1.3981 C   0  0  0  0  0  0  0  0  0  0  0  0
   -5.5962    1.2942    0.7686 C   0  0  0  0  0  0  0  0  0  0  0  0
   -6.0306    2.5232    0.2694 C   0  0  0  0  0  0  0  0  0  0  0  0
   -5.2248    3.6522    0.3975 C   0  0  0  0  0  0  0  0  0  0  0  0
   -3.9876    3.5547    1.0304 C   0  0  0  0  0  0  0  0  0  0  0  0
   -3.5521    2.3263    1.5315 C   0  0  0  0  0  0  0  0  0  0  0  0
   -2.4915   -0.8540   -0.0557 C   0  0  1  0  0  0  0  0  0  0  0  0
   -1.1969   -0.4550    0.6933 C   0  0  0  0  0  0  0  0  0  0  0  0
    4.5980   -0.6352   -0.0079 C   0  0  0  0  0  0  0  0  0  0  0  0
    5.8261    0.0059    0.1803 C   0  0  0  0  0  0  0  0  0  0  0  0
    6.7307   -0.7115    0.9167 O   0  0  0  0  0  0  0  0  0  0  0  0
    7.9641   -0.0749    1.2239 C   0  0  0  0  0  0  0  0  0  0  0  0
    6.0386    1.2708   -0.3757 C   0  0  0  0  0  0  0  0  0  0  0  0
    6.4359    4.0729   -0.4099 H   0  0  0  0  0  0  0  0  0  0  0  0
    7.1570    3.3816   -1.9161 H   0  0  0  0  0  0  0  0  0  0  0  0
    6.1678    4.8450   -1.9774 H   0  0  0  0  0  0  0  0  0  0  0  0
    3.0179    1.7424   -1.8551 H   0  0  0  0  0  0  0  0  0  0  0  0
    1.8811   -0.4868   -1.9477 H   0  0  0  0  0  0  0  0  0  0  0  0
    2.3957   -1.8085   -0.8995 H   0  0  0  0  0  0  0  0  0  0  0  0
   -0.5511   -0.8412   -2.1961 H   0  0  0  0  0  0  0  0  0  0  0  0
    0.1299   -2.3539   -1.5605 H   0  0  0  0  0  0  0  0  0  0  0  0
   -2.5386   -1.9907   -1.9442 H   0  0  0  0  0  0  0  0  0  0  0  0
   -1.6880   -3.3020    0.6872 H   0  0  0  0  0  0  0  0  0  0  0  0
   -1.3145   -4.0328   -0.8591 H   0  0  0  0  0  0  0  0  0  0  0  0
   -3.5462   -4.6287    0.4517 H   0  0  0  0  0  0  0  0  0  0  0  0
   -3.4510   -4.6417   -1.2998 H   0  0  0  0  0  0  0  0  0  0  0  0
   -5.4957   -3.5651   -0.5695 H   0  0  0  0  0  0  0  0  0  0  0  0
   -4.5446   -2.4112   -1.4580 H   0  0  0  0  0  0  0  0  0  0  0  0
   -4.6217   -0.5243    2.6460 H   0  0  0  0  0  0  0  0  0  0  0  0
   -2.9600   -0.0376    2.5210 H   0  0  0  0  0  0  0  0  0  0  0  0
   -6.2431    0.4241    0.6721 H   0  0  0  0  0  0  0  0  0  0  0  0
   -7.0013    2.5985   -0.2138 H   0  0  0  0  0  0  0  0  0  0  0  0
   -5.5648    4.6096    0.0115 H   0  0  0  0  0  0  0  0  0  0  0  0
   -3.3621    4.4372    1.1388 H   0  0  0  0  0  0  0  0  0  0  0  0
   -2.5869    2.2771    2.0311 H   0  0  0  0  0  0  0  0  0  0  0  0
   -2.8084   -0.0120   -0.6860 H   0  0  0  0  0  0  0  0  0  0  0  0
   -1.0566   -1.0384    1.6110 H   0  0  0  0  0  0  0  0  0  0  0  0
   -1.1716    0.6078    0.9502 H   0  0  0  0  0  0  0  0  0  0  0  0
    4.4425   -1.6147    0.4393 H   0  0  0  0  0  0  0  0  0  0  0  0
    8.5441    0.1174    0.3154 H   0  0  0  0  0  0  0  0  0  0  0  0
    7.8040    0.8460    1.7944 H   0  0  0  0  0  0  0  0  0  0  0  0
    8.5455   -0.7576    1.8510 H   0  0  0  0  0  0  0  0  0  0  0  0
    6.9895    1.7671   -0.2396 H   0  0  0  0  0  0  0  0  0  0  0  0
  1  2  1  0
  2  3  1  0
  3  4  2  0
  4  5  1  0
  5  6  1  0
  6  7  1  0
  7  8  2  0
  7  9  1  0
  9 10  1  0
 10 11  1  0
 11 12  1  0
 12 13  1  0
 13 14  1  0
 14 15  1  0
 15 16  2  0
 15 17  1  0
 17 18  1  0
 18 19  1  0
 19 20  2  0
 20 21  1  0
 21 22  2  0
 22 23  1  0
 23 24  2  0
 17 25  1  0
 25 26  1  0
  5 27  2  0
 27 28  1  0
 28 29  1  0
 29 30  1  0
 28 31  2  0
 31  3  1  0
 26  9  1  0
 25 11  1  0
 24 19  1  0
  1 32  1  0
  1 33  1  0
  1 34  1  0
  4 35  1  0
  6 36  1  0
  6 37  1  0
 10 38  1  0
 10 39  1  0
 11 40  1  6
 12 41  1  0
 12 42  1  0
 13 43  1  0
 13 44  1  0
 14 45  1  0
 14 46  1  0
 18 47  1  0
 18 48  1  0
 20 49  1  0
 21 50  1  0
 22 51  1  0
 23 52  1  0
 24 53  1  0
 25 54  1  6
 26 55  1  0
 26 56  1  0
 27 57  1  0
 30 58  1  0
 30 59  1  0
 30 60  1  0
 31 61  1  0
M  END
$$$$
