
     RDKit          3D

 57 60  0  0  0  0  0  0  0  0999 V2000
    6.0809    2.6949    2.0250 C   0  0  0  0  0  0  0  0  0  0  0  0
    6.5521    1.4366    1.3169 C   0  0  0  0  0  0  0  0  0  0  0  0
    5.7984    1.2139    0.1293 O   0  0  0  0  0  0  0  0  0  0  0  0
    4.6749    0.4282    0.1773 C   0  0  0  0  0  0  0  0  0  0  0  0
    4.0731   -0.0304    1.3519 C   0  0  0  0  0  0  0  0  0  0  0  0
    2.9234   -0.8230    1.2958 C   0  0  0  0  0  0  0  0  0  0  0  0
    2.3487   -1.1638    0.0661 C   0  0  0  0  0  0  0  0  0  0  0  0
    1.1117   -2.0361    0.0080 C   0  0  0  0  0  0  0  0  0  0  0  0
   -0.0059   -1.4751    0.7763 N   0  0  0  0  0  0  0  0  0  0  0  0
   -0.6441   -0.3449    0.0590 C   0  0  0  0  0  0  0  0  0  0  0  0
   -2.0202   -0.9281    0.4910 C   0  0  0  0  0  0  0  0  0  0  0  0
   -1.2370   -2.2743    0.5746 C   0  0  0  0  0  0  0  0  0  0  0  0
   -2.5821   -0.4687    1.8369 C   0  0  0  0  0  0  0  0  0  0  0  0
   -3.9839   -0.8522    1.7379 N   0  0  0  0  0  0  0  0  0  0  0  0
   -4.8005   -0.8144    2.8489 C   0  0  0  0  0  0  0  0  0  0  0  0
   -6.2335   -1.2313    2.6414 C   0  0  0  0  0  0  0  0  0  0  0  0
   -4.3974   -0.4601    3.9561 O   0  0  0  0  0  0  0  0  0  0  0  0
   -4.3654   -1.2883    0.4010 C   0  0  0  0  0  0  0  0  0  0  0  0
   -3.1856   -0.9296   -0.4951 C   0  0  0  0  0  0  0  0  0  0  0  0
   -3.3652    0.3825   -1.1702 C   0  0  0  0  0  0  0  0  0  0  0  0
   -3.1270    0.6942   -2.4242 N   0  0  0  0  0  0  0  0  0  0  0  0
   -3.4621    2.0235   -2.4573 C   0  0  0  0  0  0  0  0  0  0  0  0
   -3.3691    2.8378   -3.6823 C   0  0  0  0  0  0  0  0  0  0  0  0
   -3.8907    2.5256   -1.2935 N   0  0  0  0  0  0  0  0  0  0  0  0
   -3.8202    1.4343   -0.4288 O   0  0  0  0  0  0  0  0  0  0  0  0
    2.9498   -0.6978   -1.1137 C   0  0  0  0  0  0  0  0  0  0  0  0
    4.1034    0.0962   -1.0678 C   0  0  0  0  0  0  0  0  0  0  0  0
    4.7479    0.5907   -2.1762 O   0  0  0  0  0  0  0  0  0  0  0  0
    4.2009    0.2870   -3.4505 C   0  0  0  0  0  0  0  0  0  0  0  0
    6.7077    2.9041    2.8973 H   0  0  0  0  0  0  0  0  0  0  0  0
    6.1227    3.5542    1.3472 H   0  0  0  0  0  0  0  0  0  0  0  0
    5.0419    2.6036    2.3556 H   0  0  0  0  0  0  0  0  0  0  0  0
    6.5681    0.5647    1.9806 H   0  0  0  0  0  0  0  0  0  0  0  0
    7.5901    1.5886    1.0002 H   0  0  0  0  0  0  0  0  0  0  0  0
    4.4627    0.2193    2.3325 H   0  0  0  0  0  0  0  0  0  0  0  0
    2.4668   -1.1661    2.2226 H   0  0  0  0  0  0  0  0  0  0  0  0
    0.8358   -2.2235   -1.0385 H   0  0  0  0  0  0  0  0  0  0  0  0
    1.3808   -3.0128    0.4302 H   0  0  0  0  0  0  0  0  0  0  0  0
   -0.4015    0.6434    0.4612 H   0  0  0  0  0  0  0  0  0  0  0  0
   -0.4885   -0.3250   -1.0278 H   0  0  0  0  0  0  0  0  0  0  0  0
   -1.2655   -2.8737   -0.3455 H   0  0  0  0  0  0  0  0  0  0  0  0
   -1.4946   -2.9312    1.4121 H   0  0  0  0  0  0  0  0  0  0  0  0
   -2.5407    0.6203    1.9496 H   0  0  0  0  0  0  0  0  0  0  0  0
   -2.1135   -0.9375    2.7082 H   0  0  0  0  0  0  0  0  0  0  0  0
   -6.7441   -0.5048    2.0040 H   0  0  0  0  0  0  0  0  0  0  0  0
   -6.2818   -2.2286    2.1971 H   0  0  0  0  0  0  0  0  0  0  0  0
   -6.7452   -1.2640    3.6087 H   0  0  0  0  0  0  0  0  0  0  0  0
   -5.3180   -0.8436    0.0963 H   0  0  0  0  0  0  0  0  0  0  0  0
   -4.4920   -2.3767    0.4512 H   0  0  0  0  0  0  0  0  0  0  0  0
   -3.0660   -1.6888   -1.2774 H   0  0  0  0  0  0  0  0  0  0  0  0
   -2.8390    3.7747   -3.4880 H   0  0  0  0  0  0  0  0  0  0  0  0
   -4.3686    3.0759   -4.0596 H   0  0  0  0  0  0  0  0  0  0  0  0
   -2.8281    2.3000   -4.4672 H   0  0  0  0  0  0  0  0  0  0  0  0
    2.4983   -0.9670   -2.0628 H   0  0  0  0  0  0  0  0  0  0  0  0
    3.1906    0.6945   -3.5563 H   0  0  0  0  0  0  0  0  0  0  0  0
    4.8309    0.7646   -4.2068 H   0  0  0  0  0  0  0  0  0  0  0  0
    4.2152   -0.7917   -3.6402 H   0  0  0  0  0  0  0  0  0  0  0  0
  1  2  1  0
  2  3  1  0
  3  4  1  0
  4  5  2  0
  5  6  1  0
  6  7  2  0
  7  8  1  0
  8  9  1  0
  9 10  1  0
 10 11  1  0
 11 12  1  0
 11 13  1  0
 13 14  1  0
 14 15  1  0
 15 16  1  0
 15 17  2  0
 14 18  1  0
 18 19  1  0
 19 20  1  0
 20 21  2  0
 21 22  1  0
 22 23  1  0
 22 24  2  0
 24 25  1  0
  7 26  1  0
 26 27  2  0
 27 28  1  0
 28 29  1  0
 27  4  1  0
 12  9  1  0
 25 20  1  0
 19 11  1  0
  1 30  1  0
  1 31  1  0
  1 32  1  0
  2 33  1  0
  2 34  1  0
  5 35  1  0
  6 36  1  0
  8 37  1  0
  8 38  1  0
 10 39  1  0
 10 40  1  0
 12 41  1  0
 12 42  1  0
 13 43  1  0
 13 44  1  0
 16 45  1  0
 16 46  1  0
 16 47  1  0
 18 48  1  0
 18 49  1  0
 19 50  1  0
 23 51  1  0
 23 52  1  0
 23 53  1  0
 26 54  1  0
 29 55  1  0
 29 56  1  0
 29 57  1  0
M  END
$$$$
