
     RDKit          3D

 94100  0  0  0  0  0  0  0  0999 V2000
   -1.1029   -3.6936    0.8108 C   0  0  0  0  0  0  0  0  0  0  0  0
   -1.5666   -2.4919    0.0272 C   0  0  0  0  0  0  0  0  0  0  0  0
   -1.0350   -2.1950   -1.2427 C   0  0  0  0  0  0  0  0  0  0  0  0
    0.0254   -2.9867   -1.8612 C   0  0  0  0  0  0  0  0  0  0  0  0
   -0.2183   -3.9404   -2.8455 C   0  0  0  0  0  0  0  0  0  0  0  0
   -1.4862   -4.4127   -3.3565 C   0  0  0  0  0  0  0  0  0  0  0  0
   -1.7579   -5.2204   -4.4538 C   0  0  0  0  0  0  0  0  0  0  0  0
   -3.1616   -5.4033   -4.5186 C   0  0  0  0  0  0  0  0  0  0  0  0
   -3.6800   -4.6916   -3.4689 C   0  0  0  0  0  0  0  0  0  0  0  0
   -4.9856   -4.6012   -3.1742 F   0  0  0  0  0  0  0  0  0  0  0  0
   -2.6856   -4.1053   -2.7572 O   0  0  0  0  0  0  0  0  0  0  0  0
    1.2541   -4.5746   -3.4572 S   0  0  0  0  0  0  0  0  0  0  0  0
    2.1928   -3.6160   -2.4163 C   0  0  0  0  0  0  0  0  0  0  0  0
    3.5349   -3.6677   -2.4620 N   0  0  0  0  0  0  0  0  0  0  0  0
    4.1115   -2.8540   -1.5729 C   0  0  0  0  0  0  0  0  0  0  0  0
    3.5022   -2.0676   -0.6786 N   0  0  0  0  0  0  0  0  0  0  0  0
    2.1559   -2.0510   -0.6632 C   0  0  0  0  0  0  0  0  0  0  0  0
    1.4817   -1.2609    0.2450 O   0  0  0  0  0  0  0  0  0  0  0  0
    2.2514   -0.7236    1.3171 C   0  0  2  0  0  0  0  0  0  0  0  0
    2.6368    0.7559    1.0862 C   0  0  0  0  0  0  0  0  0  0  0  0
    3.2817    1.1002   -0.2426 C   0  0  0  0  0  0  0  0  0  0  0  0
    2.4578    1.2463   -1.3759 C   0  0  0  0  0  0  0  0  0  0  0  0
    3.0022    1.5204   -2.6282 C   0  0  0  0  0  0  0  0  0  0  0  0
    4.3782    1.6657   -2.7646 C   0  0  0  0  0  0  0  0  0  0  0  0
    5.2095    1.5445   -1.6473 C   0  0  0  0  0  0  0  0  0  0  0  0
    4.6712    1.2622   -0.3828 C   0  0  0  0  0  0  0  0  0  0  0  0
    5.4153    1.1690    0.7648 O   0  0  0  0  0  0  0  0  0  0  0  0
    6.8082    0.9072    0.6047 C   0  0  0  0  0  0  0  0  0  0  0  0
    7.3666    0.7220    1.9756 C   0  0  0  0  0  0  0  0  0  0  0  0
    7.6259   -0.4419    2.6748 C   0  0  0  0  0  0  0  0  0  0  0  0
    8.1543   -0.0218    3.9049 C   0  0  0  0  0  0  0  0  0  0  0  0
    8.2395    1.3079    3.9928 N   0  0  0  0  0  0  0  0  0  0  0  0
    7.7364    1.7446    2.8195 N   0  0  0  0  0  0  0  0  0  0  0  0
    7.5713    3.1663    2.6331 C   0  0  0  0  0  0  0  0  0  0  0  0
    8.7769    3.7980    1.9932 C   0  0  0  0  0  0  0  0  0  0  0  0
    9.8990    3.6734    2.7248 F   0  0  0  0  0  0  0  0  0  0  0  0
    9.0229    3.2859    0.7664 F   0  0  0  0  0  0  0  0  0  0  0  0
    8.5603    5.1294    1.8224 F   0  0  0  0  0  0  0  0  0  0  0  0
    3.3445   -1.5674    1.9958 C   0  0  0  0  0  0  0  0  0  0  0  0
    4.4293   -1.2050    2.4170 O   0  0  0  0  0  0  0  0  0  0  0  0
    2.9527   -2.8474    2.2085 O   0  0  0  0  0  0  0  0  0  0  0  0
    1.4315   -2.8288   -1.5782 C   0  0  0  0  0  0  0  0  0  0  0  0
   -1.4736   -1.0655   -1.9505 C   0  0  0  0  0  0  0  0  0  0  0  0
   -2.4291   -0.2074   -1.4079 C   0  0  0  0  0  0  0  0  0  0  0  0
   -2.9486   -0.4532   -0.1366 C   0  0  0  0  0  0  0  0  0  0  0  0
   -3.8681    0.3610    0.4811 O   0  0  0  0  0  0  0  0  0  0  0  0
   -4.1171    1.6448   -0.0994 C   0  0  0  0  0  0  0  0  0  0  0  0
   -5.0090    2.4744    0.8490 C   0  0  0  0  0  0  0  0  0  0  0  0
   -6.4064    2.0157    0.9225 N   0  0  0  0  0  0  0  0  0  0  0  0
   -7.0816    2.5489    2.1223 C   0  0  0  0  0  0  0  0  0  0  0  0
   -8.6089    2.3348    2.0597 C   0  0  0  0  0  0  0  0  0  0  0  0
   -9.2551    3.0765    0.9550 N   0  0  0  0  0  0  0  0  0  0  0  0
  -10.4508    2.3712    0.5005 C   0  0  0  0  0  0  0  0  0  0  0  0
   -8.3133    3.3225   -0.1509 C   0  0  0  0  0  0  0  0  0  0  0  0
   -7.1867    2.2749   -0.3025 C   0  0  0  0  0  0  0  0  0  0  0  0
   -2.5195   -1.5989    0.5731 C   0  0  0  0  0  0  0  0  0  0  0  0
   -3.1453   -1.8786    2.1747 Cl  0  0  0  0  0  0  0  0  0  0  0  0
   -0.5424   -4.4088    0.2031 H   0  0  0  0  0  0  0  0  0  0  0  0
   -1.9566   -4.2572    1.2046 H   0  0  0  0  0  0  0  0  0  0  0  0
   -0.4559   -3.3829    1.6383 H   0  0  0  0  0  0  0  0  0  0  0  0
   -1.0278   -5.6338   -5.1366 H   0  0  0  0  0  0  0  0  0  0  0  0
   -3.7326   -5.9703   -5.2417 H   0  0  0  0  0  0  0  0  0  0  0  0
    5.1987   -2.8245   -1.5673 H   0  0  0  0  0  0  0  0  0  0  0  0
    1.5159   -0.6637    2.1363 H   0  0  0  0  0  0  0  0  0  0  0  0
    1.7146    1.3524    1.1363 H   0  0  0  0  0  0  0  0  0  0  0  0
    3.2453    1.1289    1.9186 H   0  0  0  0  0  0  0  0  0  0  0  0
    1.3805    1.1188   -1.2857 H   0  0  0  0  0  0  0  0  0  0  0  0
    2.3533    1.6152   -3.4956 H   0  0  0  0  0  0  0  0  0  0  0  0
    4.8031    1.8890   -3.7399 H   0  0  0  0  0  0  0  0  0  0  0  0
    6.2744    1.6866   -1.8023 H   0  0  0  0  0  0  0  0  0  0  0  0
    7.3102    1.7524    0.1130 H   0  0  0  0  0  0  0  0  0  0  0  0
    6.9664   -0.0065    0.0138 H   0  0  0  0  0  0  0  0  0  0  0  0
    7.4349   -1.4541    2.3420 H   0  0  0  0  0  0  0  0  0  0  0  0
    8.4803   -0.6280    4.7401 H   0  0  0  0  0  0  0  0  0  0  0  0
    7.3779    3.6136    3.6132 H   0  0  0  0  0  0  0  0  0  0  0  0
    6.6809    3.3328    2.0192 H   0  0  0  0  0  0  0  0  0  0  0  0
    3.7253   -3.2565    2.6434 H   0  0  0  0  0  0  0  0  0  0  0  0
   -1.0561   -0.8393   -2.9294 H   0  0  0  0  0  0  0  0  0  0  0  0
   -2.7401    0.6414   -2.0066 H   0  0  0  0  0  0  0  0  0  0  0  0
   -3.1655    2.1801   -0.2163 H   0  0  0  0  0  0  0  0  0  0  0  0
   -4.5907    1.5258   -1.0798 H   0  0  0  0  0  0  0  0  0  0  0  0
   -4.5601    2.4141    1.8490 H   0  0  0  0  0  0  0  0  0  0  0  0
   -4.9838    3.5249    0.5372 H   0  0  0  0  0  0  0  0  0  0  0  0
   -6.6901    2.0376    3.0107 H   0  0  0  0  0  0  0  0  0  0  0  0
   -6.8776    3.6203    2.2436 H   0  0  0  0  0  0  0  0  0  0  0  0
   -9.0579    2.6644    3.0036 H   0  0  0  0  0  0  0  0  0  0  0  0
   -8.7939    1.2533    1.9790 H   0  0  0  0  0  0  0  0  0  0  0  0
  -11.0010    2.9826   -0.2240 H   0  0  0  0  0  0  0  0  0  0  0  0
  -11.1353    2.1999    1.3368 H   0  0  0  0  0  0  0  0  0  0  0  0
  -10.2159    1.4052    0.0374 H   0  0  0  0  0  0  0  0  0  0  0  0
   -8.8410    3.4350   -1.1056 H   0  0  0  0  0  0  0  0  0  0  0  0
   -7.8423    4.2974    0.0341 H   0  0  0  0  0  0  0  0  0  0  0  0
   -6.5463    2.5796   -1.1368 H   0  0  0  0  0  0  0  0  0  0  0  0
   -7.6377    1.3241   -0.6123 H   0  0  0  0  0  0  0  0  0  0  0  0
  1  2  1  0
  2  3  2  0
  3  4  1  0
  4  5  2  0
  5  6  1  0
  6  7  2  0
  7  8  1  0
  8  9  2  0
  9 10  1  0
  9 11  1  0
  5 12  1  0
 12 13  1  0
 13 14  2  0
 14 15  1  0
 15 16  2  0
 16 17  1  0
 17 18  1  0
 18 19  1  0
 19 20  1  0
 20 21  1  0
 21 22  2  0
 22 23  1  0
 23 24  2  0
 24 25  1  0
 25 26  2  0
 26 27  1  0
 27 28  1  0
 28 29  1  0
 29 30  2  0
 30 31  1  0
 31 32  2  0
 32 33  1  0
 33 34  1  0
 34 35  1  0
 35 36  1  0
 35 37  1  0
 35 38  1  0
 19 39  1  0
 39 40  2  0
 39 41  1  0
 17 42  2  0
  3 43  1  0
 43 44  2  0
 44 45  1  0
 45 46  1  0
 46 47  1  0
 47 48  1  0
 48 49  1  0
 49 50  1  0
 50 51  1  0
 51 52  1  0
 52 53  1  0
 52 54  1  0
 54 55  1  0
 45 56  2  0
 56 57  1  0
 56  2  1  0
 42  4  1  0
 55 49  1  0
 11  6  1  0
 42 13  1  0
 26 21  1  0
 33 29  1  0
  1 58  1  0
  1 59  1  0
  1 60  1  0
  7 61  1  0
  8 62  1  0
 15 63  1  0
 19 64  1  1
 20 65  1  0
 20 66  1  0
 22 67  1  0
 23 68  1  0
 24 69  1  0
 25 70  1  0
 28 71  1  0
 28 72  1  0
 30 73  1  0
 31 74  1  0
 34 75  1  0
 34 76  1  0
 41 77  1  0
 43 78  1  0
 44 79  1  0
 47 80  1  0
 47 81  1  0
 48 82  1  0
 48 83  1  0
 50 84  1  0
 50 85  1  0
 51 86  1  0
 51 87  1  0
 53 88  1  0
 53 89  1  0
 53 90  1  0
 54 91  1  0
 54 92  1  0
 55 93  1  0
 55 94  1  0
M  END
$$$$
