
     RDKit          3D

 43 44  0  0  0  0  0  0  0  0999 V2000
    1.7387    1.2688    1.6917 O   0  0  0  0  0  0  0  0  0  0  0  0
    2.1067    0.0451    1.0108 S   0  0  0  0  0  6  0  0  0  0  0  0
    2.1575   -1.2124    1.7237 O   0  0  0  0  0  0  0  0  0  0  0  0
    3.6909    0.3372    0.2617 C   0  0  0  0  0  0  0  0  0  0  0  0
    4.7262   -0.5879    0.4145 C   0  0  0  0  0  0  0  0  0  0  0  0
    5.9596   -0.3388   -0.1872 C   0  0  0  0  0  0  0  0  0  0  0  0
    6.1549    0.8301   -0.9258 C   0  0  0  0  0  0  0  0  0  0  0  0
    5.1210    1.7582   -1.0627 C   0  0  0  0  0  0  0  0  0  0  0  0
    3.8844    1.5164   -0.4658 C   0  0  0  0  0  0  0  0  0  0  0  0
    1.0891   -0.1526   -0.3501 N   0  0  0  0  0  0  0  0  0  0  0  0
    1.4191   -1.2485   -1.3329 C   0  0  0  0  0  0  0  0  0  0  0  0
    1.5761   -2.6746   -0.8014 C   0  0  0  0  0  0  0  0  0  0  0  0
    0.6014   -3.0287    0.0582 F   0  0  0  0  0  0  0  0  0  0  0  0
    2.7745   -2.8705   -0.2153 F   0  0  0  0  0  0  0  0  0  0  0  0
    1.5138   -3.5449   -1.8438 F   0  0  0  0  0  0  0  0  0  0  0  0
   -0.3171    0.0368   -0.0993 C   0  0  0  0  0  0  0  0  0  0  0  0
   -1.0331    0.8339   -0.9896 C   0  0  0  0  0  0  0  0  0  0  0  0
   -2.4144    0.9903   -0.8432 C   0  0  0  0  0  0  0  0  0  0  0  0
   -3.1225    0.3373    0.1863 C   0  0  0  0  0  0  0  0  0  0  0  0
   -4.6416    0.5521    0.3077 C   0  0  0  0  0  0  0  0  0  0  0  0
   -5.1647    0.3531   -1.0470 O   0  0  0  0  0  0  0  0  0  0  0  0
   -5.3738   -0.3847    1.2768 C   0  0  0  0  0  0  0  0  0  0  0  0
   -5.1650   -1.6797    0.9113 F   0  0  0  0  0  0  0  0  0  0  0  0
   -4.9686   -0.2667    2.5579 F   0  0  0  0  0  0  0  0  0  0  0  0
   -6.7140   -0.2080    1.2572 F   0  0  0  0  0  0  0  0  0  0  0  0
   -4.9655    1.9576    0.8344 C   0  0  0  0  0  0  0  0  0  0  0  0
   -4.4459    2.9276    0.0392 F   0  0  0  0  0  0  0  0  0  0  0  0
   -6.2968    2.1920    0.8959 F   0  0  0  0  0  0  0  0  0  0  0  0
   -4.4677    2.1655    2.0754 F   0  0  0  0  0  0  0  0  0  0  0  0
   -2.3884   -0.4871    1.0542 C   0  0  0  0  0  0  0  0  0  0  0  0
   -1.0039   -0.6446    0.9045 C   0  0  0  0  0  0  0  0  0  0  0  0
    4.5853   -1.4970    0.9960 H   0  0  0  0  0  0  0  0  0  0  0  0
    6.7726   -1.0525   -0.0748 H   0  0  0  0  0  0  0  0  0  0  0  0
    7.1208    1.0232   -1.3874 H   0  0  0  0  0  0  0  0  0  0  0  0
    5.2841    2.6734   -1.6271 H   0  0  0  0  0  0  0  0  0  0  0  0
    3.0831    2.2463   -0.5610 H   0  0  0  0  0  0  0  0  0  0  0  0
    0.6346   -1.2626   -2.1011 H   0  0  0  0  0  0  0  0  0  0  0  0
    2.3317   -0.9621   -1.8682 H   0  0  0  0  0  0  0  0  0  0  0  0
   -0.5195    1.3554   -1.7934 H   0  0  0  0  0  0  0  0  0  0  0  0
   -2.9387    1.6368   -1.5485 H   0  0  0  0  0  0  0  0  0  0  0  0
   -5.0472   -0.5928   -1.2585 H   0  0  0  0  0  0  0  0  0  0  0  0
   -2.8571   -1.0332    1.8713 H   0  0  0  0  0  0  0  0  0  0  0  0
   -0.4806   -1.3075    1.5911 H   0  0  0  0  0  0  0  0  0  0  0  0
  1  2  2  0
  2  3  2  0
  2  4  1  0
  4  5  2  0
  5  6  1  0
  6  7  2  0
  7  8  1  0
  8  9  2  0
  2 10  1  0
 10 11  1  0
 11 12  1  0
 12 13  1  0
 12 14  1  0
 12 15  1  0
 10 16  1  0
 16 17  2  0
 17 18  1  0
 18 19  2  0
 19 20  1  0
 20 21  1  0
 20 22  1  0
 22 23  1  0
 22 24  1  0
 22 25  1  0
 20 26  1  0
 26 27  1  0
 26 28  1  0
 26 29  1  0
 19 30  1  0
 30 31  2  0
  9  4  1  0
 31 16  1  0
  5 32  1  0
  6 33  1  0
  7 34  1  0
  8 35  1  0
  9 36  1  0
 11 37  1  0
 11 38  1  0
 17 39  1  0
 18 40  1  0
 21 41  1  0
 30 42  1  0
 31 43  1  0
M  END
$$$$
