
     RDKit          3D

 69 72  0  0  0  0  0  0  0  0999 V2000
   -5.3592   -0.5733   -0.6833 C   0  0  0  0  0  0  0  0  0  0  0  0
   -4.5083   -1.8431   -0.8878 C   0  0  0  0  0  0  0  0  0  0  0  0
   -5.4574   -3.0087   -1.2199 C   0  0  0  0  0  0  0  0  0  0  0  0
   -3.7225   -2.1769    0.4050 C   0  0  0  0  0  0  0  0  0  0  0  0
   -2.4877   -1.3437    0.6033 C   0  0  0  0  0  0  0  0  0  0  0  0
   -1.9301   -0.5996   -0.3709 C   0  0  0  0  0  0  0  0  0  0  0  0
   -0.6779    0.1373   -0.1086 C   0  0  0  0  0  0  0  0  0  0  0  0
    0.3921   -0.6751    0.0981 N   0  0  0  0  0  0  0  0  0  0  0  0
    1.6037   -0.1118    0.3075 C   0  0  0  0  0  0  0  0  0  0  0  0
    2.7495   -1.0756    0.5471 C   0  0  0  0  0  0  0  0  0  0  0  0
    3.4569   -0.8388    1.8809 C   0  0  0  0  0  0  0  0  0  0  0  0
    4.7286   -1.6890    2.0157 C   0  0  0  0  0  0  0  0  0  0  0  0
    5.5542   -1.1875    3.2086 C   0  0  0  0  0  0  0  0  0  0  0  0
    4.3711   -3.1643    2.2515 C   0  0  0  0  0  0  0  0  0  0  0  0
    5.5934   -1.6650    0.8779 O   0  0  0  0  0  0  0  0  0  0  0  0
    5.1973   -0.9474   -0.2919 C   0  0  0  0  0  0  0  0  0  0  0  0
    6.0529   -1.5298   -1.4330 C   0  0  0  0  0  0  0  0  0  0  0  0
    5.5783    0.5348   -0.1527 C   0  0  0  0  0  0  0  0  0  0  0  0
    3.7143   -1.1539   -0.6427 C   0  0  0  0  0  0  0  0  0  0  0  0
    1.7770    1.2670    0.2943 C   0  0  0  0  0  0  0  0  0  0  0  0
    0.6687    2.0929    0.0967 C   0  0  0  0  0  0  0  0  0  0  0  0
   -0.5965    1.5395   -0.0971 C   0  0  0  0  0  0  0  0  0  0  0  0
   -1.7625    2.3231   -0.2459 N   0  0  0  0  0  0  0  0  0  0  0  0
   -1.8831    3.6967   -0.2932 C   0  0  0  0  0  0  0  0  0  0  0  0
   -0.9738    4.5164   -0.2265 O   0  0  0  0  0  0  0  0  0  0  0  0
   -3.2700    4.1089   -0.4288 C   0  0  0  0  0  0  0  0  0  0  0  0
   -4.2928    3.2780   -0.5714 N   0  0  0  0  0  0  0  0  0  0  0  0
   -5.4054    4.0798   -0.6554 C   0  0  0  0  0  0  0  0  0  0  0  0
   -5.0595    5.4064   -0.5520 C   0  0  0  0  0  0  0  0  0  0  0  0
   -5.8863    6.5556   -0.5802 C   0  0  0  0  0  0  0  0  0  0  0  0
   -6.5463    7.5089   -0.6045 N   0  0  0  0  0  0  0  0  0  0  0  0
   -3.6966    5.4128   -0.4150 N   0  0  0  0  0  0  0  0  0  0  0  0
   -2.4690   -0.5560   -1.7780 C   0  0  0  0  0  0  0  0  0  0  0  0
   -3.5104   -1.6493   -2.0534 C   0  0  0  0  0  0  0  0  0  0  0  0
   -6.1277   -0.7363    0.0823 H   0  0  0  0  0  0  0  0  0  0  0  0
   -5.8711   -0.2888   -1.6102 H   0  0  0  0  0  0  0  0  0  0  0  0
   -4.7608    0.2841   -0.3574 H   0  0  0  0  0  0  0  0  0  0  0  0
   -6.1503   -3.2033   -0.3930 H   0  0  0  0  0  0  0  0  0  0  0  0
   -4.8987   -3.9325   -1.4085 H   0  0  0  0  0  0  0  0  0  0  0  0
   -6.0538   -2.7921   -2.1132 H   0  0  0  0  0  0  0  0  0  0  0  0
   -3.4063   -3.2290    0.3922 H   0  0  0  0  0  0  0  0  0  0  0  0
   -4.3763   -2.0583    1.2776 H   0  0  0  0  0  0  0  0  0  0  0  0
   -2.0204   -1.3931    1.5858 H   0  0  0  0  0  0  0  0  0  0  0  0
    2.2793   -2.0663    0.6243 H   0  0  0  0  0  0  0  0  0  0  0  0
    3.7058    0.2212    2.0013 H   0  0  0  0  0  0  0  0  0  0  0  0
    2.7670   -1.0563    2.7089 H   0  0  0  0  0  0  0  0  0  0  0  0
    5.9298   -0.1750    3.0222 H   0  0  0  0  0  0  0  0  0  0  0  0
    4.9660   -1.1734    4.1317 H   0  0  0  0  0  0  0  0  0  0  0  0
    6.4335   -1.8186    3.3714 H   0  0  0  0  0  0  0  0  0  0  0  0
    3.7185   -3.2883    3.1215 H   0  0  0  0  0  0  0  0  0  0  0  0
    5.2732   -3.7658    2.4095 H   0  0  0  0  0  0  0  0  0  0  0  0
    3.8724   -3.5965    1.3757 H   0  0  0  0  0  0  0  0  0  0  0  0
    5.8266   -1.0527   -2.3935 H   0  0  0  0  0  0  0  0  0  0  0  0
    7.1228   -1.4029   -1.2234 H   0  0  0  0  0  0  0  0  0  0  0  0
    5.8882   -2.6093   -1.5336 H   0  0  0  0  0  0  0  0  0  0  0  0
    6.6524    0.6391    0.0413 H   0  0  0  0  0  0  0  0  0  0  0  0
    5.0847    1.0286    0.6849 H   0  0  0  0  0  0  0  0  0  0  0  0
    5.3396    1.0955   -1.0625 H   0  0  0  0  0  0  0  0  0  0  0  0
    3.4224   -0.4746   -1.4539 H   0  0  0  0  0  0  0  0  0  0  0  0
    3.5973   -2.1627   -1.0636 H   0  0  0  0  0  0  0  0  0  0  0  0
    2.7525    1.7165    0.4476 H   0  0  0  0  0  0  0  0  0  0  0  0
    0.8324    3.1655    0.1169 H   0  0  0  0  0  0  0  0  0  0  0  0
   -2.6511    1.8296   -0.3105 H   0  0  0  0  0  0  0  0  0  0  0  0
   -6.3985    3.6589   -0.7718 H   0  0  0  0  0  0  0  0  0  0  0  0
   -3.0942    6.2178   -0.2991 H   0  0  0  0  0  0  0  0  0  0  0  0
   -2.9223    0.4239   -1.9727 H   0  0  0  0  0  0  0  0  0  0  0  0
   -1.6506   -0.6682   -2.5026 H   0  0  0  0  0  0  0  0  0  0  0  0
   -4.0431   -1.4106   -2.9829 H   0  0  0  0  0  0  0  0  0  0  0  0
   -2.9818   -2.5957   -2.2370 H   0  0  0  0  0  0  0  0  0  0  0  0
  1  2  1  0
  2  3  1  0
  2  4  1  0
  4  5  1  0
  5  6  2  0
  6  7  1  0
  7  8  2  0
  8  9  1  0
  9 10  1  0
 10 11  1  0
 11 12  1  0
 12 13  1  0
 12 14  1  0
 12 15  1  0
 15 16  1  0
 16 17  1  0
 16 18  1  0
 16 19  1  0
  9 20  2  0
 20 21  1  0
 21 22  2  0
 22 23  1  0
 23 24  1  0
 24 25  2  0
 24 26  1  0
 26 27  2  0
 27 28  1  0
 28 29  2  0
 29 30  1  0
 30 31  3  0
 29 32  1  0
  6 33  1  0
 33 34  1  0
 34  2  1  0
 22  7  1  0
 32 26  1  0
 19 10  1  0
  1 35  1  0
  1 36  1  0
  1 37  1  0
  3 38  1  0
  3 39  1  0
  3 40  1  0
  4 41  1  0
  4 42  1  0
  5 43  1  0
 10 44  1  0
 11 45  1  0
 11 46  1  0
 13 47  1  0
 13 48  1  0
 13 49  1  0
 14 50  1  0
 14 51  1  0
 14 52  1  0
 17 53  1  0
 17 54  1  0
 17 55  1  0
 18 56  1  0
 18 57  1  0
 18 58  1  0
 19 59  1  0
 19 60  1  0
 20 61  1  0
 21 62  1  0
 23 63  1  0
 28 64  1  0
 32 65  1  0
 33 66  1  0
 33 67  1  0
 34 68  1  0
 34 69  1  0
M  END
$$$$
