
     RDKit          3D

 51 54  0  0  0  0  0  0  0  0999 V2000
    4.6634   -1.2686   -1.5573 O   0  0  0  0  0  0  0  0  0  0  0  0
    4.5032   -0.4606   -0.6388 C   0  0  0  0  0  0  0  0  0  0  0  0
    3.1542   -0.0566   -0.2417 C   0  0  0  0  0  0  0  0  0  0  0  0
    1.9858   -0.3807   -0.9078 C   0  0  0  0  0  0  0  0  0  0  0  0
    1.0026    0.1937   -0.1663 N   0  0  0  0  0  0  0  0  0  0  0  0
   -0.4261    0.1421   -0.3890 C   0  0  0  0  0  0  0  0  0  0  0  0
   -1.1960   -0.5149    0.7691 C   0  0  2  0  0  0  0  0  0  0  0  0
   -0.6446   -1.9032    1.1288 C   0  0  0  0  0  0  0  0  0  0  0  0
   -1.8167   -2.5605    1.8225 C   0  0  0  0  0  0  0  0  0  0  0  0
   -1.7141   -3.9022    1.8099 F   0  0  0  0  0  0  0  0  0  0  0  0
   -1.8899   -2.1593    3.1107 F   0  0  0  0  0  0  0  0  0  0  0  0
   -3.0264   -2.0708    1.0413 C   0  0  0  0  0  0  0  0  0  0  0  0
   -2.6210   -0.7779    0.4824 N   0  0  0  0  0  0  0  0  0  0  0  0
   -3.4934    0.2281    0.1024 C   0  0  0  0  0  0  0  0  0  0  0  0
   -3.0950    1.3770   -0.0779 O   0  0  0  0  0  0  0  0  0  0  0  0
   -4.9569   -0.1662   -0.0696 C   0  0  0  0  0  0  0  0  0  0  0  0
   -5.7263    0.7326   -1.0018 C   0  0  0  0  0  0  0  0  0  0  0  0
   -5.9941    0.3605   -2.3222 C   0  0  0  0  0  0  0  0  0  0  0  0
   -6.7106    1.2211   -3.1495 C   0  0  0  0  0  0  0  0  0  0  0  0
   -7.1388    2.4297   -2.6274 C   0  0  0  0  0  0  0  0  0  0  0  0
   -6.8973    2.8256   -1.3609 N   0  0  0  0  0  0  0  0  0  0  0  0
   -6.1874    1.9774   -0.5826 C   0  0  0  0  0  0  0  0  0  0  0  0
    1.5045    0.8355    0.9003 N   0  0  0  0  0  0  0  0  0  0  0  0
    2.8209    0.6806    0.8712 N   0  0  0  0  0  0  0  0  0  0  0  0
    5.5921    0.0706    0.0350 N   0  0  0  0  0  0  0  0  0  0  0  0
    5.5962    1.0946    1.0714 C   0  0  0  0  0  0  0  0  0  0  0  0
    7.0631    1.4789    1.2235 C   0  0  0  0  0  0  0  0  0  0  0  0
    7.7960    0.2020    0.8370 C   0  0  0  0  0  0  0  0  0  0  0  0
    6.9426   -0.3432   -0.2974 C   0  0  0  0  0  0  0  0  0  0  0  0
    1.8045   -0.9472   -1.8091 H   0  0  0  0  0  0  0  0  0  0  0  0
   -0.7437    1.1765   -0.5533 H   0  0  0  0  0  0  0  0  0  0  0  0
   -0.6003   -0.4033   -1.3245 H   0  0  0  0  0  0  0  0  0  0  0  0
   -1.1667    0.1348    1.6544 H   0  0  0  0  0  0  0  0  0  0  0  0
   -0.3767   -2.4734    0.2311 H   0  0  0  0  0  0  0  0  0  0  0  0
    0.2352   -1.8417    1.7755 H   0  0  0  0  0  0  0  0  0  0  0  0
   -3.2652   -2.7380    0.2070 H   0  0  0  0  0  0  0  0  0  0  0  0
   -3.9043   -1.9530    1.6829 H   0  0  0  0  0  0  0  0  0  0  0  0
   -5.0211   -1.1934   -0.4465 H   0  0  0  0  0  0  0  0  0  0  0  0
   -5.4310   -0.1563    0.9190 H   0  0  0  0  0  0  0  0  0  0  0  0
   -5.6496   -0.5929   -2.7152 H   0  0  0  0  0  0  0  0  0  0  0  0
   -6.9304    0.9558   -4.1775 H   0  0  0  0  0  0  0  0  0  0  0  0
   -7.7029    3.1339   -3.2322 H   0  0  0  0  0  0  0  0  0  0  0  0
   -5.9932    2.3424    0.4225 H   0  0  0  0  0  0  0  0  0  0  0  0
    5.2090    0.6488    1.9941 H   0  0  0  0  0  0  0  0  0  0  0  0
    4.9820    1.9523    0.7837 H   0  0  0  0  0  0  0  0  0  0  0  0
    7.3052    1.8239    2.2319 H   0  0  0  0  0  0  0  0  0  0  0  0
    7.3157    2.2788    0.5176 H   0  0  0  0  0  0  0  0  0  0  0  0
    8.8332    0.3760    0.5395 H   0  0  0  0  0  0  0  0  0  0  0  0
    7.7912   -0.4977    1.6818 H   0  0  0  0  0  0  0  0  0  0  0  0
    7.2083    0.1193   -1.2543 H   0  0  0  0  0  0  0  0  0  0  0  0
    7.0108   -1.4309   -0.3961 H   0  0  0  0  0  0  0  0  0  0  0  0
  1  2  2  0
  2  3  1  0
  3  4  2  0
  4  5  1  0
  5  6  1  0
  6  7  1  0
  7  8  1  0
  8  9  1  0
  9 10  1  0
  9 11  1  0
  9 12  1  0
 12 13  1  0
 13 14  1  0
 14 15  2  0
 14 16  1  0
 16 17  1  0
 17 18  2  0
 18 19  1  0
 19 20  2  0
 20 21  1  0
 21 22  2  0
  5 23  1  0
 23 24  2  0
  2 25  1  0
 25 26  1  0
 26 27  1  0
 27 28  1  0
 28 29  1  0
 24  3  1  0
 29 25  1  0
 13  7  1  0
 22 17  1  0
  4 30  1  0
  6 31  1  0
  6 32  1  0
  7 33  1  1
  8 34  1  0
  8 35  1  0
 12 36  1  0
 12 37  1  0
 16 38  1  0
 16 39  1  0
 18 40  1  0
 19 41  1  0
 20 42  1  0
 22 43  1  0
 26 44  1  0
 26 45  1  0
 27 46  1  0
 27 47  1  0
 28 48  1  0
 28 49  1  0
 29 50  1  0
 29 51  1  0
M  END
$$$$
