
     RDKit          3D

 41 44  0  0  0  0  0  0  0  0999 V2000
    7.3072   -0.1319    0.6966 C   0  0  0  0  0  0  0  0  0  0  0  0
    5.8301   -0.2176    0.9828 C   0  0  0  0  0  0  0  0  0  0  0  0
    5.4243   -0.5477    2.0948 O   0  0  0  0  0  0  0  0  0  0  0  0
    4.8618    0.1086   -0.1092 C   0  0  0  0  0  0  0  0  0  0  0  0
    5.2922    0.5452   -1.3677 C   0  0  0  0  0  0  0  0  0  0  0  0
    4.3580    0.8427   -2.3585 C   0  0  0  0  0  0  0  0  0  0  0  0
    2.9947    0.7044   -2.0962 C   0  0  0  0  0  0  0  0  0  0  0  0
    2.5456    0.2678   -0.8434 C   0  0  0  0  0  0  0  0  0  0  0  0
    1.1505    0.1595   -0.6761 N   0  0  0  0  0  0  0  0  0  0  0  0
    0.4521   -0.2502    0.4401 C   0  0  0  0  0  0  0  0  0  0  0  0
    0.9464   -0.6040    1.5064 O   0  0  0  0  0  0  0  0  0  0  0  0
   -1.0365   -0.2408    0.2692 C   0  0  0  0  0  0  0  0  0  0  0  0
   -1.7998   -0.6432    1.3078 C   0  0  0  0  0  0  0  0  0  0  0  0
   -3.1691   -0.6991    1.2759 N   0  0  0  0  0  0  0  0  0  0  0  0
   -3.8510   -0.2051    0.1600 C   0  0  0  0  0  0  0  0  0  0  0  0
   -5.2286   -0.1996    0.3048 C   0  0  0  0  0  0  0  0  0  0  0  0
   -6.0308    0.2475   -0.7285 C   0  0  0  0  0  0  0  0  0  0  0  0
   -5.4104    0.7001   -1.9057 C   0  0  0  0  0  0  0  0  0  0  0  0
   -4.0071    0.6993   -2.0389 C   0  0  0  0  0  0  0  0  0  0  0  0
   -3.2204    0.2396   -0.9851 C   0  0  0  0  0  0  0  0  0  0  0  0
   -1.7377    0.2069   -0.9881 C   0  0  0  0  0  0  0  0  0  0  0  0
   -1.1118    0.5537   -1.9878 O   0  0  0  0  0  0  0  0  0  0  0  0
   -5.5676   -0.7626    1.6470 C   0  0  0  0  0  0  0  0  0  0  0  0
   -4.1685   -0.8681    2.3281 C   0  0  0  0  0  0  0  0  0  0  0  0
    3.4861   -0.0276    0.1467 C   0  0  0  0  0  0  0  0  0  0  0  0
    7.5881    0.8976    0.4602 H   0  0  0  0  0  0  0  0  0  0  0  0
    7.8642   -0.4395    1.5874 H   0  0  0  0  0  0  0  0  0  0  0  0
    7.5765   -0.8088   -0.1183 H   0  0  0  0  0  0  0  0  0  0  0  0
    6.3455    0.6652   -1.6021 H   0  0  0  0  0  0  0  0  0  0  0  0
    4.6890    1.1834   -3.3366 H   0  0  0  0  0  0  0  0  0  0  0  0
    2.2845    0.9426   -2.8856 H   0  0  0  0  0  0  0  0  0  0  0  0
    0.5851    0.4156   -1.4876 H   0  0  0  0  0  0  0  0  0  0  0  0
   -1.3679   -0.9630    2.2534 H   0  0  0  0  0  0  0  0  0  0  0  0
   -7.1130    0.2483   -0.6409 H   0  0  0  0  0  0  0  0  0  0  0  0
   -6.0237    1.0571   -2.7312 H   0  0  0  0  0  0  0  0  0  0  0  0
   -3.5444    1.0567   -2.9552 H   0  0  0  0  0  0  0  0  0  0  0  0
   -6.0186   -1.7545    1.5395 H   0  0  0  0  0  0  0  0  0  0  0  0
   -6.2352   -0.1101    2.2170 H   0  0  0  0  0  0  0  0  0  0  0  0
   -4.0595   -0.0716    3.0749 H   0  0  0  0  0  0  0  0  0  0  0  0
   -4.0557   -1.8300    2.8400 H   0  0  0  0  0  0  0  0  0  0  0  0
    3.1754   -0.3668    1.1312 H   0  0  0  0  0  0  0  0  0  0  0  0
  1  2  1  0
  2  3  2  0
  2  4  1  0
  4  5  2  0
  5  6  1  0
  6  7  2  0
  7  8  1  0
  8  9  1  0
  9 10  1  0
 10 11  2  0
 10 12  1  0
 12 13  2  0
 13 14  1  0
 14 15  1  0
 15 16  2  0
 16 17  1  0
 17 18  2  0
 18 19  1  0
 19 20  2  0
 20 21  1  0
 21 22  2  0
 16 23  1  0
 23 24  1  0
  8 25  2  0
 25  4  1  0
 21 12  1  0
 24 14  1  0
 20 15  1  0
  1 26  1  0
  1 27  1  0
  1 28  1  0
  5 29  1  0
  6 30  1  0
  7 31  1  0
  9 32  1  0
 13 33  1  0
 17 34  1  0
 18 35  1  0
 19 36  1  0
 23 37  1  0
 23 38  1  0
 24 39  1  0
 24 40  1  0
 25 41  1  0
M  END
$$$$
