
     RDKit          3D

 56 59  0  0  0  0  0  0  0  0999 V2000
    8.2298    0.0530   -0.4714 C   0  0  0  0  0  0  0  0  0  0  0  0
    7.5256    1.3858   -0.2626 C   0  0  0  0  0  0  0  0  0  0  0  0
    6.0695    1.3827   -0.1385 N   0  0  0  0  0  0  0  0  0  0  0  0
    5.5419    0.7298    1.0624 C   0  0  0  0  0  0  0  0  0  0  0  0
    5.1435   -0.7581    0.9269 C   0  0  0  0  0  0  0  0  0  0  0  0
    4.4044   -1.1339   -0.2810 N   0  0  0  0  0  0  0  0  0  0  0  0
    2.9432   -1.1015   -0.1648 C   0  0  0  0  0  0  0  0  0  0  0  0
    2.2450    0.2386    0.1233 C   0  0  0  0  0  0  0  0  0  0  0  0
    0.8078    0.0929    0.2074 N   0  0  0  0  0  0  0  0  0  0  0  0
   -0.0027    0.0119   -0.9033 C   0  0  0  0  0  0  0  0  0  0  0  0
    0.4038    0.1322   -2.0548 O   0  0  0  0  0  0  0  0  0  0  0  0
   -1.4122   -0.2502   -0.5705 C   0  0  0  0  0  0  0  0  0  0  0  0
   -2.5049   -0.3628   -1.4953 C   0  0  0  0  0  0  0  0  0  0  0  0
   -3.5877   -0.6160   -0.7036 C   0  0  0  0  0  0  0  0  0  0  0  0
   -3.1312   -0.6169    0.5664 N   0  0  0  0  0  0  0  0  0  0  0  0
   -1.8231   -0.4371    0.7135 N   0  0  0  0  0  0  0  0  0  0  0  0
   -4.1274   -0.9148    1.5769 C   0  0  0  0  0  0  0  0  0  0  0  0
   -5.4427   -0.7815    0.7678 C   0  0  1  0  0  0  0  0  0  0  0  0
   -5.9919    0.5153    1.0512 O   0  0  0  0  0  0  0  0  0  0  0  0
   -7.3172    0.7353    0.8009 C   0  0  0  0  0  0  0  0  0  0  0  0
   -8.1998   -0.1458    0.1869 C   0  0  0  0  0  0  0  0  0  0  0  0
   -9.5153    0.2600    0.0154 C   0  0  0  0  0  0  0  0  0  0  0  0
   -9.9929    1.4595    0.4065 N   0  0  0  0  0  0  0  0  0  0  0  0
   -9.1135    2.2974    0.9924 C   0  0  0  0  0  0  0  0  0  0  0  0
   -7.7829    1.9833    1.2069 C   0  0  0  0  0  0  0  0  0  0  0  0
   -5.0359   -0.8895   -0.7401 C   0  0  0  0  0  0  0  0  0  0  0  0
    4.9415   -0.4858   -1.4827 C   0  0  0  0  0  0  0  0  0  0  0  0
    5.3371    1.0026   -1.3508 C   0  0  0  0  0  0  0  0  0  0  0  0
    9.3105    0.2182   -0.5437 H   0  0  0  0  0  0  0  0  0  0  0  0
    7.9175   -0.4324   -1.3988 H   0  0  0  0  0  0  0  0  0  0  0  0
    8.0657   -0.6304    0.3649 H   0  0  0  0  0  0  0  0  0  0  0  0
    7.8028    2.0540   -1.0882 H   0  0  0  0  0  0  0  0  0  0  0  0
    7.9492    1.8615    0.6314 H   0  0  0  0  0  0  0  0  0  0  0  0
    6.2390    0.8404    1.9028 H   0  0  0  0  0  0  0  0  0  0  0  0
    4.6536    1.2964    1.3630 H   0  0  0  0  0  0  0  0  0  0  0  0
    6.0593   -1.3599    0.9367 H   0  0  0  0  0  0  0  0  0  0  0  0
    4.5965   -1.0686    1.8261 H   0  0  0  0  0  0  0  0  0  0  0  0
    2.6541   -1.8107    0.6231 H   0  0  0  0  0  0  0  0  0  0  0  0
    2.5173   -1.5360   -1.0791 H   0  0  0  0  0  0  0  0  0  0  0  0
    2.4604    0.9662   -0.6627 H   0  0  0  0  0  0  0  0  0  0  0  0
    2.5653    0.6484    1.0841 H   0  0  0  0  0  0  0  0  0  0  0  0
    0.3476   -0.0981    1.0942 H   0  0  0  0  0  0  0  0  0  0  0  0
   -2.4590   -0.2742   -2.5719 H   0  0  0  0  0  0  0  0  0  0  0  0
   -4.0302   -0.1970    2.3949 H   0  0  0  0  0  0  0  0  0  0  0  0
   -3.9470   -1.9418    1.9074 H   0  0  0  0  0  0  0  0  0  0  0  0
   -6.1391   -1.5672    1.0825 H   0  0  0  0  0  0  0  0  0  0  0  0
   -7.9110   -1.1250   -0.1695 H   0  0  0  0  0  0  0  0  0  0  0  0
  -10.2435   -0.3919   -0.4597 H   0  0  0  0  0  0  0  0  0  0  0  0
   -9.5176    3.2592    1.2944 H   0  0  0  0  0  0  0  0  0  0  0  0
   -7.1201    2.6982    1.6817 H   0  0  0  0  0  0  0  0  0  0  0  0
   -5.5660   -0.1740   -1.3744 H   0  0  0  0  0  0  0  0  0  0  0  0
   -5.2096   -1.9072   -1.1050 H   0  0  0  0  0  0  0  0  0  0  0  0
    5.8328   -1.0528   -1.7742 H   0  0  0  0  0  0  0  0  0  0  0  0
    4.2505   -0.6009   -2.3275 H   0  0  0  0  0  0  0  0  0  0  0  0
    4.4215    1.6040   -1.3687 H   0  0  0  0  0  0  0  0  0  0  0  0
    5.8879    1.3095   -2.2490 H   0  0  0  0  0  0  0  0  0  0  0  0
  1  2  1  0
  2  3  1  0
  3  4  1  0
  4  5  1  0
  5  6  1  0
  6  7  1  0
  7  8  1  0
  8  9  1  0
  9 10  1  0
 10 11  2  0
 10 12  1  0
 12 13  1  0
 13 14  2  0
 14 15  1  0
 15 16  1  0
 15 17  1  0
 17 18  1  0
 18 19  1  0
 19 20  1  0
 20 21  2  0
 21 22  1  0
 22 23  2  0
 23 24  1  0
 24 25  2  0
 18 26  1  0
  6 27  1  0
 27 28  1  0
 28  3  1  0
 16 12  2  0
 25 20  1  0
 26 14  1  0
  1 29  1  0
  1 30  1  0
  1 31  1  0
  2 32  1  0
  2 33  1  0
  4 34  1  0
  4 35  1  0
  5 36  1  0
  5 37  1  0
  7 38  1  0
  7 39  1  0
  8 40  1  0
  8 41  1  0
  9 42  1  0
 13 43  1  0
 17 44  1  0
 17 45  1  0
 18 46  1  1
 21 47  1  0
 22 48  1  0
 24 49  1  0
 25 50  1  0
 26 51  1  0
 26 52  1  0
 27 53  1  0
 27 54  1  0
 28 55  1  0
 28 56  1  0
M  END
$$$$
