
     RDKit          3D

 61 63  0  0  0  0  0  0  0  0999 V2000
    3.1044    4.6200    0.6189 C   0  0  0  0  0  0  0  0  0  0  0  0
    1.9476    3.8361    0.0509 C   0  0  0  0  0  0  0  0  0  0  0  0
    1.9826    3.8057   -1.4601 C   0  0  0  0  0  0  0  0  0  0  0  0
    1.9930    2.4587    0.5987 C   0  0  0  0  0  0  0  0  0  0  0  0
    2.9229    1.9316    1.4658 C   0  0  0  0  0  0  0  0  0  0  0  0
    2.5591    0.6575    1.6792 N   0  0  0  0  0  0  0  0  0  0  0  0
    1.4684    0.3344    1.0136 N   0  0  0  0  0  0  0  0  0  0  0  0
    0.7739   -0.8017    0.9423 C   0  0  0  0  0  0  0  0  0  0  0  0
    1.1289   -1.9929    1.6293 N   0  0  0  0  0  0  0  0  0  0  0  0
    2.3154   -2.0918    2.4455 C   0  0  0  0  0  0  0  0  0  0  0  0
    3.5198   -1.9800    1.5720 C   0  0  0  0  0  0  0  0  0  0  0  0
    3.4388   -2.1036    0.1897 C   0  0  0  0  0  0  0  0  0  0  0  0
    4.5527   -2.0017   -0.6148 C   0  0  0  0  0  0  0  0  0  0  0  0
    5.7864   -1.7704   -0.0371 C   0  0  0  0  0  0  0  0  0  0  0  0
    5.8832   -1.6454    1.3326 C   0  0  0  0  0  0  0  0  0  0  0  0
    4.7632   -1.7499    2.1159 C   0  0  0  0  0  0  0  0  0  0  0  0
   -0.3723   -0.8402    0.1371 C   0  0  0  0  0  0  0  0  0  0  0  0
   -0.7700    0.2664   -0.5613 C   0  0  0  0  0  0  0  0  0  0  0  0
   -1.9273    0.2593   -1.3639 N   0  0  0  0  0  0  0  0  0  0  0  0
   -2.8232   -0.8369   -1.4786 C   0  0  0  0  0  0  0  0  0  0  0  0
   -3.6766   -1.1188   -0.2833 C   0  0  1  0  0  0  0  0  0  0  0  0
   -4.5628    0.0962    0.0489 C   0  0  0  0  0  0  0  0  0  0  0  0
   -5.2550    0.4704   -1.2081 C   0  0  0  0  0  0  0  0  0  0  0  0
   -5.8781   -0.5392   -1.9497 N   0  0  0  0  0  0  0  0  0  0  0  0
   -5.6374   -1.8822   -1.6569 C   0  0  0  0  0  0  0  0  0  0  0  0
   -4.6590   -2.2207   -0.6110 C   0  0  2  0  0  0  0  0  0  0  0  0
   -5.3234   -2.5371    0.5890 O   0  0  0  0  0  0  0  0  0  0  0  0
   -0.0047    1.3755   -0.4301 N   0  0  0  0  0  0  0  0  0  0  0  0
    1.0934    1.4529    0.3260 C   0  0  0  0  0  0  0  0  0  0  0  0
    0.6922    0.0000    0.0000 Cl  0  0  0  0  0  0  0  0  0  0  0  0
    3.2752    4.3894    1.6840 H   0  0  0  0  0  0  0  0  0  0  0  0
    4.0470    4.3982    0.0576 H   0  0  0  0  0  0  0  0  0  0  0  0
    2.9202    5.7162    0.5309 H   0  0  0  0  0  0  0  0  0  0  0  0
    1.0022    4.3369    0.3672 H   0  0  0  0  0  0  0  0  0  0  0  0
    2.8201    3.2096   -1.8382 H   0  0  0  0  0  0  0  0  0  0  0  0
    2.1311    4.8768   -1.7855 H   0  0  0  0  0  0  0  0  0  0  0  0
    0.9941    3.5209   -1.8708 H   0  0  0  0  0  0  0  0  0  0  0  0
    3.7943    2.4315    1.9070 H   0  0  0  0  0  0  0  0  0  0  0  0
    0.5293   -2.8447    1.5603 H   0  0  0  0  0  0  0  0  0  0  0  0
    2.3290   -1.2210    3.1507 H   0  0  0  0  0  0  0  0  0  0  0  0
    2.3094   -3.0204    3.0201 H   0  0  0  0  0  0  0  0  0  0  0  0
    2.4726   -2.2852   -0.2674 H   0  0  0  0  0  0  0  0  0  0  0  0
    4.4938   -2.0968   -1.6836 H   0  0  0  0  0  0  0  0  0  0  0  0
    6.6434   -1.6949   -0.6909 H   0  0  0  0  0  0  0  0  0  0  0  0
    6.8472   -1.4625    1.8093 H   0  0  0  0  0  0  0  0  0  0  0  0
    4.8128   -1.6548    3.2024 H   0  0  0  0  0  0  0  0  0  0  0  0
   -0.9063   -1.7596    0.0822 H   0  0  0  0  0  0  0  0  0  0  0  0
   -2.1394    1.1445   -1.9228 H   0  0  0  0  0  0  0  0  0  0  0  0
   -2.3115   -1.7990   -1.7328 H   0  0  0  0  0  0  0  0  0  0  0  0
   -3.5239   -0.6814   -2.3507 H   0  0  0  0  0  0  0  0  0  0  0  0
   -3.1294   -1.4237    0.6065 H   0  0  0  0  0  0  0  0  0  0  0  0
   -5.2445   -0.2347    0.8350 H   0  0  0  0  0  0  0  0  0  0  0  0
   -3.8742    0.9002    0.3620 H   0  0  0  0  0  0  0  0  0  0  0  0
   -4.5326    1.0232   -1.8717 H   0  0  0  0  0  0  0  0  0  0  0  0
   -6.0312    1.2577   -0.9680 H   0  0  0  0  0  0  0  0  0  0  0  0
   -5.8193   -0.3345   -2.9713 H   0  0  0  0  0  0  0  0  0  0  0  0
   -5.3376   -2.4266   -2.6011 H   0  0  0  0  0  0  0  0  0  0  0  0
   -6.6191   -2.3729   -1.3823 H   0  0  0  0  0  0  0  0  0  0  0  0
   -4.0473   -3.1189   -0.8868 H   0  0  0  0  0  0  0  0  0  0  0  0
   -6.2489   -2.2258    0.5481 H   0  0  0  0  0  0  0  0  0  0  0  0
   -0.6922    0.0000    0.0000 H   0  0  0  0  0  0  0  0  0  0  0  0
  1  2  1  0
  2  3  1  0
  2  4  1  0
  4  5  1  0
  5  6  2  0
  6  7  1  0
  7  8  1  0
  8  9  1  0
  9 10  1  0
 10 11  1  0
 11 12  2  0
 12 13  1  0
 13 14  2  0
 14 15  1  0
 15 16  2  0
  8 17  2  0
 17 18  1  0
 18 19  1  0
 19 20  1  0
 20 21  1  0
 21 22  1  0
 22 23  1  0
 23 24  1  0
 24 25  1  0
 25 26  1  0
 26 27  1  0
 18 28  2  0
 28 29  1  0
 29  4  2  0
 29  7  1  0
 16 11  1  0
 26 21  1  0
  1 31  1  0
  1 32  1  0
  1 33  1  0
  2 34  1  0
  3 35  1  0
  3 36  1  0
  3 37  1  0
  5 38  1  0
  9 39  1  0
 10 40  1  0
 10 41  1  0
 12 42  1  0
 13 43  1  0
 14 44  1  0
 15 45  1  0
 16 46  1  0
 17 47  1  0
 19 48  1  0
 20 49  1  0
 20 50  1  0
 21 51  1  1
 22 52  1  0
 22 53  1  0
 23 54  1  0
 23 55  1  0
 24 56  1  0
 25 57  1  0
 25 58  1  0
 26 59  1  6
 27 60  1  0
 30 61  1  0
M  END
$$$$
