
     RDKit          3D

 33 35  0  0  0  0  0  0  0  0999 V2000
    2.3333   -2.4556    2.5290 O   0  0  0  0  0  0  0  0  0  0  0  0
    2.0689   -2.2861    1.3409 C   0  0  0  0  0  0  0  0  0  0  0  0
    1.4975   -3.4209    0.5049 C   0  0  0  0  0  0  0  0  0  0  0  0
   -0.3054   -3.5034    0.6953 S   0  0  0  0  0  0  0  0  0  0  0  0
   -0.7893   -2.1555   -0.2821 C   0  0  0  0  0  0  0  0  0  0  0  0
   -0.0184   -1.5657   -1.1737 N   0  0  0  0  0  0  0  0  0  0  0  0
   -0.7574   -0.5381   -1.7160 N   0  0  0  0  0  0  0  0  0  0  0  0
   -1.9340   -0.5714   -1.1227 C   0  0  0  0  0  0  0  0  0  0  0  0
   -3.0980    0.2828   -1.3054 C   0  0  0  0  0  0  0  0  0  0  0  0
   -3.0527    1.3233   -2.2382 C   0  0  0  0  0  0  0  0  0  0  0  0
   -4.1706    2.1242   -2.3968 C   0  0  0  0  0  0  0  0  0  0  0  0
   -5.3125    1.9596   -1.6982 N   0  0  0  0  0  0  0  0  0  0  0  0
   -5.3398    0.9524   -0.8017 C   0  0  0  0  0  0  0  0  0  0  0  0
   -4.2737    0.0986   -0.5717 C   0  0  0  0  0  0  0  0  0  0  0  0
   -2.0282   -1.5811   -0.2012 O   0  0  0  0  0  0  0  0  0  0  0  0
    2.2380   -1.1140    0.6400 N   0  0  0  0  0  0  0  0  0  0  0  0
    2.7505    0.1003    1.0967 C   0  0  0  0  0  0  0  0  0  0  0  0
    3.2582    0.3083    2.3731 C   0  0  0  0  0  0  0  0  0  0  0  0
    3.7461    1.5729    2.7115 C   0  0  0  0  0  0  0  0  0  0  0  0
    3.7133    2.5867    1.7657 C   0  0  0  0  0  0  0  0  0  0  0  0
    4.3583    4.3087    2.1730 Br  0  0  0  0  0  0  0  0  0  0  0  0
    3.1947    2.2965    0.5166 C   0  0  0  0  0  0  0  0  0  0  0  0
    2.7165    1.0778    0.1650 N   0  0  0  0  0  0  0  0  0  0  0  0
    1.9322   -4.3576    0.8703 H   0  0  0  0  0  0  0  0  0  0  0  0
    1.7909   -3.3281   -0.5457 H   0  0  0  0  0  0  0  0  0  0  0  0
   -2.1640    1.5113   -2.8338 H   0  0  0  0  0  0  0  0  0  0  0  0
   -4.1770    2.9433   -3.1105 H   0  0  0  0  0  0  0  0  0  0  0  0
   -6.2718    0.8457   -0.2534 H   0  0  0  0  0  0  0  0  0  0  0  0
   -4.3701   -0.6895    0.1680 H   0  0  0  0  0  0  0  0  0  0  0  0
    1.8866   -1.0426   -0.3116 H   0  0  0  0  0  0  0  0  0  0  0  0
    3.2903   -0.4774    3.1183 H   0  0  0  0  0  0  0  0  0  0  0  0
    4.1439    1.7466    3.7073 H   0  0  0  0  0  0  0  0  0  0  0  0
    3.1437    3.0480   -0.2660 H   0  0  0  0  0  0  0  0  0  0  0  0
  1  2  2  0
  2  3  1  0
  3  4  1  0
  4  5  1  0
  5  6  2  0
  6  7  1  0
  7  8  2  0
  8  9  1  0
  9 10  2  0
 10 11  1  0
 11 12  2  0
 12 13  1  0
 13 14  2  0
  8 15  1  0
  2 16  1  0
 16 17  1  0
 17 18  2  0
 18 19  1  0
 19 20  2  0
 20 21  1  0
 20 22  1  0
 22 23  2  0
 15  5  1  0
 23 17  1  0
 14  9  1  0
  3 24  1  0
  3 25  1  0
 10 26  1  0
 11 27  1  0
 13 28  1  0
 14 29  1  0
 16 30  1  0
 18 31  1  0
 19 32  1  0
 22 33  1  0
M  END
$$$$
