
     RDKit          3D

 47 50  0  0  0  0  0  0  0  0999 V2000
   -3.3156    3.9732    1.1820 C   0  0  0  0  0  0  0  0  0  0  0  0
   -3.1772    2.4605    1.1224 C   0  0  0  0  0  0  0  0  0  0  0  0
   -2.5857    2.0080   -0.2175 C   0  0  0  0  0  0  0  0  0  0  0  0
   -2.3795    0.5518   -0.2882 N   0  0  0  0  0  0  0  0  0  0  0  0
   -3.5438   -0.2138   -0.4824 C   0  0  0  0  0  0  0  0  0  0  0  0
   -4.6488    0.3001   -0.6780 O   0  0  0  0  0  0  0  0  0  0  0  0
   -3.5480   -1.6764   -0.3139 C   0  0  0  0  0  0  0  0  0  0  0  0
   -4.4954   -2.2443    0.5469 C   0  0  0  0  0  0  0  0  0  0  0  0
   -4.5692   -3.6276    0.6720 C   0  0  0  0  0  0  0  0  0  0  0  0
   -3.7017   -4.3956   -0.0841 C   0  0  0  0  0  0  0  0  0  0  0  0
   -2.7912   -3.8766   -0.9359 N   0  0  0  0  0  0  0  0  0  0  0  0
   -2.7325   -2.5236   -1.0435 C   0  0  0  0  0  0  0  0  0  0  0  0
   -1.5154   -1.8943   -2.1628 S   0  0  0  0  0  0  0  0  0  0  0  0
   -0.5428   -1.0283   -0.9416 C   0  0  0  0  0  0  0  0  0  0  0  0
    0.7948   -1.4409   -0.8148 C   0  0  0  0  0  0  0  0  0  0  0  0
    1.6615   -0.7700    0.0463 C   0  0  0  0  0  0  0  0  0  0  0  0
    3.0558   -1.2442    0.1705 C   0  0  0  0  0  0  0  0  0  0  0  0
    3.2441   -2.4166    0.4812 O   0  0  0  0  0  0  0  0  0  0  0  0
    4.0767   -0.3482   -0.0791 N   0  0  0  0  0  0  0  0  0  0  0  0
    5.4631   -0.7693    0.0186 C   0  0  0  0  0  0  0  0  0  0  0  0
    6.2608    0.4997   -0.2383 C   0  0  0  0  0  0  0  0  0  0  0  0
    5.3705    1.2617   -1.2119 C   0  0  0  0  0  0  0  0  0  0  0  0
    3.9680    0.9683   -0.6940 C   0  0  0  0  0  0  0  0  0  0  0  0
    1.1980    0.2976    0.8082 C   0  0  0  0  0  0  0  0  0  0  0  0
   -0.1320    0.7099    0.6828 C   0  0  0  0  0  0  0  0  0  0  0  0
   -1.0337    0.0560   -0.1816 C   0  0  0  0  0  0  0  0  0  0  0  0
   -2.3410    4.4604    1.0767 H   0  0  0  0  0  0  0  0  0  0  0  0
   -3.9715    4.3387    0.3854 H   0  0  0  0  0  0  0  0  0  0  0  0
   -3.7449    4.2771    2.1418 H   0  0  0  0  0  0  0  0  0  0  0  0
   -4.1625    2.0062    1.2766 H   0  0  0  0  0  0  0  0  0  0  0  0
   -2.5500    2.1233    1.9543 H   0  0  0  0  0  0  0  0  0  0  0  0
   -1.6488    2.5354   -0.4334 H   0  0  0  0  0  0  0  0  0  0  0  0
   -3.2720    2.2926   -1.0260 H   0  0  0  0  0  0  0  0  0  0  0  0
   -5.1784   -1.6087    1.1058 H   0  0  0  0  0  0  0  0  0  0  0  0
   -5.2921   -4.0934    1.3327 H   0  0  0  0  0  0  0  0  0  0  0  0
   -3.7179   -5.4808   -0.0285 H   0  0  0  0  0  0  0  0  0  0  0  0
    1.1711   -2.2849   -1.3916 H   0  0  0  0  0  0  0  0  0  0  0  0
    5.6652   -1.2128    0.9981 H   0  0  0  0  0  0  0  0  0  0  0  0
    5.6469   -1.5210   -0.7575 H   0  0  0  0  0  0  0  0  0  0  0  0
    7.2584    0.2978   -0.6374 H   0  0  0  0  0  0  0  0  0  0  0  0
    6.3692    1.0721    0.6909 H   0  0  0  0  0  0  0  0  0  0  0  0
    5.5913    2.3319   -1.2479 H   0  0  0  0  0  0  0  0  0  0  0  0
    5.4907    0.8513   -2.2219 H   0  0  0  0  0  0  0  0  0  0  0  0
    3.6860    1.6834    0.0855 H   0  0  0  0  0  0  0  0  0  0  0  0
    3.2169    0.9784   -1.4888 H   0  0  0  0  0  0  0  0  0  0  0  0
    1.8568    0.7988    1.5130 H   0  0  0  0  0  0  0  0  0  0  0  0
   -0.4545    1.5369    1.3090 H   0  0  0  0  0  0  0  0  0  0  0  0
  1  2  1  0
  2  3  1  0
  3  4  1  0
  4  5  1  0
  5  6  2  0
  5  7  1  0
  7  8  2  0
  8  9  1  0
  9 10  2  0
 10 11  1  0
 11 12  2  0
 12 13  1  0
 13 14  1  0
 14 15  2  0
 15 16  1  0
 16 17  1  0
 17 18  2  0
 17 19  1  0
 19 20  1  0
 20 21  1  0
 21 22  1  0
 22 23  1  0
 16 24  2  0
 24 25  1  0
 25 26  2  0
 26  4  1  0
 12  7  1  0
 26 14  1  0
 23 19  1  0
  1 27  1  0
  1 28  1  0
  1 29  1  0
  2 30  1  0
  2 31  1  0
  3 32  1  0
  3 33  1  0
  8 34  1  0
  9 35  1  0
 10 36  1  0
 15 37  1  0
 20 38  1  0
 20 39  1  0
 21 40  1  0
 21 41  1  0
 22 42  1  0
 22 43  1  0
 23 44  1  0
 23 45  1  0
 24 46  1  0
 25 47  1  0
M  END
$$$$
