
     RDKit          3D

 58 61  0  0  0  0  0  0  0  0999 V2000
   -3.6528    2.2815    1.5298 C   0  0  0  0  0  0  0  0  0  0  0  0
   -4.3664    1.1526    0.8381 C   0  0  0  0  0  0  0  0  0  0  0  0
   -5.5222    0.6230    1.4428 C   0  0  0  0  0  0  0  0  0  0  0  0
   -6.2510   -0.3949    0.8235 C   0  0  0  0  0  0  0  0  0  0  0  0
   -5.8430   -0.9047   -0.4078 C   0  0  0  0  0  0  0  0  0  0  0  0
   -4.6999   -0.3998   -1.0219 C   0  0  0  0  0  0  0  0  0  0  0  0
   -3.9653    0.6269   -0.4072 C   0  0  0  0  0  0  0  0  0  0  0  0
   -2.5335    1.2495   -1.2733 S   0  0  0  0  0  6  0  0  0  0  0  0
   -2.6226    2.6941   -1.2842 O   0  0  0  0  0  0  0  0  0  0  0  0
   -2.3786    0.5076   -2.5081 O   0  0  0  0  0  0  0  0  0  0  0  0
   -1.2346    0.7996   -0.2694 N   0  0  0  0  0  0  0  0  0  0  0  0
    0.0407    1.5378   -0.5669 C   0  0  0  0  0  0  0  0  0  0  0  0
    1.2771    0.6294   -0.6281 C   0  0  0  0  0  0  0  0  0  0  0  0
    1.3554   -0.2627    0.5332 N   0  0  0  0  0  0  0  0  0  0  0  0
    2.5133   -0.6182    1.2133 C   0  0  0  0  0  0  0  0  0  0  0  0
    2.5488   -1.4822    2.0845 O   0  0  0  0  0  0  0  0  0  0  0  0
    3.7679    0.0790    0.8818 C   0  0  0  0  0  0  0  0  0  0  0  0
    3.9609    1.3915    1.3050 C   0  0  0  0  0  0  0  0  0  0  0  0
    5.1453    2.0313    0.9687 C   0  0  0  0  0  0  0  0  0  0  0  0
    6.1277    1.3510    0.2331 C   0  0  0  0  0  0  0  0  0  0  0  0
    5.9772    0.0087   -0.1693 C   0  0  0  0  0  0  0  0  0  0  0  0
    6.9580   -0.6759   -0.9027 N   0  0  0  0  0  0  0  0  0  0  0  0
    8.2096    0.0054   -1.2353 C   0  0  0  0  0  0  0  0  0  0  0  0
    7.0819   -2.1180   -0.6610 C   0  0  0  0  0  0  0  0  0  0  0  0
    4.7599   -0.6073    0.1690 C   0  0  0  0  0  0  0  0  0  0  0  0
    0.1096   -0.9281    0.9155 C   0  0  0  0  0  0  0  0  0  0  0  0
   -1.0442   -0.6677   -0.0628 C   0  0  0  0  0  0  0  0  0  0  0  0
   -6.4825   -1.9203   -1.0594 O   0  0  0  0  0  0  0  0  0  0  0  0
   -7.7820   -2.2199   -0.5721 C   0  0  0  0  0  0  0  0  0  0  0  0
   -8.1725   -1.8495    0.8589 C   0  0  0  0  0  0  0  0  0  0  0  0
   -9.1556   -2.3141    1.4310 O   0  0  0  0  0  0  0  0  0  0  0  0
   -7.3824   -0.9082    1.4551 N   0  0  0  0  0  0  0  0  0  0  0  0
   -3.8736    3.2286    1.0316 H   0  0  0  0  0  0  0  0  0  0  0  0
   -2.5740    2.1202    1.5607 H   0  0  0  0  0  0  0  0  0  0  0  0
   -3.9778    2.3719    2.5717 H   0  0  0  0  0  0  0  0  0  0  0  0
   -5.8558    1.0174    2.4003 H   0  0  0  0  0  0  0  0  0  0  0  0
   -4.3951   -0.8079   -1.9836 H   0  0  0  0  0  0  0  0  0  0  0  0
    0.1712    2.2728    0.2370 H   0  0  0  0  0  0  0  0  0  0  0  0
   -0.0296    2.0910   -1.5094 H   0  0  0  0  0  0  0  0  0  0  0  0
    1.2275   -0.0142   -1.5143 H   0  0  0  0  0  0  0  0  0  0  0  0
    2.1759    1.2391   -0.7346 H   0  0  0  0  0  0  0  0  0  0  0  0
    3.2001    1.9056    1.8845 H   0  0  0  0  0  0  0  0  0  0  0  0
    5.3176    3.0584    1.2789 H   0  0  0  0  0  0  0  0  0  0  0  0
    7.0346    1.9037    0.0036 H   0  0  0  0  0  0  0  0  0  0  0  0
    8.8022    0.2067   -0.3354 H   0  0  0  0  0  0  0  0  0  0  0  0
    8.0226    0.9425   -1.7724 H   0  0  0  0  0  0  0  0  0  0  0  0
    8.8182   -0.6103   -1.9070 H   0  0  0  0  0  0  0  0  0  0  0  0
    6.2135   -2.6639   -1.0499 H   0  0  0  0  0  0  0  0  0  0  0  0
    7.9545   -2.5314   -1.1806 H   0  0  0  0  0  0  0  0  0  0  0  0
    7.2049   -2.3326    0.4082 H   0  0  0  0  0  0  0  0  0  0  0  0
    4.5496   -1.6301   -0.1284 H   0  0  0  0  0  0  0  0  0  0  0  0
   -0.1530   -0.5544    1.9134 H   0  0  0  0  0  0  0  0  0  0  0  0
    0.2890   -2.0062    1.0042 H   0  0  0  0  0  0  0  0  0  0  0  0
   -1.9534   -1.1085    0.3560 H   0  0  0  0  0  0  0  0  0  0  0  0
   -0.8365   -1.1528   -1.0236 H   0  0  0  0  0  0  0  0  0  0  0  0
   -8.5068   -1.7399   -1.2405 H   0  0  0  0  0  0  0  0  0  0  0  0
   -7.9126   -3.3047   -0.6684 H   0  0  0  0  0  0  0  0  0  0  0  0
   -7.6574   -0.5985    2.3783 H   0  0  0  0  0  0  0  0  0  0  0  0
  1  2  1  0
  2  3  2  0
  3  4  1  0
  4  5  2  0
  5  6  1  0
  6  7  2  0
  7  8  1  0
  8  9  2  0
  8 10  2  0
  8 11  1  0
 11 12  1  0
 12 13  1  0
 13 14  1  0
 14 15  1  0
 15 16  2  0
 15 17  1  0
 17 18  2  0
 18 19  1  0
 19 20  2  0
 20 21  1  0
 21 22  1  0
 22 23  1  0
 22 24  1  0
 21 25  2  0
 14 26  1  0
 26 27  1  0
  5 28  1  0
 28 29  1  0
 29 30  1  0
 30 31  2  0
 30 32  1  0
  7  2  1  0
 27 11  1  0
 32  4  1  0
 25 17  1  0
  1 33  1  0
  1 34  1  0
  1 35  1  0
  3 36  1  0
  6 37  1  0
 12 38  1  0
 12 39  1  0
 13 40  1  0
 13 41  1  0
 18 42  1  0
 19 43  1  0
 20 44  1  0
 23 45  1  0
 23 46  1  0
 23 47  1  0
 24 48  1  0
 24 49  1  0
 24 50  1  0
 25 51  1  0
 26 52  1  0
 26 53  1  0
 27 54  1  0
 27 55  1  0
 29 56  1  0
 29 57  1  0
 32 58  1  0
M  END
$$$$
