
     RDKit          3D

 42 45  0  0  0  0  0  0  0  0999 V2000
    0.4251   -3.3396    0.1815 Cl  0  0  0  0  0  0  0  0  0  0  0  0
    1.4150   -2.1767   -0.6363 C   0  0  0  0  0  0  0  0  0  0  0  0
    2.4842   -2.7152   -1.3685 C   0  0  0  0  0  0  0  0  0  0  0  0
    3.3725   -1.8859   -2.0439 C   0  0  0  0  0  0  0  0  0  0  0  0
    3.2048   -0.5107   -1.9794 C   0  0  0  0  0  0  0  0  0  0  0  0
    2.1416    0.0359   -1.2527 C   0  0  0  0  0  0  0  0  0  0  0  0
    1.1958   -0.7754   -0.5791 C   0  0  0  0  0  0  0  0  0  0  0  0
    0.0098   -0.1347    0.2566 C   0  0  0  0  0  0  0  0  0  0  0  0
   -1.4112   -0.6084   -0.2640 C   0  0  0  0  0  0  0  0  0  0  0  0
   -2.5866   -0.2922    0.4523 C   0  0  0  0  0  0  0  0  0  0  0  0
   -3.8559   -0.6363   -0.0228 C   0  0  0  0  0  0  0  0  0  0  0  0
   -3.9920   -1.2806   -1.2461 C   0  0  0  0  0  0  0  0  0  0  0  0
   -2.8606   -1.5642   -2.0015 C   0  0  0  0  0  0  0  0  0  0  0  0
   -1.5904   -1.2190   -1.5259 C   0  0  0  0  0  0  0  0  0  0  0  0
   -0.0210    1.4503    0.1554 C   0  0  0  0  0  0  0  0  0  0  0  0
   -0.3529    2.0664   -1.0772 C   0  0  0  0  0  0  0  0  0  0  0  0
   -0.4014    3.4559   -1.2145 C   0  0  0  0  0  0  0  0  0  0  0  0
   -0.1299    4.2716   -0.1229 C   0  0  0  0  0  0  0  0  0  0  0  0
    0.1801    3.6979    1.1056 C   0  0  0  0  0  0  0  0  0  0  0  0
    0.2285    2.3062    1.2464 C   0  0  0  0  0  0  0  0  0  0  0  0
    0.2825   -0.5356    1.6938 N   0  0  0  0  0  0  0  0  0  0  0  0
    1.5233   -0.5424    2.3202 C   0  0  0  0  0  0  0  0  0  0  0  0
    1.3279   -0.9878    3.6039 C   0  0  0  0  0  0  0  0  0  0  0  0
   -0.0535   -1.1976    3.6969 C   0  0  0  0  0  0  0  0  0  0  0  0
   -0.6950   -0.8988    2.5684 N   0  0  0  0  0  0  0  0  0  0  0  0
    2.6328   -3.7926   -1.4075 H   0  0  0  0  0  0  0  0  0  0  0  0
    4.1996   -2.3124   -2.6055 H   0  0  0  0  0  0  0  0  0  0  0  0
    3.9069    0.1469   -2.4877 H   0  0  0  0  0  0  0  0  0  0  0  0
    2.0920    1.1219   -1.2175 H   0  0  0  0  0  0  0  0  0  0  0  0
   -2.5294    0.2396    1.4010 H   0  0  0  0  0  0  0  0  0  0  0  0
   -4.7353   -0.3936    0.5679 H   0  0  0  0  0  0  0  0  0  0  0  0
   -4.9779   -1.5498   -1.6141 H   0  0  0  0  0  0  0  0  0  0  0  0
   -2.9626   -2.0507   -2.9682 H   0  0  0  0  0  0  0  0  0  0  0  0
   -0.7481   -1.4336   -2.1782 H   0  0  0  0  0  0  0  0  0  0  0  0
   -0.5798    1.4613   -1.9538 H   0  0  0  0  0  0  0  0  0  0  0  0
   -0.6599    3.8977   -2.1735 H   0  0  0  0  0  0  0  0  0  0  0  0
   -0.1731    5.3526   -0.2246 H   0  0  0  0  0  0  0  0  0  0  0  0
    0.3743    4.3335    1.9664 H   0  0  0  0  0  0  0  0  0  0  0  0
    0.4462    1.9228    2.2401 H   0  0  0  0  0  0  0  0  0  0  0  0
    2.4209   -0.2427    1.7974 H   0  0  0  0  0  0  0  0  0  0  0  0
    2.0790   -1.1357    4.3660 H   0  0  0  0  0  0  0  0  0  0  0  0
   -0.6264   -1.5486    4.5455 H   0  0  0  0  0  0  0  0  0  0  0  0
  1  2  1  0
  2  3  2  0
  3  4  1  0
  4  5  2  0
  5  6  1  0
  6  7  2  0
  7  8  1  0
  8  9  1  0
  9 10  2  0
 10 11  1  0
 11 12  2  0
 12 13  1  0
 13 14  2  0
  8 15  1  0
 15 16  2  0
 16 17  1  0
 17 18  2  0
 18 19  1  0
 19 20  2  0
  8 21  1  0
 21 22  1  0
 22 23  2  0
 23 24  1  0
 24 25  2  0
  7  2  1  0
 14  9  1  0
 20 15  1  0
 25 21  1  0
  3 26  1  0
  4 27  1  0
  5 28  1  0
  6 29  1  0
 10 30  1  0
 11 31  1  0
 12 32  1  0
 13 33  1  0
 14 34  1  0
 16 35  1  0
 17 36  1  0
 18 37  1  0
 19 38  1  0
 20 39  1  0
 22 40  1  0
 23 41  1  0
 24 42  1  0
M  END
$$$$
