
     RDKit          3D

 52 55  0  0  0  0  0  0  0  0999 V2000
    3.1994    3.5263   -2.4329 O   0  0  0  0  0  0  0  0  0  0  0  0
    2.9338    2.5062   -1.8069 C   0  0  0  0  0  0  0  0  0  0  0  0
    3.9708    1.7575   -1.0835 C   0  0  0  0  0  0  0  0  0  0  0  0
    3.6241    0.6413   -0.4215 C   0  0  0  0  0  0  0  0  0  0  0  0
    4.6179   -0.1607    0.3186 C   0  0  0  0  0  0  0  0  0  0  0  0
    4.3047   -0.6450    1.6034 C   0  0  0  0  0  0  0  0  0  0  0  0
    5.2190   -1.4225    2.3195 C   0  0  0  0  0  0  0  0  0  0  0  0
    6.4443   -1.7218    1.7467 C   0  0  0  0  0  0  0  0  0  0  0  0
    7.3378   -2.4825    2.4446 O   0  0  0  0  0  0  0  0  0  0  0  0
    6.7677   -1.2599    0.4736 C   0  0  0  0  0  0  0  0  0  0  0  0
    7.9940   -1.5984   -0.0297 O   0  0  0  0  0  0  0  0  0  0  0  0
    5.8639   -0.4842   -0.2471 C   0  0  0  0  0  0  0  0  0  0  0  0
    2.3343    0.1386   -0.3615 O   0  0  0  0  0  0  0  0  0  0  0  0
    1.3362    0.8114   -1.0246 C   0  0  0  0  0  0  0  0  0  0  0  0
    0.0491    0.2684   -0.9450 C   0  0  0  0  0  0  0  0  0  0  0  0
   -1.0117    0.8992   -1.5988 C   0  0  0  0  0  0  0  0  0  0  0  0
   -2.3005    0.4533   -1.6255 O   0  0  0  0  0  0  0  0  0  0  0  0
   -2.8287   -0.2123   -0.4662 C   0  0  2  0  0  0  0  0  0  0  0  0
   -3.9965   -0.9271   -0.9160 O   0  0  0  0  0  0  0  0  0  0  0  0
   -4.6619   -1.6419    0.1374 C   0  0  2  0  0  0  0  0  0  0  0  0
   -5.7735   -2.4772   -0.5070 C   0  0  0  0  0  0  0  0  0  0  0  0
   -6.7252   -1.6265   -1.1457 O   0  0  0  0  0  0  0  0  0  0  0  0
   -5.2080   -0.6381    1.1643 C   0  0  1  0  0  0  0  0  0  0  0  0
   -5.8726   -1.2908    2.2546 O   0  0  0  0  0  0  0  0  0  0  0  0
   -4.0323    0.1588    1.7324 C   0  0  2  0  0  0  0  0  0  0  0  0
   -4.5113    1.1754    2.6324 O   0  0  0  0  0  0  0  0  0  0  0  0
   -3.2103    0.8211    0.6242 C   0  0  1  0  0  0  0  0  0  0  0  0
   -2.0523    1.4081    1.2417 O   0  0  0  0  0  0  0  0  0  0  0  0
   -0.7702    2.0542   -2.3539 C   0  0  0  0  0  0  0  0  0  0  0  0
    0.5103    2.5978   -2.4208 C   0  0  0  0  0  0  0  0  0  0  0  0
    0.6630    3.7396   -3.1600 O   0  0  0  0  0  0  0  0  0  0  0  0
    1.5657    1.9757   -1.7530 C   0  0  0  0  0  0  0  0  0  0  0  0
    4.9742    2.1616   -1.1136 H   0  0  0  0  0  0  0  0  0  0  0  0
    3.3427   -0.4150    2.0606 H   0  0  0  0  0  0  0  0  0  0  0  0
    4.9770   -1.7873    3.3136 H   0  0  0  0  0  0  0  0  0  0  0  0
    8.1112   -2.5591    1.8516 H   0  0  0  0  0  0  0  0  0  0  0  0
    8.0846   -1.2052   -0.9160 H   0  0  0  0  0  0  0  0  0  0  0  0
    6.1192   -0.1376   -1.2455 H   0  0  0  0  0  0  0  0  0  0  0  0
   -0.0872   -0.6492   -0.3800 H   0  0  0  0  0  0  0  0  0  0  0  0
   -2.1228   -0.9561   -0.0814 H   0  0  0  0  0  0  0  0  0  0  0  0
   -3.9565   -2.3391    0.6107 H   0  0  0  0  0  0  0  0  0  0  0  0
   -6.2988   -3.0851    0.2365 H   0  0  0  0  0  0  0  0  0  0  0  0
   -5.3610   -3.1448   -1.2744 H   0  0  0  0  0  0  0  0  0  0  0  0
   -6.2251   -1.1436   -1.8313 H   0  0  0  0  0  0  0  0  0  0  0  0
   -5.9204    0.0641    0.7086 H   0  0  0  0  0  0  0  0  0  0  0  0
   -6.7666   -1.5250    1.9370 H   0  0  0  0  0  0  0  0  0  0  0  0
   -3.3898   -0.4913    2.3421 H   0  0  0  0  0  0  0  0  0  0  0  0
   -5.1051    0.7021    3.2535 H   0  0  0  0  0  0  0  0  0  0  0  0
   -3.7752    1.6473    0.1726 H   0  0  0  0  0  0  0  0  0  0  0  0
   -2.4026    1.9715    1.9624 H   0  0  0  0  0  0  0  0  0  0  0  0
   -1.5873    2.5395   -2.8820 H   0  0  0  0  0  0  0  0  0  0  0  0
    1.6087    4.0080   -3.1187 H   0  0  0  0  0  0  0  0  0  0  0  0
  1  2  2  0
  2  3  1  0
  3  4  2  0
  4  5  1  0
  5  6  2  0
  6  7  1  0
  7  8  2  0
  8  9  1  0
  8 10  1  0
 10 11  1  0
 10 12  2  0
  4 13  1  0
 13 14  1  0
 14 15  2  0
 15 16  1  0
 16 17  1  0
 17 18  1  0
 18 19  1  0
 19 20  1  0
 20 21  1  0
 21 22  1  0
 20 23  1  0
 23 24  1  0
 23 25  1  0
 25 26  1  0
 25 27  1  0
 27 28  1  0
 16 29  2  0
 29 30  1  0
 30 31  1  0
 30 32  2  0
 32  2  1  0
 12  5  1  0
 32 14  1  0
 27 18  1  0
  3 33  1  0
  6 34  1  0
  7 35  1  0
  9 36  1  0
 11 37  1  0
 12 38  1  0
 15 39  1  0
 18 40  1  1
 20 41  1  1
 21 42  1  0
 21 43  1  0
 22 44  1  0
 23 45  1  6
 24 46  1  0
 25 47  1  1
 26 48  1  0
 27 49  1  6
 28 50  1  0
 29 51  1  0
 31 52  1  0
M  END
$$$$
