
     RDKit          3D

 30 30  0  0  0  0  0  0  0  0999 V2000
   -4.1458    0.8023   -1.3821 C   0  0  0  0  0  0  0  0  0  0  0  0
   -3.1284    0.2453   -0.4246 C   0  0  0  0  0  0  0  0  0  0  0  0
   -3.4766    0.0905    0.9234 C   0  0  0  0  0  0  0  0  0  0  0  0
   -2.5569   -0.4240    1.8344 C   0  0  0  0  0  0  0  0  0  0  0  0
   -1.2756   -0.7927    1.4141 C   0  0  0  0  0  0  0  0  0  0  0  0
   -0.2035   -1.4116    2.6220 Cl  0  0  0  0  0  0  0  0  0  0  0  0
   -0.8893   -0.6595    0.0672 C   0  0  0  0  0  0  0  0  0  0  0  0
    0.4216   -1.0001   -0.3649 N   0  0  0  0  0  0  0  0  0  0  0  0
    1.5768   -0.1749   -0.1835 C   0  0  0  0  0  0  0  0  0  0  0  0
    1.4742    1.2248   -0.2843 C   0  0  0  0  0  0  0  0  0  0  0  0
    2.6021    2.0420   -0.1885 C   0  0  0  0  0  0  0  0  0  0  0  0
    3.8562    1.4718   -0.0078 C   0  0  0  0  0  0  0  0  0  0  0  0
    3.9797    0.0851    0.0748 C   0  0  0  0  0  0  0  0  0  0  0  0
    2.8545   -0.7605   -0.0148 C   0  0  0  0  0  0  0  0  0  0  0  0
    3.0491   -2.2620    0.1105 C   0  0  0  0  0  0  0  0  0  0  0  0
    1.9962   -2.9735    0.2296 O   0  0  0  0  0  0  0  0  0  0  0  0
    4.2416   -2.7046    0.1025 O   0  0  0  0  0  1  0  0  0  0  0  0
   -1.8329   -0.1297   -0.8446 C   0  0  0  0  0  0  0  0  0  0  0  0
   -1.4059    0.0555   -2.5233 Cl  0  0  0  0  0  0  0  0  0  0  0  0
    0.0000    0.0000    0.0000 Na  0  0  0  0  0 15  0  0  0  0  0  0
   -5.0868    1.0399   -0.8738 H   0  0  0  0  0  0  0  0  0  0  0  0
   -4.3743    0.0725   -2.1654 H   0  0  0  0  0  0  0  0  0  0  0  0
   -3.7786    1.7288   -1.8351 H   0  0  0  0  0  0  0  0  0  0  0  0
   -4.4674    0.3685    1.2752 H   0  0  0  0  0  0  0  0  0  0  0  0
   -2.8401   -0.5379    2.8778 H   0  0  0  0  0  0  0  0  0  0  0  0
    0.6984   -1.9389    0.0039 H   0  0  0  0  0  0  0  0  0  0  0  0
    0.5084    1.6892   -0.4531 H   0  0  0  0  0  0  0  0  0  0  0  0
    2.4983    3.1192   -0.2668 H   0  0  0  0  0  0  0  0  0  0  0  0
    4.7411    2.0960    0.0636 H   0  0  0  0  0  0  0  0  0  0  0  0
    4.9639   -0.3612    0.2134 H   0  0  0  0  0  0  0  0  0  0  0  0
  1  2  1  0
  2  3  2  0
  3  4  1  0
  4  5  2  0
  5  6  1  0
  5  7  1  0
  7  8  1  0
  8  9  1  0
  9 10  2  0
 10 11  1  0
 11 12  2  0
 12 13  1  0
 13 14  2  0
 14 15  1  0
 15 16  2  0
 15 17  1  0
  7 18  2  0
 18 19  1  0
 18  2  1  0
 14  9  1  0
  1 21  1  0
  1 22  1  0
  1 23  1  0
  3 24  1  0
  4 25  1  0
  8 26  1  0
 10 27  1  0
 11 28  1  0
 12 29  1  0
 13 30  1  0
M  CHG  2  17  -1  20   1
M  END
$$$$
