
     RDKit          3D

 45 48  0  0  0  0  0  0  0  0999 V2000
    0.7614    3.3677   -0.0945 O   0  0  0  0  0  0  0  0  0  0  0  0
    0.6875    2.1583   -0.2908 C   0  0  0  0  0  0  0  0  0  0  0  0
    1.9333    1.3849   -0.1904 C   0  0  0  0  0  0  0  0  0  0  0  0
    2.6365    1.3330    1.0070 C   0  0  0  0  0  0  0  0  0  0  0  0
    3.8311    0.6116    1.0612 C   0  0  0  0  0  0  0  0  0  0  0  0
    4.3032   -0.0322   -0.0873 C   0  0  0  0  0  0  0  0  0  0  0  0
    5.5450   -0.8165   -0.1264 C   0  0  0  0  0  0  0  0  0  0  0  0
    5.7942   -1.7722   -1.1006 C   0  0  0  0  0  0  0  0  0  0  0  0
    6.9129   -2.5316   -1.1786 N   0  0  0  0  0  0  0  0  0  0  0  0
    7.8317   -2.3069   -0.2320 C   0  0  0  0  0  0  0  0  0  0  0  0
    7.7293   -1.4119    0.7594 N   0  0  0  0  0  0  0  0  0  0  0  0
    6.5866   -0.6868    0.7787 C   0  0  0  0  0  0  0  0  0  0  0  0
    3.6166    0.0298   -1.2606 N   0  0  0  0  0  0  0  0  0  0  0  0
    2.4672    0.7489   -1.2950 C   0  0  0  0  0  0  0  0  0  0  0  0
   -0.4947    1.4861   -0.5811 N   0  0  0  0  0  0  0  0  0  0  0  0
   -1.7446    2.2504   -0.6318 C   0  0  0  0  0  0  0  0  0  0  0  0
   -2.8095    1.6835    0.3249 C   0  0  0  0  0  0  0  0  0  0  0  0
   -3.0565    0.2436    0.0877 N   0  0  0  0  0  0  0  0  0  0  0  0
   -4.3097   -0.2898    0.3648 C   0  0  0  0  0  0  0  0  0  0  0  0
   -5.1157    0.2393    1.3899 C   0  0  0  0  0  0  0  0  0  0  0  0
   -6.3771   -0.2869    1.6951 C   0  0  0  0  0  0  0  0  0  0  0  0
   -6.8688   -1.3700    0.9776 C   0  0  0  0  0  0  0  0  0  0  0  0
   -6.0919   -1.9173   -0.0354 C   0  0  0  0  0  0  0  0  0  0  0  0
   -6.6887   -3.2602   -0.9341 Cl  0  0  0  0  0  0  0  0  0  0  0  0
   -4.8315   -1.3888   -0.3359 C   0  0  0  0  0  0  0  0  0  0  0  0
   -2.0874   -0.4665   -0.7631 C   0  0  0  0  0  0  0  0  0  0  0  0
   -0.6495    0.0252   -0.4990 C   0  0  0  0  0  0  0  0  0  0  0  0
    2.2629    1.8495    1.8875 H   0  0  0  0  0  0  0  0  0  0  0  0
    4.3649    0.5595    2.0048 H   0  0  0  0  0  0  0  0  0  0  0  0
    5.0671   -1.9731   -1.8852 H   0  0  0  0  0  0  0  0  0  0  0  0
    8.7383   -2.9003   -0.2718 H   0  0  0  0  0  0  0  0  0  0  0  0
    6.5564    0.0415    1.5843 H   0  0  0  0  0  0  0  0  0  0  0  0
    1.9823    0.7969   -2.2661 H   0  0  0  0  0  0  0  0  0  0  0  0
   -1.5740    3.3082   -0.4087 H   0  0  0  0  0  0  0  0  0  0  0  0
   -2.1050    2.1918   -1.6662 H   0  0  0  0  0  0  0  0  0  0  0  0
   -2.4743    1.8141    1.3609 H   0  0  0  0  0  0  0  0  0  0  0  0
   -3.7264    2.2684    0.1823 H   0  0  0  0  0  0  0  0  0  0  0  0
   -4.7588    1.0689    1.9956 H   0  0  0  0  0  0  0  0  0  0  0  0
   -6.9661    0.1490    2.4979 H   0  0  0  0  0  0  0  0  0  0  0  0
   -7.8464   -1.7808    1.2122 H   0  0  0  0  0  0  0  0  0  0  0  0
   -4.2730   -1.8426   -1.1484 H   0  0  0  0  0  0  0  0  0  0  0  0
   -2.3462   -0.3091   -1.8174 H   0  0  0  0  0  0  0  0  0  0  0  0
   -2.1040   -1.5446   -0.5639 H   0  0  0  0  0  0  0  0  0  0  0  0
    0.0306   -0.4472   -1.2134 H   0  0  0  0  0  0  0  0  0  0  0  0
   -0.3389   -0.2748    0.5094 H   0  0  0  0  0  0  0  0  0  0  0  0
  1  2  2  0
  2  3  1  0
  3  4  2  0
  4  5  1  0
  5  6  2  0
  6  7  1  0
  7  8  2  0
  8  9  1  0
  9 10  2  0
 10 11  1  0
 11 12  2  0
  6 13  1  0
 13 14  2  0
  2 15  1  0
 15 16  1  0
 16 17  1  0
 17 18  1  0
 18 19  1  0
 19 20  2  0
 20 21  1  0
 21 22  2  0
 22 23  1  0
 23 24  1  0
 23 25  2  0
 18 26  1  0
 26 27  1  0
 14  3  1  0
 27 15  1  0
 12  7  1  0
 25 19  1  0
  4 28  1  0
  5 29  1  0
  8 30  1  0
 10 31  1  0
 12 32  1  0
 14 33  1  0
 16 34  1  0
 16 35  1  0
 17 36  1  0
 17 37  1  0
 20 38  1  0
 21 39  1  0
 22 40  1  0
 25 41  1  0
 26 42  1  0
 26 43  1  0
 27 44  1  0
 27 45  1  0
M  END
$$$$
