
     RDKit          3D

119126  0  0  0  0  0  0  0  0999 V2000
   11.0235   -0.9598   -1.3145 C   0  0  0  0  0  0  0  0  0  0  0  0
   11.5494    0.2027   -0.4705 C   0  0  1  0  0  0  0  0  0  0  0  0
   10.5419    0.7477    0.3778 O   0  0  0  0  0  0  0  0  0  0  0  0
   10.0782   -0.1016    1.4289 C   0  0  1  0  0  0  0  0  0  0  0  0
    8.9650   -0.8878    0.9937 O   0  0  0  0  0  0  0  0  0  0  0  0
    7.6990   -0.2176    1.0896 C   0  0  1  0  0  0  0  0  0  0  0  0
    7.6043    1.0869    0.2673 C   0  0  1  0  0  0  0  0  0  0  0  0
    7.9032    0.8319   -1.1097 O   0  0  0  0  0  0  0  0  0  0  0  0
    6.1962    1.6593    0.3463 C   0  0  0  0  0  0  0  0  0  0  0  0
    5.1801    0.6087   -0.0855 C   0  0  2  0  0  0  0  0  0  0  0  0
    3.8805    1.1739    0.0876 O   0  0  0  0  0  0  0  0  0  0  0  0
    2.8492    0.5108   -0.6774 C   0  0  1  0  0  0  0  0  0  0  0  0
    1.9806   -0.3642    0.2412 C   0  0  1  0  0  0  0  0  0  0  0  0
    2.7445   -1.3267    0.9677 O   0  0  0  0  0  0  0  0  0  0  0  0
    1.2098    0.5002    1.2228 C   0  0  0  0  0  0  0  0  0  0  0  0
    0.3558    1.5106    0.4629 C   0  0  2  0  0  0  0  0  0  0  0  0
   -0.6546    0.8085   -0.2494 O   0  0  0  0  0  0  0  0  0  0  0  0
   -1.9508    1.4116   -0.2172 C   0  0  1  0  0  0  0  0  0  0  0  0
   -2.3800    1.6807   -1.6668 C   0  0  0  0  0  0  0  0  0  0  0  0
   -3.8820    1.4780   -1.8598 C   0  0  0  0  0  0  0  0  0  0  0  0
   -4.3239    0.0028   -1.5888 C   0  0  2  0  0  0  0  0  0  0  0  0
   -4.1936   -0.7765   -2.9163 C   0  0  0  0  0  0  0  0  0  0  0  0
   -5.7998   -0.0094   -1.0610 C   0  0  1  0  0  0  0  0  0  0  0  0
   -6.8523    0.6497   -1.9513 C   0  0  0  0  0  0  0  0  0  0  0  0
   -8.0932    0.9364   -1.0904 C   0  0  1  0  0  0  0  0  0  0  0  0
   -9.0695    1.6079   -1.8853 O   0  0  0  0  0  0  0  0  0  0  0  0
   -8.6826   -0.3239   -0.3698 C   0  0  2  0  0  0  0  0  0  0  0  0
  -10.1592   -0.5494   -0.8046 C   0  0  0  0  0  0  0  0  0  0  0  0
   -8.6006   -0.2160    1.1968 C   0  0  1  0  0  0  0  0  0  0  0  0
   -9.5891    0.6836    1.9021 C   0  0  0  0  0  0  0  0  0  0  0  0
  -10.4089    0.3884    2.9116 C   0  0  0  0  0  0  0  0  0  0  0  0
  -11.1303    1.6061    3.2713 C   0  0  0  0  0  0  0  0  0  0  0  0
  -11.9559    1.6863    4.1617 O   0  0  0  0  0  0  0  0  0  0  0  0
  -10.7173    2.6203    2.4734 O   0  0  0  0  0  0  0  0  0  0  0  0
   -9.7405    2.1221    1.5571 C   0  0  0  0  0  0  0  0  0  0  0  0
   -8.6033   -1.6913    1.6900 C   0  0  0  0  0  0  0  0  0  0  0  0
   -8.3164   -2.5680    0.4759 C   0  0  0  0  0  0  0  0  0  0  0  0
   -7.8167   -1.6117   -0.6083 C   0  0  1  0  0  0  0  0  0  0  0  0
   -8.1741   -2.1638   -1.8865 O   0  0  0  0  0  0  0  0  0  0  0  0
   -6.2588   -1.4278   -0.6479 C   0  0  2  0  0  0  0  0  0  0  0  0
   -5.4229   -1.8043    0.5842 C   0  0  0  0  0  0  0  0  0  0  0  0
   -3.9454   -1.8877    0.1984 C   0  0  0  0  0  0  0  0  0  0  0  0
   -3.3721   -0.6508   -0.5189 C   0  0  2  0  0  0  0  0  0  0  0  0
   -2.8851    0.4134    0.4863 C   0  0  0  0  0  0  0  0  0  0  0  0
    1.1383    2.3178   -0.4121 O   0  0  0  0  0  0  0  0  0  0  0  0
    1.9957    1.6209   -1.3323 C   0  0  2  0  0  0  0  0  0  0  0  0
    1.2195    1.1243   -2.5516 C   0  0  0  0  0  0  0  0  0  0  0  0
    5.2912   -0.5431    0.7428 O   0  0  0  0  0  0  0  0  0  0  0  0
    6.5795   -1.1729    0.6302 C   0  0  2  0  0  0  0  0  0  0  0  0
    6.5250   -2.4400    1.4762 C   0  0  0  0  0  0  0  0  0  0  0  0
   11.1523   -1.0414    1.9839 C   0  0  0  0  0  0  0  0  0  0  0  0
   12.5286   -0.4279    1.8112 C   0  0  2  0  0  0  0  0  0  0  0  0
   12.5862    0.7920    2.5673 O   0  0  0  0  0  0  0  0  0  0  0  0
   12.8234   -0.1607    0.3247 C   0  0  2  0  0  0  0  0  0  0  0  0
   13.7866    0.9107    0.2809 O   0  0  0  0  0  0  0  0  0  0  0  0
   10.0870   -0.6831   -1.8033 H   0  0  0  0  0  0  0  0  0  0  0  0
   11.7494   -1.2369   -2.0831 H   0  0  0  0  0  0  0  0  0  0  0  0
   10.8268   -1.8507   -0.7203 H   0  0  0  0  0  0  0  0  0  0  0  0
   11.7934    1.0085   -1.1721 H   0  0  0  0  0  0  0  0  0  0  0  0
    9.7584    0.5608    2.2442 H   0  0  0  0  0  0  0  0  0  0  0  0
    7.5202    0.0397    2.1459 H   0  0  0  0  0  0  0  0  0  0  0  0
    8.3198    1.8306    0.6331 H   0  0  0  0  0  0  0  0  0  0  0  0
    8.1632    1.6802   -1.5128 H   0  0  0  0  0  0  0  0  0  0  0  0
    6.1005    2.5452   -0.2902 H   0  0  0  0  0  0  0  0  0  0  0  0
    5.9875    1.9864    1.3754 H   0  0  0  0  0  0  0  0  0  0  0  0
    5.3390    0.3396   -1.1374 H   0  0  0  0  0  0  0  0  0  0  0  0
    3.3087   -0.1156   -1.4560 H   0  0  0  0  0  0  0  0  0  0  0  0
    1.2767   -0.9409   -0.3705 H   0  0  0  0  0  0  0  0  0  0  0  0
    3.6371   -0.9463    1.1031 H   0  0  0  0  0  0  0  0  0  0  0  0
    0.5784   -0.1391    1.8521 H   0  0  0  0  0  0  0  0  0  0  0  0
    1.9076    1.0158    1.8911 H   0  0  0  0  0  0  0  0  0  0  0  0
   -0.0933    2.1768    1.2063 H   0  0  0  0  0  0  0  0  0  0  0  0
   -1.9496    2.3533    0.3420 H   0  0  0  0  0  0  0  0  0  0  0  0
   -1.8294    1.0408   -2.3648 H   0  0  0  0  0  0  0  0  0  0  0  0
   -2.1045    2.7090   -1.9308 H   0  0  0  0  0  0  0  0  0  0  0  0
   -4.1602    1.7794   -2.8762 H   0  0  0  0  0  0  0  0  0  0  0  0
   -4.4040    2.1677   -1.1838 H   0  0  0  0  0  0  0  0  0  0  0  0
   -3.1811   -0.6771   -3.3252 H   0  0  0  0  0  0  0  0  0  0  0  0
   -4.3786   -1.8486   -2.7976 H   0  0  0  0  0  0  0  0  0  0  0  0
   -4.8872   -0.3961   -3.6753 H   0  0  0  0  0  0  0  0  0  0  0  0
   -5.7812    0.6007   -0.1440 H   0  0  0  0  0  0  0  0  0  0  0  0
   -7.1105    0.0331   -2.8207 H   0  0  0  0  0  0  0  0  0  0  0  0
   -6.4914    1.5989   -2.3627 H   0  0  0  0  0  0  0  0  0  0  0  0
   -7.7937    1.6703   -0.3348 H   0  0  0  0  0  0  0  0  0  0  0  0
   -8.6101    2.2561   -2.4491 H   0  0  0  0  0  0  0  0  0  0  0  0
  -10.2319   -0.7119   -1.8866 H   0  0  0  0  0  0  0  0  0  0  0  0
  -10.6255   -1.4048   -0.3050 H   0  0  0  0  0  0  0  0  0  0  0  0
  -10.7846    0.3196   -0.5828 H   0  0  0  0  0  0  0  0  0  0  0  0
   -7.6115    0.1914    1.4547 H   0  0  0  0  0  0  0  0  0  0  0  0
  -10.5598   -0.5388    3.4384 H   0  0  0  0  0  0  0  0  0  0  0  0
   -8.8078    2.6773    1.7033 H   0  0  0  0  0  0  0  0  0  0  0  0
  -10.1131    2.2858    0.5442 H   0  0  0  0  0  0  0  0  0  0  0  0
   -7.8420   -1.8330    2.4661 H   0  0  0  0  0  0  0  0  0  0  0  0
   -9.5610   -2.0070    2.1187 H   0  0  0  0  0  0  0  0  0  0  0  0
   -9.2416   -3.0598    0.1543 H   0  0  0  0  0  0  0  0  0  0  0  0
   -7.6354   -3.3933    0.6927 H   0  0  0  0  0  0  0  0  0  0  0  0
   -7.9301   -3.1060   -1.8885 H   0  0  0  0  0  0  0  0  0  0  0  0
   -5.9363   -2.1244   -1.4312 H   0  0  0  0  0  0  0  0  0  0  0  0
   -5.7031   -2.7810    0.9846 H   0  0  0  0  0  0  0  0  0  0  0  0
   -5.5606   -1.0769    1.3923 H   0  0  0  0  0  0  0  0  0  0  0  0
   -3.3523   -2.1241    1.0882 H   0  0  0  0  0  0  0  0  0  0  0  0
   -3.8247   -2.7536   -0.4667 H   0  0  0  0  0  0  0  0  0  0  0  0
   -2.4723   -1.0154   -1.0343 H   0  0  0  0  0  0  0  0  0  0  0  0
   -2.3459   -0.0670    1.3127 H   0  0  0  0  0  0  0  0  0  0  0  0
   -3.7405    0.9439    0.9210 H   0  0  0  0  0  0  0  0  0  0  0  0
    2.6811    2.3957   -1.7021 H   0  0  0  0  0  0  0  0  0  0  0  0
    0.5828    1.9232   -2.9506 H   0  0  0  0  0  0  0  0  0  0  0  0
    0.5742    0.2725   -2.3152 H   0  0  0  0  0  0  0  0  0  0  0  0
    1.9058    0.8019   -3.3408 H   0  0  0  0  0  0  0  0  0  0  0  0
    6.7398   -1.4803   -0.4109 H   0  0  0  0  0  0  0  0  0  0  0  0
    7.4519   -3.0155    1.4064 H   0  0  0  0  0  0  0  0  0  0  0  0
    5.6981   -3.0764    1.1458 H   0  0  0  0  0  0  0  0  0  0  0  0
    6.3370   -2.2013    2.5292 H   0  0  0  0  0  0  0  0  0  0  0  0
   10.9431   -1.2314    3.0416 H   0  0  0  0  0  0  0  0  0  0  0  0
   11.1148   -2.0216    1.4912 H   0  0  0  0  0  0  0  0  0  0  0  0
   13.3018   -1.0830    2.2303 H   0  0  0  0  0  0  0  0  0  0  0  0
   13.2495    1.3392    2.0945 H   0  0  0  0  0  0  0  0  0  0  0  0
   13.3047   -1.0382   -0.1233 H   0  0  0  0  0  0  0  0  0  0  0  0
   14.0078    1.0658   -0.6537 H   0  0  0  0  0  0  0  0  0  0  0  0
  1  2  1  0
  2  3  1  0
  3  4  1  0
  4  5  1  0
  5  6  1  0
  6  7  1  0
  7  8  1  0
  7  9  1  0
  9 10  1  0
 10 11  1  0
 11 12  1  0
 12 13  1  0
 13 14  1  0
 13 15  1  0
 15 16  1  0
 16 17  1  0
 17 18  1  0
 18 19  1  0
 19 20  1  0
 20 21  1  0
 21 22  1  6
 21 23  1  0
 23 24  1  0
 24 25  1  0
 25 26  1  0
 25 27  1  0
 27 28  1  1
 27 29  1  0
 29 30  1  0
 30 31  2  0
 31 32  1  0
 32 33  2  0
 32 34  1  0
 34 35  1  0
 29 36  1  0
 36 37  1  0
 37 38  1  0
 38 39  1  6
 38 40  1  0
 40 41  1  0
 41 42  1  0
 42 43  1  0
 43 44  1  0
 16 45  1  0
 45 46  1  0
 46 47  1  0
 10 48  1  0
 48 49  1  0
 49 50  1  0
  4 51  1  0
 51 52  1  0
 52 53  1  0
 52 54  1  0
 54 55  1  0
 54  2  1  0
 49  6  1  0
 46 12  1  0
 44 18  1  0
 43 21  1  0
 40 23  1  0
 38 27  1  0
 35 30  1  0
  1 56  1  0
  1 57  1  0
  1 58  1  0
  2 59  1  6
  4 60  1  1
  6 61  1  1
  7 62  1  1
  8 63  1  0
  9 64  1  0
  9 65  1  0
 10 66  1  6
 12 67  1  6
 13 68  1  6
 14 69  1  0
 15 70  1  0
 15 71  1  0
 16 72  1  1
 18 73  1  1
 19 74  1  0
 19 75  1  0
 20 76  1  0
 20 77  1  0
 22 78  1  0
 22 79  1  0
 22 80  1  0
 23 81  1  1
 24 82  1  0
 24 83  1  0
 25 84  1  1
 26 85  1  0
 28 86  1  0
 28 87  1  0
 28 88  1  0
 29 89  1  6
 31 90  1  0
 35 91  1  0
 35 92  1  0
 36 93  1  0
 36 94  1  0
 37 95  1  0
 37 96  1  0
 39 97  1  0
 40 98  1  6
 41 99  1  0
 41100  1  0
 42101  1  0
 42102  1  0
 43103  1  6
 44104  1  0
 44105  1  0
 46106  1  6
 47107  1  0
 47108  1  0
 47109  1  0
 49110  1  6
 50111  1  0
 50112  1  0
 50113  1  0
 51114  1  0
 51115  1  0
 52116  1  1
 53117  1  0
 54118  1  6
 55119  1  0
M  END
$$$$
