
     RDKit          3D

 52 54  0  0  0  0  0  0  0  0999 V2000
   -1.5620    3.4897    0.7731 C   0  0  0  0  0  0  0  0  0  0  0  0
   -0.8628    2.4635   -0.0835 C   0  0  0  0  0  0  0  0  0  0  0  0
    0.1890    2.7655   -0.6506 O   0  0  0  0  0  0  0  0  0  0  0  0
   -1.4405    1.1897   -0.2062 N   0  0  0  0  0  0  0  0  0  0  0  0
   -2.5631    0.7449    0.6655 C   0  0  0  0  0  0  0  0  0  0  0  0
   -2.3411   -0.5749    1.4083 C   0  0  0  0  0  0  0  0  0  0  0  0
   -3.5057   -0.8701    2.3551 C   0  0  0  0  0  0  0  0  0  0  0  0
   -4.7360   -0.2685    1.9532 O   0  0  0  0  0  0  0  0  0  0  0  0
   -4.8972   -0.2219    0.5411 C   0  0  0  0  0  0  0  0  0  0  0  0
   -3.9237    0.7903   -0.0478 C   0  0  0  0  0  0  0  0  0  0  0  0
   -0.7519    0.2728   -1.1585 C   0  0  0  0  0  0  0  0  0  0  0  0
   -1.6603   -0.6412   -1.9939 C   0  0  0  0  0  0  0  0  0  0  0  0
   -0.8316   -1.4794   -2.9667 C   0  0  0  0  0  0  0  0  0  0  0  0
    0.2679   -2.2539   -2.2508 C   0  0  0  0  0  0  0  0  0  0  0  0
    1.1184   -1.3781   -1.4482 N   0  0  0  0  0  0  0  0  0  0  0  0
    2.4056   -1.8590   -1.1718 C   0  0  0  0  0  0  0  0  0  0  0  0
    2.8005   -2.9641   -1.5404 O   0  0  0  0  0  0  0  0  0  0  0  0
    3.3565   -1.0185   -0.4186 C   0  0  0  0  0  0  0  0  0  0  0  0
    4.1468   -1.5882    0.5785 C   0  0  0  0  0  0  0  0  0  0  0  0
    5.0767   -0.7954    1.2482 C   0  0  0  0  0  0  0  0  0  0  0  0
    5.2005    0.5449    0.8891 C   0  0  0  0  0  0  0  0  0  0  0  0
    6.1943    1.4230    1.5886 C   0  0  0  0  0  0  0  0  0  0  0  0
    4.4576    1.1085   -0.0936 N   0  0  0  0  0  0  0  0  0  0  0  0
    3.5616    0.3160   -0.7335 C   0  0  0  0  0  0  0  0  0  0  0  0
    0.4031   -0.5132   -0.4984 C   0  0  0  0  0  0  0  0  0  0  0  0
   -1.1402    4.4778    0.5623 H   0  0  0  0  0  0  0  0  0  0  0  0
   -2.6280    3.5342    0.5388 H   0  0  0  0  0  0  0  0  0  0  0  0
   -1.4018    3.2676    1.8310 H   0  0  0  0  0  0  0  0  0  0  0  0
   -2.6404    1.4774    1.4761 H   0  0  0  0  0  0  0  0  0  0  0  0
   -1.4050   -0.5586    1.9780 H   0  0  0  0  0  0  0  0  0  0  0  0
   -2.2578   -1.4103    0.7082 H   0  0  0  0  0  0  0  0  0  0  0  0
   -3.6546   -1.9513    2.4518 H   0  0  0  0  0  0  0  0  0  0  0  0
   -3.2785   -0.4872    3.3558 H   0  0  0  0  0  0  0  0  0  0  0  0
   -5.9269    0.0767    0.3202 H   0  0  0  0  0  0  0  0  0  0  0  0
   -4.7474   -1.2218    0.1163 H   0  0  0  0  0  0  0  0  0  0  0  0
   -3.8538    0.6393   -1.1268 H   0  0  0  0  0  0  0  0  0  0  0  0
   -4.3374    1.7994    0.0778 H   0  0  0  0  0  0  0  0  0  0  0  0
   -0.2689    0.9174   -1.9073 H   0  0  0  0  0  0  0  0  0  0  0  0
   -2.3663   -0.0359   -2.5732 H   0  0  0  0  0  0  0  0  0  0  0  0
   -2.2524   -1.3130   -1.3686 H   0  0  0  0  0  0  0  0  0  0  0  0
   -0.3797   -0.8168   -3.7156 H   0  0  0  0  0  0  0  0  0  0  0  0
   -1.4848   -2.1743   -3.5061 H   0  0  0  0  0  0  0  0  0  0  0  0
    0.8744   -2.7831   -2.9946 H   0  0  0  0  0  0  0  0  0  0  0  0
   -0.1617   -3.0083   -1.5803 H   0  0  0  0  0  0  0  0  0  0  0  0
    4.0464   -2.6423    0.8239 H   0  0  0  0  0  0  0  0  0  0  0  0
    5.6991   -1.2218    2.0285 H   0  0  0  0  0  0  0  0  0  0  0  0
    7.2081    1.0382    1.4408 H   0  0  0  0  0  0  0  0  0  0  0  0
    5.9766    1.4615    2.6604 H   0  0  0  0  0  0  0  0  0  0  0  0
    6.1564    2.4442    1.1963 H   0  0  0  0  0  0  0  0  0  0  0  0
    3.0060    0.8064   -1.5284 H   0  0  0  0  0  0  0  0  0  0  0  0
    0.0313   -1.1772    0.2880 H   0  0  0  0  0  0  0  0  0  0  0  0
    1.0850    0.1793   -0.0012 H   0  0  0  0  0  0  0  0  0  0  0  0
  1  2  1  0
  2  3  2  0
  2  4  1  0
  4  5  1  0
  5  6  1  0
  6  7  1  0
  7  8  1  0
  8  9  1  0
  9 10  1  0
  4 11  1  0
 11 12  1  0
 12 13  1  0
 13 14  1  0
 14 15  1  0
 15 16  1  0
 16 17  2  0
 16 18  1  0
 18 19  2  0
 19 20  1  0
 20 21  2  0
 21 22  1  0
 21 23  1  0
 23 24  2  0
 15 25  1  0
 10  5  1  0
 25 11  1  0
 24 18  1  0
  1 26  1  0
  1 27  1  0
  1 28  1  0
  5 29  1  0
  6 30  1  0
  6 31  1  0
  7 32  1  0
  7 33  1  0
  9 34  1  0
  9 35  1  0
 10 36  1  0
 10 37  1  0
 11 38  1  0
 12 39  1  0
 12 40  1  0
 13 41  1  0
 13 42  1  0
 14 43  1  0
 14 44  1  0
 19 45  1  0
 20 46  1  0
 22 47  1  0
 22 48  1  0
 22 49  1  0
 24 50  1  0
 25 51  1  0
 25 52  1  0
M  END
$$$$
