
     RDKit          3D

 38 40  0  0  0  0  0  0  0  0999 V2000
   -3.1092    0.5664   -4.0971 C   0  0  0  0  0  0  0  0  0  0  0  0
   -2.5124    0.3510   -2.7577 C   0  0  0  0  0  0  0  0  0  0  0  0
   -1.1585    0.1382   -2.4366 C   0  0  0  0  0  0  0  0  0  0  0  0
   -1.1072    0.0727   -1.0598 C   0  0  0  0  0  0  0  0  0  0  0  0
   -0.0163    0.0731   -0.1950 N   0  0  0  0  0  0  0  0  0  0  0  0
    1.3070    0.0381   -0.6228 C   0  0  0  0  0  0  0  0  0  0  0  0
    1.6560   -0.0882   -1.7894 O   0  0  0  0  0  0  0  0  0  0  0  0
    2.1660    0.1469    0.4631 N   0  0  0  0  0  0  0  0  0  0  0  0
    3.5771    0.1121    0.4561 C   0  0  0  0  0  0  0  0  0  0  0  0
    4.3521   -0.0950   -0.6865 C   0  0  0  0  0  0  0  0  0  0  0  0
    5.7485   -0.1185   -0.6026 C   0  0  0  0  0  0  0  0  0  0  0  0
    6.3822    0.0633    0.6241 C   0  0  0  0  0  0  0  0  0  0  0  0
    5.6200    0.2687    1.7705 C   0  0  0  0  0  0  0  0  0  0  0  0
    4.2251    0.2923    1.6865 C   0  0  0  0  0  0  0  0  0  0  0  0
   -2.4423    0.0675   -0.6418 N   0  0  0  0  0  0  0  0  0  0  0  0
   -2.9891   -0.2287    0.6421 C   0  0  0  0  0  0  0  0  0  0  0  0
   -4.2690    0.2482    0.9650 C   0  0  0  0  0  0  0  0  0  0  0  0
   -4.8280   -0.0240    2.2154 C   0  0  0  0  0  0  0  0  0  0  0  0
   -4.1250   -0.7906    3.1423 C   0  0  0  0  0  0  0  0  0  0  0  0
   -2.8690   -1.2993    2.8159 C   0  0  0  0  0  0  0  0  0  0  0  0
   -2.3022   -1.0273    1.5671 C   0  0  0  0  0  0  0  0  0  0  0  0
   -3.2788    0.3903   -1.6654 N   0  0  0  0  0  0  0  0  0  0  0  0
   -3.4673    1.5969   -4.1948 H   0  0  0  0  0  0  0  0  0  0  0  0
   -2.3766    0.3834   -4.8900 H   0  0  0  0  0  0  0  0  0  0  0  0
   -3.9554   -0.1102   -4.2561 H   0  0  0  0  0  0  0  0  0  0  0  0
   -0.3242    0.1254   -3.1245 H   0  0  0  0  0  0  0  0  0  0  0  0
   -0.1980    0.2072    0.7873 H   0  0  0  0  0  0  0  0  0  0  0  0
    1.7411    0.3122    1.3613 H   0  0  0  0  0  0  0  0  0  0  0  0
    3.9037   -0.2445   -1.6636 H   0  0  0  0  0  0  0  0  0  0  0  0
    6.3380   -0.2800   -1.5021 H   0  0  0  0  0  0  0  0  0  0  0  0
    7.4672    0.0444    0.6842 H   0  0  0  0  0  0  0  0  0  0  0  0
    6.1102    0.4108    2.7303 H   0  0  0  0  0  0  0  0  0  0  0  0
    3.6564    0.4549    2.5983 H   0  0  0  0  0  0  0  0  0  0  0  0
   -4.8370    0.8470    0.2543 H   0  0  0  0  0  0  0  0  0  0  0  0
   -5.8156    0.3587    2.4609 H   0  0  0  0  0  0  0  0  0  0  0  0
   -4.5666   -1.0091    4.1116 H   0  0  0  0  0  0  0  0  0  0  0  0
   -2.3416   -1.9302    3.5274 H   0  0  0  0  0  0  0  0  0  0  0  0
   -1.3613   -1.5108    1.3222 H   0  0  0  0  0  0  0  0  0  0  0  0
  1  2  1  0
  2  3  1  0
  3  4  2  0
  4  5  1  0
  5  6  1  0
  6  7  2  0
  6  8  1  0
  8  9  1  0
  9 10  2  0
 10 11  1  0
 11 12  2  0
 12 13  1  0
 13 14  2  0
  4 15  1  0
 15 16  1  0
 16 17  2  0
 17 18  1  0
 18 19  2  0
 19 20  1  0
 20 21  2  0
 15 22  1  0
 22  2  2  0
 14  9  1  0
 21 16  1  0
  1 23  1  0
  1 24  1  0
  1 25  1  0
  3 26  1  0
  5 27  1  0
  8 28  1  0
 10 29  1  0
 11 30  1  0
 12 31  1  0
 13 32  1  0
 14 33  1  0
 17 34  1  0
 18 35  1  0
 19 36  1  0
 20 37  1  0
 21 38  1  0
M  END
$$$$
