
     RDKit          3D

 47 50  0  0  0  0  0  0  0  0999 V2000
   -4.7823   -2.8252    0.2084 C   0  0  0  0  0  0  0  0  0  0  0  0
   -4.1253   -1.5171    0.1728 N   0  0  0  0  0  0  0  0  0  0  0  0
   -2.7358   -1.5504    0.2374 C   0  0  0  0  0  0  0  0  0  0  0  0
   -2.1031   -2.6138    0.3419 O   0  0  0  0  0  0  0  0  0  0  0  0
   -1.9546   -0.2483    0.2063 C   0  0  1  0  0  0  0  0  0  0  0  0
   -0.5299   -0.6122    0.1972 N   0  0  0  0  0  0  0  0  0  0  0  0
    0.4471    0.3287    0.4658 C   0  0  0  0  0  0  0  0  0  0  0  0
    0.1479    1.5137    0.5931 O   0  0  0  0  0  0  0  0  0  0  0  0
    1.7959   -0.1883    0.5857 C   0  0  0  0  0  0  0  0  0  0  0  0
    2.8212    0.4793    1.0831 N   0  0  0  0  0  0  0  0  0  0  0  0
    3.8765   -0.3917    0.9587 C   0  0  0  0  0  0  0  0  0  0  0  0
    5.2506   -0.0451    1.4103 C   0  0  0  0  0  0  0  0  0  0  0  0
    5.9415    0.5878    0.2256 C   0  0  0  0  0  0  0  0  0  0  0  0
    6.7388   -0.1850   -0.6327 C   0  0  0  0  0  0  0  0  0  0  0  0
    7.3790    0.4015   -1.7257 C   0  0  0  0  0  0  0  0  0  0  0  0
    7.2270    1.7641   -1.9756 C   0  0  0  0  0  0  0  0  0  0  0  0
    6.4319    2.5415   -1.1357 C   0  0  0  0  0  0  0  0  0  0  0  0
    5.7914    1.9577   -0.0417 C   0  0  0  0  0  0  0  0  0  0  0  0
    3.5469   -1.5888    0.4517 N   0  0  0  0  0  0  0  0  0  0  0  0
    2.2429   -1.4155    0.1871 N   0  0  0  0  0  0  0  0  0  0  0  0
   -2.3888    0.4736   -1.0520 C   0  0  0  0  0  0  0  0  0  0  0  0
   -3.4035    1.4108   -0.7454 O   0  0  0  0  0  0  0  0  0  0  0  0
   -4.5766    0.9632   -0.2081 C   0  0  0  0  0  0  0  0  0  0  0  0
   -5.4877    2.0356   -0.1043 C   0  0  0  0  0  0  0  0  0  0  0  0
   -6.7810    1.8581    0.3699 C   0  0  0  0  0  0  0  0  0  0  0  0
   -7.1837    0.5934    0.7526 C   0  0  0  0  0  0  0  0  0  0  0  0
   -6.2870   -0.4772    0.6630 C   0  0  0  0  0  0  0  0  0  0  0  0
   -4.9576   -0.3341    0.1903 C   0  0  0  0  0  0  0  0  0  0  0  0
   -5.6599   -2.8315   -0.4464 H   0  0  0  0  0  0  0  0  0  0  0  0
   -5.0603   -3.0596    1.2408 H   0  0  0  0  0  0  0  0  0  0  0  0
   -4.1201   -3.6186   -0.1524 H   0  0  0  0  0  0  0  0  0  0  0  0
   -2.1541    0.3143    1.1257 H   0  0  0  0  0  0  0  0  0  0  0  0
   -0.3569   -1.5959    0.3764 H   0  0  0  0  0  0  0  0  0  0  0  0
    5.7937   -0.9343    1.7503 H   0  0  0  0  0  0  0  0  0  0  0  0
    5.2196    0.6541    2.2536 H   0  0  0  0  0  0  0  0  0  0  0  0
    6.8572   -1.2521   -0.4562 H   0  0  0  0  0  0  0  0  0  0  0  0
    7.9928   -0.2067   -2.3847 H   0  0  0  0  0  0  0  0  0  0  0  0
    7.7232    2.2194   -2.8283 H   0  0  0  0  0  0  0  0  0  0  0  0
    6.3044    3.6023   -1.3344 H   0  0  0  0  0  0  0  0  0  0  0  0
    5.1618    2.5737    0.5983 H   0  0  0  0  0  0  0  0  0  0  0  0
    1.7301   -2.1609   -0.2676 H   0  0  0  0  0  0  0  0  0  0  0  0
   -2.7248   -0.1939   -1.8567 H   0  0  0  0  0  0  0  0  0  0  0  0
   -1.5600    1.0546   -1.4715 H   0  0  0  0  0  0  0  0  0  0  0  0
   -5.1730    3.0320   -0.4134 H   0  0  0  0  0  0  0  0  0  0  0  0
   -7.4619    2.7019    0.4368 H   0  0  0  0  0  0  0  0  0  0  0  0
   -8.1896    0.4317    1.1322 H   0  0  0  0  0  0  0  0  0  0  0  0
   -6.6640   -1.4331    1.0177 H   0  0  0  0  0  0  0  0  0  0  0  0
  1  2  1  0
  2  3  1  0
  3  4  2  0
  3  5  1  0
  5  6  1  0
  6  7  1  0
  7  8  2  0
  7  9  1  0
  9 10  2  0
 10 11  1  0
 11 12  1  0
 12 13  1  0
 13 14  2  0
 14 15  1  0
 15 16  2  0
 16 17  1  0
 17 18  2  0
 11 19  2  0
 19 20  1  0
  5 21  1  0
 21 22  1  0
 22 23  1  0
 23 24  2  0
 24 25  1  0
 25 26  2  0
 26 27  1  0
 27 28  2  0
 28  2  1  0
 20  9  1  0
 28 23  1  0
 18 13  1  0
  1 29  1  0
  1 30  1  0
  1 31  1  0
  5 32  1  1
  6 33  1  0
 12 34  1  0
 12 35  1  0
 14 36  1  0
 15 37  1  0
 16 38  1  0
 17 39  1  0
 18 40  1  0
 20 41  1  0
 21 42  1  0
 21 43  1  0
 24 44  1  0
 25 45  1  0
 26 46  1  0
 27 47  1  0
M  END
$$$$
