
     RDKit          3D

 15 15  0  0  0  0  0  0  0  0999 V2000
   -2.7899   -1.3545   -0.0009 O   0  0  0  0  0  0  0  0  0  0  0  0
   -2.1959   -0.2932    0.0113 C   0  0  0  0  0  0  0  0  0  0  0  0
   -2.8517    0.8790    0.0343 O   0  0  0  0  0  0  0  0  0  0  0  0
   -0.7225   -0.1267    0.0032 C   0  0  0  0  0  0  0  0  0  0  0  0
    0.0732   -1.2732   -0.0203 C   0  0  0  0  0  0  0  0  0  0  0  0
    1.4735   -1.1706   -0.0288 C   0  0  0  0  0  0  0  0  0  0  0  0
    2.4825   -3.0291   -0.0650 I   0  0  0  0  0  0  0  0  0  0  0  0
    2.0989    0.0942   -0.0137 C   0  0  0  0  0  0  0  0  0  0  0  0
    4.2227    0.2612   -0.0264 I   0  0  0  0  0  0  0  0  0  0  0  0
    1.2833    1.2459    0.0101 C   0  0  0  0  0  0  0  0  0  0  0  0
    1.9917    3.2397    0.0360 I   0  0  0  0  0  0  0  0  0  0  0  0
   -0.1167    1.1304    0.0184 C   0  0  0  0  0  0  0  0  0  0  0  0
   -3.7988    0.6238    0.0371 H   0  0  0  0  0  0  0  0  0  0  0  0
   -0.4106   -2.2498   -0.0320 H   0  0  0  0  0  0  0  0  0  0  0  0
   -0.7398    2.0229    0.0368 H   0  0  0  0  0  0  0  0  0  0  0  0
  1  2  2  0
  2  3  1  0
  2  4  1  0
  4  5  2  0
  5  6  1  0
  6  7  1  0
  6  8  2  0
  8  9  1  0
  8 10  1  0
 10 11  1  0
 10 12  2  0
 12  4  1  0
  3 13  1  0
  5 14  1  0
 12 15  1  0
M  END
$$$$
