
     RDKit          3D

 33 35  0  0  0  0  0  0  0  0999 V2000
    2.1558    1.7504   -2.4896 O   0  0  0  0  0  0  0  0  0  0  0  0
    1.6921    1.0973   -1.5575 C   0  0  0  0  0  0  0  0  0  0  0  0
    0.2300    1.0396   -1.3299 C   0  0  0  0  0  0  0  0  0  0  0  0
   -0.5755    1.7340   -2.2121 O   0  0  0  0  0  0  0  0  0  0  0  0
   -0.2307    0.3087   -0.2983 C   0  0  0  0  0  0  0  0  0  0  0  0
   -1.6683    0.1765    0.0186 C   0  0  0  0  0  0  0  0  0  0  0  0
   -2.4952    1.3068    0.1447 C   0  0  0  0  0  0  0  0  0  0  0  0
   -3.8368    1.1527    0.4725 C   0  0  0  0  0  0  0  0  0  0  0  0
   -4.6303    2.2569    0.5934 O   0  0  0  0  0  0  0  0  0  0  0  0
   -4.3694   -0.1109    0.6812 C   0  0  0  0  0  0  0  0  0  0  0  0
   -5.6940   -0.2321    1.0034 O   0  0  0  0  0  0  0  0  0  0  0  0
   -3.5633   -1.2360    0.5672 C   0  0  0  0  0  0  0  0  0  0  0  0
   -4.1398   -2.4563    0.7875 O   0  0  0  0  0  0  0  0  0  0  0  0
   -2.2158   -1.1029    0.2416 C   0  0  0  0  0  0  0  0  0  0  0  0
    0.5820   -0.4163    0.5648 O   0  0  0  0  0  0  0  0  0  0  0  0
    1.9413   -0.3748    0.3854 C   0  0  0  0  0  0  0  0  0  0  0  0
    2.7222   -1.1029    1.2821 C   0  0  0  0  0  0  0  0  0  0  0  0
    4.1079   -1.0991    1.1453 C   0  0  0  0  0  0  0  0  0  0  0  0
    4.8334   -1.8249    2.0428 O   0  0  0  0  0  0  0  0  0  0  0  0
    4.7275   -0.3797    0.1268 C   0  0  0  0  0  0  0  0  0  0  0  0
    3.9422    0.3458   -0.7661 C   0  0  0  0  0  0  0  0  0  0  0  0
    4.6024    1.0329   -1.7485 O   0  0  0  0  0  0  0  0  0  0  0  0
    2.5495    0.3488   -0.6365 C   0  0  0  0  0  0  0  0  0  0  0  0
    0.0362    2.1599   -2.8484 H   0  0  0  0  0  0  0  0  0  0  0  0
   -2.1024    2.3084   -0.0093 H   0  0  0  0  0  0  0  0  0  0  0  0
   -5.5137    1.9012    0.8181 H   0  0  0  0  0  0  0  0  0  0  0  0
   -5.8294   -1.1973    1.0978 H   0  0  0  0  0  0  0  0  0  0  0  0
   -3.4580   -3.1411    0.6722 H   0  0  0  0  0  0  0  0  0  0  0  0
   -1.5822   -1.9810    0.1538 H   0  0  0  0  0  0  0  0  0  0  0  0
    2.2581   -1.6692    2.0849 H   0  0  0  0  0  0  0  0  0  0  0  0
    5.7791   -1.7215    1.8409 H   0  0  0  0  0  0  0  0  0  0  0  0
    5.8070   -0.3719    0.0129 H   0  0  0  0  0  0  0  0  0  0  0  0
    3.9381    1.4980   -2.3049 H   0  0  0  0  0  0  0  0  0  0  0  0
  1  2  2  0
  2  3  1  0
  3  4  1  0
  3  5  2  0
  5  6  1  0
  6  7  2  0
  7  8  1  0
  8  9  1  0
  8 10  2  0
 10 11  1  0
 10 12  1  0
 12 13  1  0
 12 14  2  0
  5 15  1  0
 15 16  1  0
 16 17  2  0
 17 18  1  0
 18 19  1  0
 18 20  2  0
 20 21  1  0
 21 22  1  0
 21 23  2  0
 23  2  1  0
 14  6  1  0
 23 16  1  0
  4 24  1  0
  7 25  1  0
  9 26  1  0
 11 27  1  0
 13 28  1  0
 14 29  1  0
 17 30  1  0
 19 31  1  0
 20 32  1  0
 22 33  1  0
M  END
$$$$
