
     RDKit          3D

 33 32  0  0  0  0  0  0  0  0999 V2000
   -1.5574    1.1907   -0.3792 C   0  0  0  0  0  0  0  0  0  0  0  0
   -1.5401   -0.2469    0.1119 C   0  0  0  0  0  0  0  0  0  0  0  0
   -0.1238   -1.1649   -0.5564 S   0  0  0  0  0  0  0  0  0  0  0  0
    1.1670   -0.6515    0.4881 C   0  0  0  0  0  0  0  0  0  0  0  0
    0.9662    0.1370    1.4789 N   0  0  0  0  0  0  0  0  0  0  0  0
    2.3818   -1.1398    0.1543 N   0  0  0  0  0  0  0  0  0  0  0  0
    3.7350   -0.3190   -0.5221 O   0  0  0  0  0  0  0  0  0  0  0  0
    2.7857   -1.1111   -0.4777 N   0  0  0  0  0  4  0  0  0  0  0  0
    2.8763   -2.3376   -0.6114 O   0  0  0  0  0  1  0  0  0  0  0  0
    1.4460   -0.5511   -0.2468 C   0  0  0  0  0  0  0  0  0  0  0  0
    0.3394   -1.4098   -0.1490 C   0  0  0  0  0  0  0  0  0  0  0  0
   -0.9447   -0.8710    0.0709 C   0  0  0  0  0  0  0  0  0  0  0  0
   -2.0821   -1.7953    0.1645 N   0  0  0  0  0  4  0  0  0  0  0  0
   -3.1998   -1.3007    0.3740 O   0  0  0  0  0  0  0  0  0  0  0  0
   -1.8589   -3.0040    0.0298 O   0  0  0  0  0  1  0  0  0  0  0  0
   -1.1293    0.5159    0.1950 C   0  0  0  0  0  0  0  0  0  0  0  0
   -2.3420    1.1152    0.3932 O   0  0  0  0  0  0  0  0  0  0  0  0
    0.0008    1.3368    0.0968 C   0  0  0  0  0  0  0  0  0  0  0  0
   -0.1403    2.7710    0.2270 N   0  0  0  0  0  4  0  0  0  0  0  0
   -0.2187    3.2226    1.3758 O   0  0  0  0  0  0  0  0  0  0  0  0
   -0.1018    3.4277   -0.8208 O   0  0  0  0  0  1  0  0  0  0  0  0
    1.2878    0.8322   -0.1253 C   0  0  0  0  0  0  0  0  0  0  0  0
   -2.4425    1.7045    0.0107 H   0  0  0  0  0  0  0  0  0  0  0  0
   -1.6042    1.2390   -1.4725 H   0  0  0  0  0  0  0  0  0  0  0  0
   -0.6786    1.7513   -0.0460 H   0  0  0  0  0  0  0  0  0  0  0  0
   -2.4476   -0.7499   -0.2387 H   0  0  0  0  0  0  0  0  0  0  0  0
   -1.5580   -0.2923    1.2052 H   0  0  0  0  0  0  0  0  0  0  0  0
    1.8497    0.2785    1.9714 H   0  0  0  0  0  0  0  0  0  0  0  0
    2.4169   -1.5046   -0.7915 H   0  0  0  0  0  0  0  0  0  0  0  0
    3.1708   -0.5510    0.3822 H   0  0  0  0  0  0  0  0  0  0  0  0
    0.4760   -2.4880   -0.2446 H   0  0  0  0  0  0  0  0  0  0  0  0
   -3.0658    0.4545    0.4695 H   0  0  0  0  0  0  0  0  0  0  0  0
    2.1364    1.5118   -0.1990 H   0  0  0  0  0  0  0  0  0  0  0  0
  1  2  1  0
  2  3  1  0
  3  4  1  0
  4  5  2  3
  4  6  1  0
  7  8  2  0
  8  9  1  0
  8 10  1  0
 10 11  2  0
 11 12  1  0
 12 13  1  0
 13 14  2  0
 13 15  1  0
 12 16  2  0
 16 17  1  0
 16 18  1  0
 18 19  1  0
 19 20  2  0
 19 21  1  0
 18 22  2  0
 22 10  1  0
  1 23  1  0
  1 24  1  0
  1 25  1  0
  2 26  1  0
  2 27  1  0
  5 28  1  0
  6 29  1  0
  6 30  1  0
 11 31  1  0
 17 32  1  0
 22 33  1  0
M  CHG  6   8   1   9  -1  13   1  15  -1  19   1  21  -1
M  END
$$$$
