
     RDKit          3D

 57 56  0  0  0  0  0  0  0  0999 V2000
    0.0020    0.0049    0.2955 N   0  0  0  0  0  0  0  0  0  0  0  0
    0.0074    0.0213    0.2947 N   0  0  0  0  0  0  0  0  0  0  0  0
   -0.0069    0.0027    0.2955 N   0  0  0  0  0  0  0  0  0  0  0  0
   -4.2688   -4.3796   -0.3564 O   0  0  0  0  0  0  0  0  0  0  0  0
   -3.3781   -3.6205   -0.6894 C   0  0  0  0  0  0  0  0  0  0  0  0
   -2.4840   -4.0084   -1.6225 O   0  0  0  0  0  0  0  0  0  0  0  0
   -3.1265   -2.2590   -0.1756 C   0  0  0  0  0  0  0  0  0  0  0  0
   -1.8866   -1.7325   -0.2397 C   0  0  0  0  0  0  0  0  0  0  0  0
   -1.5520   -0.3963    0.2803 C   0  0  0  0  0  0  0  0  0  0  0  0
   -0.2964    0.1295    0.1580 C   0  0  0  0  0  0  0  0  0  0  0  0
    0.7845   -0.6205   -0.5365 C   0  0  0  0  0  0  0  0  0  0  0  0
    0.9267   -0.5307   -1.9266 C   0  0  0  0  0  0  0  0  0  0  0  0
    1.9454   -1.2307   -2.5743 C   0  0  0  0  0  0  0  0  0  0  0  0
    2.8295   -2.0191   -1.8389 C   0  0  0  0  0  0  0  0  0  0  0  0
    3.7927   -2.6656   -2.5638 O   0  0  0  0  0  0  0  0  0  0  0  0
    2.7055   -2.1163   -0.4469 C   0  0  0  0  0  0  0  0  0  0  0  0
    3.6044   -2.9279    0.4083 C   0  0  0  0  0  0  0  0  0  0  0  0
    3.5324   -3.0392    1.6178 O   0  0  0  0  0  0  0  0  0  0  0  0
    4.5618   -3.5708   -0.2912 O   0  0  0  0  0  0  0  0  0  0  0  0
    1.6772   -1.4124    0.1989 C   0  0  0  0  0  0  0  0  0  0  0  0
    0.0251    1.4739    0.7083 C   0  0  0  0  0  0  0  0  0  0  0  0
    0.4897    1.6074    2.0223 C   0  0  0  0  0  0  0  0  0  0  0  0
    0.7970    2.8689    2.5360 C   0  0  0  0  0  0  0  0  0  0  0  0
    0.6443    4.0041    1.7365 C   0  0  0  0  0  0  0  0  0  0  0  0
    0.9204    5.2303    2.2698 O   0  0  0  0  0  0  0  0  0  0  0  0
    0.1864    3.8875    0.4184 C   0  0  0  0  0  0  0  0  0  0  0  0
    0.0467    5.0811   -0.4540 C   0  0  0  0  0  0  0  0  0  0  0  0
    0.6569    6.1303   -0.3976 O   0  0  0  0  0  0  0  0  0  0  0  0
   -0.8973    4.8909   -1.3991 O   0  0  0  0  0  0  0  0  0  0  0  0
   -0.1212    2.6153   -0.0911 C   0  0  0  0  0  0  0  0  0  0  0  0
   -2.6293    0.3368    0.9538 C   0  0  0  0  0  0  0  0  0  0  0  0
   -3.8710   -0.1553    1.0372 C   0  0  0  0  0  0  0  0  0  0  0  0
   -4.2215   -1.4710    0.4511 C   0  0  0  0  0  0  0  0  0  0  0  0
   -5.3880   -1.8433    0.4888 O   0  0  0  0  0  0  0  0  0  0  0  0
   -0.4736   -0.8135   -0.0820 H   0  0  0  0  0  0  0  0  0  0  0  0
   -0.4674    0.8139   -0.1088 H   0  0  0  0  0  0  0  0  0  0  0  0
    0.9390   -0.0053   -0.1047 H   0  0  0  0  0  0  0  0  0  0  0  0
    0.9210   -0.1808   -0.1087 H   0  0  0  0  0  0  0  0  0  0  0  0
   -0.6135   -0.7179   -0.0315 H   0  0  0  0  0  0  0  0  0  0  0  0
   -0.3149    0.8773   -0.1545 H   0  0  0  0  0  0  0  0  0  0  0  0
    0.8859   -0.3199   -0.0748 H   0  0  0  0  0  0  0  0  0  0  0  0
   -0.7158   -0.6068   -0.1098 H   0  0  0  0  0  0  0  0  0  0  0  0
   -0.1631    0.9240   -0.1109 H   0  0  0  0  0  0  0  0  0  0  0  0
   -2.7952   -4.9058   -1.8687 H   0  0  0  0  0  0  0  0  0  0  0  0
   -1.0896   -2.3240   -0.6815 H   0  0  0  0  0  0  0  0  0  0  0  0
    0.2460    0.0819   -2.5140 H   0  0  0  0  0  0  0  0  0  0  0  0
    2.0524   -1.1610   -3.6542 H   0  0  0  0  0  0  0  0  0  0  0  0
    4.3470   -3.1747   -1.9349 H   0  0  0  0  0  0  0  0  0  0  0  0
    5.0617   -4.0512    0.4074 H   0  0  0  0  0  0  0  0  0  0  0  0
    1.5719   -1.4828    1.2804 H   0  0  0  0  0  0  0  0  0  0  0  0
    0.6114    0.7305    2.6549 H   0  0  0  0  0  0  0  0  0  0  0  0
    1.1467    2.9480    3.5616 H   0  0  0  0  0  0  0  0  0  0  0  0
    1.3291    5.1306    3.1447 H   0  0  0  0  0  0  0  0  0  0  0  0
   -0.9034    5.7461   -1.8793 H   0  0  0  0  0  0  0  0  0  0  0  0
   -0.4706    2.5118   -1.1164 H   0  0  0  0  0  0  0  0  0  0  0  0
   -2.4372    1.3096    1.3959 H   0  0  0  0  0  0  0  0  0  0  0  0
   -4.6762    0.3838    1.5221 H   0  0  0  0  0  0  0  0  0  0  0  0
  4  5  2  0
  5  6  1  0
  5  7  1  0
  7  8  2  0
  8  9  1  0
  9 10  2  3
 10 11  1  0
 11 12  2  0
 12 13  1  0
 13 14  2  0
 14 15  1  0
 14 16  1  0
 16 17  1  0
 17 18  2  0
 17 19  1  0
 16 20  2  0
 10 21  1  0
 21 22  2  0
 22 23  1  0
 23 24  2  0
 24 25  1  0
 24 26  1  0
 26 27  1  0
 27 28  2  0
 27 29  1  0
 26 30  2  0
  9 31  1  0
 31 32  2  0
 32 33  1  0
 33 34  2  0
 33  7  1  0
 20 11  1  0
 30 21  1  0
  1 35  1  0
  1 36  1  0
  1 37  1  0
  2 38  1  0
  2 39  1  0
  2 40  1  0
  3 41  1  0
  3 42  1  0
  3 43  1  0
  6 44  1  0
  8 45  1  0
 12 46  1  0
 13 47  1  0
 15 48  1  0
 19 49  1  0
 20 50  1  0
 22 51  1  0
 23 52  1  0
 25 53  1  0
 29 54  1  0
 30 55  1  0
 31 56  1  0
 32 57  1  0
M  END
$$$$
