
     RDKit          3D

 60 59  0  0  0  0  0  0  0  0999 V2000
   -6.8328    1.4360   -0.1278 C   0  0  0  0  0  0  0  0  0  0  0  0
   -5.6203    0.7648   -0.7576 C   0  0  1  0  0  0  0  0  0  0  0  0
   -5.3739    1.3490   -2.0371 O   0  0  0  0  0  0  0  0  0  0  0  0
   -4.3805    0.9783    0.0932 C   0  0  1  0  0  0  0  0  0  0  0  0
   -4.2893    0.1023    1.3507 C   0  0  0  0  0  0  0  0  0  0  0  0
   -4.8555    0.0701    2.4189 O   0  0  0  0  0  0  0  0  0  0  0  0
   -3.2170   -0.5926    0.8593 N   0  0  0  0  0  0  0  0  0  0  0  0
   -2.0151   -0.5495    1.5383 C   0  0  0  0  0  0  0  0  0  0  0  0
   -1.9017   -1.2748    2.8225 C   0  0  0  0  0  0  0  0  0  0  0  0
   -2.3272   -2.3964    3.0402 O   0  0  0  0  0  0  0  0  0  0  0  0
   -1.3186   -0.5449    3.7874 O   0  0  0  0  0  0  0  0  0  0  0  0
   -1.0793    0.1619    0.8882 C   0  0  0  0  0  0  0  0  0  0  0  0
    0.5563    0.3969    1.3774 S   0  0  0  0  0  0  0  0  0  0  0  0
    1.4773   -0.2559   -0.0475 C   0  0  2  0  0  0  0  0  0  0  0  0
    1.2790   -1.7500   -0.3317 C   0  0  0  0  0  0  0  0  0  0  0  0
    2.6205   -2.3076   -0.4601 N   0  0  0  0  0  0  0  0  0  0  0  0
    3.5476   -1.1967   -0.7519 C   0  0  2  0  0  0  0  0  0  0  0  0
    5.0104   -1.5922   -0.4383 C   0  0  0  0  0  0  0  0  0  0  0  0
    5.3048   -2.7417   -0.0964 O   0  0  0  0  0  0  0  0  0  0  0  0
    5.9939   -0.6148   -0.5825 N   0  0  0  0  0  0  0  0  0  0  0  0
    5.8164    0.6715   -1.2357 C   0  0  0  0  0  0  0  0  0  0  0  0
    7.3446   -0.9138   -0.1320 C   0  0  0  0  0  0  0  0  0  0  0  0
    2.9848   -0.1118    0.1565 C   0  0  0  0  0  0  0  0  0  0  0  0
   -1.6534    0.7702   -0.3717 C   0  0  2  0  0  0  0  0  0  0  0  0
   -1.6171    2.2918   -0.4144 C   0  0  0  0  0  0  0  0  0  0  0  0
   -3.0955    0.2257   -0.3790 C   0  0  2  0  0  0  0  0  0  0  0  0
   -0.0445    0.3953    0.0000 O   0  0  0  0  0  0  0  0  0  0  0  0
   -0.0479    0.3949    0.0000 O   0  0  0  0  0  0  0  0  0  0  0  0
   -0.0297    0.3967    0.0000 O   0  0  0  0  0  0  0  0  0  0  0  0
   -6.6732    2.5150   -0.0218 H   0  0  0  0  0  0  0  0  0  0  0  0
   -7.7159    1.3082   -0.7631 H   0  0  0  0  0  0  0  0  0  0  0  0
   -7.0538    1.0228    0.8606 H   0  0  0  0  0  0  0  0  0  0  0  0
   -5.8197   -0.3019   -0.9102 H   0  0  0  0  0  0  0  0  0  0  0  0
   -6.2028    1.2988   -2.5473 H   0  0  0  0  0  0  0  0  0  0  0  0
   -4.2185    2.0379    0.3249 H   0  0  0  0  0  0  0  0  0  0  0  0
   -1.3481   -1.1290    4.5721 H   0  0  0  0  0  0  0  0  0  0  0  0
    1.2008    0.3211   -0.9387 H   0  0  0  0  0  0  0  0  0  0  0  0
    0.7220   -1.8803   -1.2664 H   0  0  0  0  0  0  0  0  0  0  0  0
    0.7396   -2.2797    0.4596 H   0  0  0  0  0  0  0  0  0  0  0  0
    2.7005   -3.0635   -1.1362 H   0  0  0  0  0  0  0  0  0  0  0  0
    3.4622   -0.9355   -1.8129 H   0  0  0  0  0  0  0  0  0  0  0  0
    5.8334    1.4542   -0.4724 H   0  0  0  0  0  0  0  0  0  0  0  0
    4.8845    0.7284   -1.7990 H   0  0  0  0  0  0  0  0  0  0  0  0
    6.6421    0.8328   -1.9360 H   0  0  0  0  0  0  0  0  0  0  0  0
    7.9923   -1.0190   -1.0082 H   0  0  0  0  0  0  0  0  0  0  0  0
    7.7010   -0.0849    0.4880 H   0  0  0  0  0  0  0  0  0  0  0  0
    7.3921   -1.8322    0.4584 H   0  0  0  0  0  0  0  0  0  0  0  0
    3.2857   -0.2925    1.1977 H   0  0  0  0  0  0  0  0  0  0  0  0
    3.3212    0.8931   -0.1154 H   0  0  0  0  0  0  0  0  0  0  0  0
   -1.1272    0.3729   -1.2483 H   0  0  0  0  0  0  0  0  0  0  0  0
   -2.2029    2.6700   -1.2592 H   0  0  0  0  0  0  0  0  0  0  0  0
   -2.0203    2.7371    0.5016 H   0  0  0  0  0  0  0  0  0  0  0  0
   -0.5903    2.6550   -0.5320 H   0  0  0  0  0  0  0  0  0  0  0  0
   -3.2631   -0.4046   -1.2647 H   0  0  0  0  0  0  0  0  0  0  0  0
   -0.7365   -0.2830    0.0000 H   0  0  0  0  0  0  0  0  0  0  0  0
    0.7809   -0.1123    0.0000 H   0  0  0  0  0  0  0  0  0  0  0  0
    0.7819   -0.1055    0.0000 H   0  0  0  0  0  0  0  0  0  0  0  0
   -0.7339   -0.2894    0.0000 H   0  0  0  0  0  0  0  0  0  0  0  0
   -0.7465   -0.2553    0.0000 H   0  0  0  0  0  0  0  0  0  0  0  0
    0.7761   -0.1414    0.0000 H   0  0  0  0  0  0  0  0  0  0  0  0
  1  2  1  0
  2  3  1  0
  2  4  1  0
  4  5  1  0
  5  6  2  0
  5  7  1  0
  7  8  1  0
  8  9  1  0
  9 10  2  0
  9 11  1  0
  8 12  2  0
 12 13  1  0
 13 14  1  0
 14 15  1  0
 15 16  1  0
 16 17  1  0
 17 18  1  0
 18 19  2  0
 18 20  1  0
 20 21  1  0
 20 22  1  0
 17 23  1  0
 12 24  1  0
 24 25  1  0
 24 26  1  0
 26  4  1  0
 26  7  1  0
 23 14  1  0
  1 30  1  0
  1 31  1  0
  1 32  1  0
  2 33  1  6
  3 34  1  0
  4 35  1  1
 11 36  1  0
 14 37  1  6
 15 38  1  0
 15 39  1  0
 16 40  1  0
 17 41  1  6
 21 42  1  0
 21 43  1  0
 21 44  1  0
 22 45  1  0
 22 46  1  0
 22 47  1  0
 23 48  1  0
 23 49  1  0
 24 50  1  6
 25 51  1  0
 25 52  1  0
 25 53  1  0
 26 54  1  6
 27 55  1  0
 27 56  1  0
 28 57  1  0
 28 58  1  0
 29 59  1  0
 29 60  1  0
M  END
$$$$
