
     RDKit          3D

 49 51  0  0  0  0  0  0  0  0999 V2000
    3.6948   -1.4257   -1.2625 C   0  0  0  0  0  0  0  0  0  0  0  0
    3.9789    0.0582   -1.2483 C   0  0  0  0  0  0  0  0  0  0  0  0
    3.2155    0.9846   -1.7515 N   0  0  0  0  0  0  0  0  0  0  0  0
    1.9575    0.6009   -2.1287 N   0  0  0  0  0  0  0  0  0  0  0  0
    1.0227    0.4215   -1.1081 C   0  0  0  0  0  0  0  0  0  0  0  0
    1.3078    0.3820    0.0870 O   0  0  0  0  0  0  0  0  0  0  0  0
   -0.3951    0.3082   -1.5417 C   0  0  0  0  0  0  0  0  0  0  0  0
   -0.7373   -0.2383   -2.7900 C   0  0  0  0  0  0  0  0  0  0  0  0
   -2.0797   -0.3507   -3.1610 C   0  0  0  0  0  0  0  0  0  0  0  0
   -3.0834    0.0736   -2.2884 C   0  0  0  0  0  0  0  0  0  0  0  0
   -2.7381    0.5989   -1.0377 C   0  0  0  0  0  0  0  0  0  0  0  0
   -4.0329    1.1412    0.0539 S   0  0  0  0  0  6  0  0  0  0  0  0
   -3.4349    1.7856    1.2036 O   0  0  0  0  0  0  0  0  0  0  0  0
   -5.0185    1.8198   -0.7611 O   0  0  0  0  0  0  0  0  0  0  0  0
   -4.7079   -0.3315    0.5857 N   0  0  0  0  0  0  0  0  0  0  0  0
   -3.8254   -1.1905    1.4419 C   0  0  0  0  0  0  0  0  0  0  0  0
   -4.2767   -1.1656    2.9065 C   0  0  0  0  0  0  0  0  0  0  0  0
   -5.6090   -1.6655    3.0929 O   0  0  0  0  0  0  0  0  0  0  0  0
   -6.4714   -1.4102    1.9750 C   0  0  0  0  0  0  0  0  0  0  0  0
   -6.0777   -0.1637    1.1776 C   0  0  0  0  0  0  0  0  0  0  0  0
   -1.3993    0.7267   -0.6595 C   0  0  0  0  0  0  0  0  0  0  0  0
    5.1925    0.4897   -0.5402 C   0  0  0  0  0  0  0  0  0  0  0  0
    6.4451    0.2561   -1.1125 C   0  0  0  0  0  0  0  0  0  0  0  0
    7.5848    0.6582   -0.4195 C   0  0  0  0  0  0  0  0  0  0  0  0
    9.1411    0.3693   -1.1007 Cl  0  0  0  0  0  0  0  0  0  0  0  0
    7.4783    1.2762    0.8311 C   0  0  0  0  0  0  0  0  0  0  0  0
    6.2182    1.5023    1.3952 C   0  0  0  0  0  0  0  0  0  0  0  0
    5.0717    1.1147    0.7079 C   0  0  0  0  0  0  0  0  0  0  0  0
    3.8757    1.3567    1.3242 O   0  0  0  0  0  0  0  0  0  0  0  0
    2.9455   -1.6680   -0.5041 H   0  0  0  0  0  0  0  0  0  0  0  0
    4.5985   -2.0044   -1.0465 H   0  0  0  0  0  0  0  0  0  0  0  0
    3.3243   -1.7271   -2.2481 H   0  0  0  0  0  0  0  0  0  0  0  0
    1.6074    1.1305   -2.9233 H   0  0  0  0  0  0  0  0  0  0  0  0
    0.0280   -0.6044   -3.4736 H   0  0  0  0  0  0  0  0  0  0  0  0
   -2.3439   -0.7757   -4.1277 H   0  0  0  0  0  0  0  0  0  0  0  0
   -4.1293   -0.0112   -2.5789 H   0  0  0  0  0  0  0  0  0  0  0  0
   -3.8918   -2.2120    1.0434 H   0  0  0  0  0  0  0  0  0  0  0  0
   -2.7772   -0.8867    1.3724 H   0  0  0  0  0  0  0  0  0  0  0  0
   -3.6110   -1.7877    3.5131 H   0  0  0  0  0  0  0  0  0  0  0  0
   -4.2367   -0.1470    3.3131 H   0  0  0  0  0  0  0  0  0  0  0  0
   -6.4566   -2.2989    1.3321 H   0  0  0  0  0  0  0  0  0  0  0  0
   -7.4896   -1.3050    2.3659 H   0  0  0  0  0  0  0  0  0  0  0  0
   -6.0920    0.7116    1.8359 H   0  0  0  0  0  0  0  0  0  0  0  0
   -6.7940   -0.0125    0.3643 H   0  0  0  0  0  0  0  0  0  0  0  0
   -1.1339    1.1466    0.3109 H   0  0  0  0  0  0  0  0  0  0  0  0
    6.5313   -0.2236   -2.0856 H   0  0  0  0  0  0  0  0  0  0  0  0
    8.3710    1.5801    1.3714 H   0  0  0  0  0  0  0  0  0  0  0  0
    6.1310    1.9754    2.3713 H   0  0  0  0  0  0  0  0  0  0  0  0
    3.1213    1.1372    0.7287 H   0  0  0  0  0  0  0  0  0  0  0  0
  1  2  1  0
  2  3  2  0
  3  4  1  0
  4  5  1  0
  5  6  2  0
  5  7  1  0
  7  8  2  0
  8  9  1  0
  9 10  2  0
 10 11  1  0
 11 12  1  0
 12 13  2  0
 12 14  2  0
 12 15  1  0
 15 16  1  0
 16 17  1  0
 17 18  1  0
 18 19  1  0
 19 20  1  0
 11 21  2  0
  2 22  1  0
 22 23  2  0
 23 24  1  0
 24 25  1  0
 24 26  2  0
 26 27  1  0
 27 28  2  0
 28 29  1  0
 21  7  1  0
 28 22  1  0
 20 15  1  0
  1 30  1  0
  1 31  1  0
  1 32  1  0
  4 33  1  0
  8 34  1  0
  9 35  1  0
 10 36  1  0
 16 37  1  0
 16 38  1  0
 17 39  1  0
 17 40  1  0
 19 41  1  0
 19 42  1  0
 20 43  1  0
 20 44  1  0
 21 45  1  0
 23 46  1  0
 26 47  1  0
 27 48  1  0
 29 49  1  0
M  END
$$$$
