
     RDKit          3D

 43 42  0  0  0  0  0  0  0  0999 V2000
   -4.4393    0.2823    0.8226 C   0  0  0  0  0  0  0  0  0  0  0  0
   -3.9684   -0.3616   -0.4597 C   0  0  1  0  0  0  0  0  0  0  0  0
   -4.4638    0.3125   -1.6253 N   0  0  0  0  0  0  0  0  0  0  0  0
   -2.4588   -0.4141   -0.5337 C   0  0  1  0  0  0  0  0  0  0  0  0
   -1.8684    0.9717   -0.4747 C   0  0  0  0  0  0  0  0  0  0  0  0
   -0.3495    0.7839   -0.5221 C   0  0  0  0  0  0  0  0  0  0  0  0
    0.0640    0.2087    0.7902 C   0  0  2  0  0  0  0  0  0  0  0  0
    1.4504   -0.3539    0.6151 C   0  0  0  0  0  0  0  0  0  0  0  0
    1.7077   -1.5454    0.7972 O   0  0  0  0  0  0  0  0  0  0  0  0
    2.4869    0.5277    0.2272 N   0  0  0  0  0  0  0  0  0  0  0  0
    3.8422    0.1921    0.0139 C   0  0  0  0  0  0  0  0  0  0  0  0
    4.3964   -1.0306    0.1418 C   0  0  0  0  0  0  0  0  0  0  0  0
    5.7497   -1.2327   -0.0976 C   0  0  0  0  0  0  0  0  0  0  0  0
    6.5770   -0.2386   -0.4655 N   0  0  0  0  0  0  0  0  0  0  0  0
    6.0578    0.9717   -0.5982 C   0  0  0  0  0  0  0  0  0  0  0  0
    4.7193    1.2119   -0.3694 C   0  0  0  0  0  0  0  0  0  0  0  0
   -0.8750   -0.7680    1.3853 C   0  0  0  0  0  0  0  0  0  0  0  0
   -1.8589   -1.3687    0.4410 C   0  0  0  0  0  0  0  0  0  0  0  0
    0.6901    0.0000    0.0000 Cl  0  0  0  0  0  0  0  0  0  0  0  0
    0.6864    0.0000    0.0000 Cl  0  0  0  0  0  0  0  0  0  0  0  0
   -4.0917   -0.3786    1.6624 H   0  0  0  0  0  0  0  0  0  0  0  0
   -4.0475    1.2919    0.9659 H   0  0  0  0  0  0  0  0  0  0  0  0
   -5.5346    0.2564    0.8203 H   0  0  0  0  0  0  0  0  0  0  0  0
   -4.3417   -1.3950   -0.4771 H   0  0  0  0  0  0  0  0  0  0  0  0
   -5.5107    0.1619   -1.7287 H   0  0  0  0  0  0  0  0  0  0  0  0
   -4.2886    1.3467   -1.6192 H   0  0  0  0  0  0  0  0  0  0  0  0
   -2.2214   -0.8053   -1.5665 H   0  0  0  0  0  0  0  0  0  0  0  0
   -2.1984    1.5161   -1.3864 H   0  0  0  0  0  0  0  0  0  0  0  0
   -2.0847    1.5105    0.4485 H   0  0  0  0  0  0  0  0  0  0  0  0
    0.1214    1.7444   -0.7377 H   0  0  0  0  0  0  0  0  0  0  0  0
   -0.1814    0.0551   -1.3655 H   0  0  0  0  0  0  0  0  0  0  0  0
    0.1896    1.0672    1.5056 H   0  0  0  0  0  0  0  0  0  0  0  0
    2.1849    1.5494    0.0878 H   0  0  0  0  0  0  0  0  0  0  0  0
    3.8400   -1.9016    0.4294 H   0  0  0  0  0  0  0  0  0  0  0  0
    6.1820   -2.2193    0.0087 H   0  0  0  0  0  0  0  0  0  0  0  0
    6.7437    1.7731   -0.8986 H   0  0  0  0  0  0  0  0  0  0  0  0
    4.3302    2.2116   -0.4872 H   0  0  0  0  0  0  0  0  0  0  0  0
   -1.4633   -0.2892    2.2223 H   0  0  0  0  0  0  0  0  0  0  0  0
   -0.3130   -1.6030    1.8656 H   0  0  0  0  0  0  0  0  0  0  0  0
   -1.3825   -2.2508   -0.0407 H   0  0  0  0  0  0  0  0  0  0  0  0
   -2.7017   -1.7903    1.0626 H   0  0  0  0  0  0  0  0  0  0  0  0
   -0.6901    0.0000    0.0000 H   0  0  0  0  0  0  0  0  0  0  0  0
   -0.6864    0.0000    0.0000 H   0  0  0  0  0  0  0  0  0  0  0  0
  1  2  1  0
  2  3  1  0
  2  4  1  0
  4  5  1  0
  5  6  1  0
  6  7  1  0
  7  8  1  0
  8  9  2  0
  8 10  1  0
 10 11  1  0
 11 12  2  0
 12 13  1  0
 13 14  2  0
 14 15  1  0
 15 16  2  0
  7 17  1  0
 17 18  1  0
 18  4  1  0
 16 11  1  0
  1 21  1  0
  1 22  1  0
  1 23  1  0
  2 24  1  1
  3 25  1  0
  3 26  1  0
  4 27  1  6
  5 28  1  0
  5 29  1  0
  6 30  1  0
  6 31  1  0
  7 32  1  1
 10 33  1  0
 12 34  1  0
 13 35  1  0
 15 36  1  0
 16 37  1  0
 17 38  1  0
 17 39  1  0
 18 40  1  0
 18 41  1  0
 19 42  1  0
 20 43  1  0
M  END
$$$$
