
     RDKit          3D

 50 53  0  0  0  0  0  0  0  0999 V2000
   -5.1072    0.0398    1.5711 C   0  0  0  0  0  0  0  0  0  0  0  0
   -6.1291   -0.6989    0.7873 C   0  0  0  0  0  0  0  0  0  0  0  0
   -7.4278   -0.6584    1.0053 N   0  0  0  0  0  0  0  0  0  0  0  0
   -7.9943   -1.4718    0.0613 C   0  0  0  0  0  0  0  0  0  0  0  0
   -7.0296   -2.0324   -0.7385 C   0  0  0  0  0  0  0  0  0  0  0  0
   -5.8437   -1.5361   -0.2684 N   0  0  0  0  0  0  0  0  0  0  0  0
   -4.5293   -1.9096   -0.7536 C   0  0  0  0  0  0  0  0  0  0  0  0
   -3.9133   -0.8303   -1.6180 C   0  0  0  0  0  0  0  0  0  0  0  0
   -4.3899   -0.4800   -2.6942 O   0  0  0  0  0  0  0  0  0  0  0  0
   -2.7626   -0.2618   -1.1071 N   0  0  0  0  0  0  0  0  0  0  0  0
   -2.0240    0.7557   -1.8693 C   0  0  1  0  0  0  0  0  0  0  0  0
   -0.9830    1.4769   -0.9499 C   0  0  0  0  0  0  0  0  0  0  0  0
    0.2365    0.6879   -1.2141 C   0  0  0  0  0  0  0  0  0  0  0  0
    1.4795    0.3926   -0.7083 C   0  0  0  0  0  0  0  0  0  0  0  0
    2.0536    0.9123    0.5191 C   0  0  0  0  0  0  0  0  0  0  0  0
    1.3930    1.5646    1.3217 O   0  0  0  0  0  0  0  0  0  0  0  0
    3.3826    0.6246    0.7113 N   0  0  0  0  0  0  0  0  0  0  0  0
    4.0866    1.1204    1.8690 C   0  0  0  0  0  0  0  0  0  0  0  0
    5.5282    0.6937    1.8354 C   0  0  0  0  0  0  0  0  0  0  0  0
    6.4931    1.5005    1.2169 C   0  0  0  0  0  0  0  0  0  0  0  0
    7.8245    1.0875    1.1516 C   0  0  0  0  0  0  0  0  0  0  0  0
    8.2043   -0.1351    1.7024 C   0  0  0  0  0  0  0  0  0  0  0  0
    7.2523   -0.9497    2.3131 C   0  0  0  0  0  0  0  0  0  0  0  0
    5.9187   -0.5402    2.3745 C   0  0  0  0  0  0  0  0  0  0  0  0
    1.9857   -0.5360   -1.6725 C   0  0  0  0  0  0  0  0  0  0  0  0
    1.1258   -0.7953   -2.6739 N   0  0  0  0  0  0  0  0  0  0  0  0
    0.1014   -0.0137   -2.3627 N   0  0  0  0  0  0  0  0  0  0  0  0
   -1.1905    0.1186   -3.0145 C   0  0  0  0  0  0  0  0  0  0  0  0
   -4.5823    0.7640    0.9416 H   0  0  0  0  0  0  0  0  0  0  0  0
   -5.5805    0.5903    2.3912 H   0  0  0  0  0  0  0  0  0  0  0  0
   -4.3781   -0.6468    2.0102 H   0  0  0  0  0  0  0  0  0  0  0  0
   -9.0651   -1.6131    0.0126 H   0  0  0  0  0  0  0  0  0  0  0  0
   -7.0904   -2.7138   -1.5753 H   0  0  0  0  0  0  0  0  0  0  0  0
   -3.9037   -2.1409    0.1139 H   0  0  0  0  0  0  0  0  0  0  0  0
   -4.6198   -2.8246   -1.3487 H   0  0  0  0  0  0  0  0  0  0  0  0
   -2.2661   -0.7373   -0.3602 H   0  0  0  0  0  0  0  0  0  0  0  0
   -2.7622    1.4625   -2.2657 H   0  0  0  0  0  0  0  0  0  0  0  0
   -0.8352    2.5103   -1.2831 H   0  0  0  0  0  0  0  0  0  0  0  0
   -1.2770    1.4709    0.1028 H   0  0  0  0  0  0  0  0  0  0  0  0
    3.9219    0.1715   -0.0139 H   0  0  0  0  0  0  0  0  0  0  0  0
    3.5897    0.7458    2.7722 H   0  0  0  0  0  0  0  0  0  0  0  0
    4.0016    2.2130    1.8946 H   0  0  0  0  0  0  0  0  0  0  0  0
    6.2139    2.4576    0.7824 H   0  0  0  0  0  0  0  0  0  0  0  0
    8.5657    1.7201    0.6697 H   0  0  0  0  0  0  0  0  0  0  0  0
    9.2427   -0.4540    1.6517 H   0  0  0  0  0  0  0  0  0  0  0  0
    7.5476   -1.9065    2.7357 H   0  0  0  0  0  0  0  0  0  0  0  0
    5.1846   -1.1902    2.8461 H   0  0  0  0  0  0  0  0  0  0  0  0
    2.9384   -1.0491   -1.6763 H   0  0  0  0  0  0  0  0  0  0  0  0
   -1.0527    0.8009   -3.8579 H   0  0  0  0  0  0  0  0  0  0  0  0
   -1.5344   -0.8661   -3.3382 H   0  0  0  0  0  0  0  0  0  0  0  0
  1  2  1  0
  2  3  2  0
  3  4  1  0
  4  5  2  0
  5  6  1  0
  6  7  1  0
  7  8  1  0
  8  9  2  0
  8 10  1  0
 10 11  1  0
 11 12  1  0
 12 13  1  0
 13 14  2  0
 14 15  1  0
 15 16  2  0
 15 17  1  0
 17 18  1  0
 18 19  1  0
 19 20  2  0
 20 21  1  0
 21 22  2  0
 22 23  1  0
 23 24  2  0
 14 25  1  0
 25 26  2  0
 26 27  1  0
 27 28  1  0
  6  2  1  0
 28 11  1  0
 27 13  1  0
 24 19  1  0
  1 29  1  0
  1 30  1  0
  1 31  1  0
  4 32  1  0
  5 33  1  0
  7 34  1  0
  7 35  1  0
 10 36  1  0
 11 37  1  6
 12 38  1  0
 12 39  1  0
 17 40  1  0
 18 41  1  0
 18 42  1  0
 20 43  1  0
 21 44  1  0
 22 45  1  0
 23 46  1  0
 24 47  1  0
 25 48  1  0
 28 49  1  0
 28 50  1  0
M  END
$$$$
