
     RDKit          3D

 42 44  0  0  0  0  0  0  0  0999 V2000
    5.6837   -0.3864   -0.2756 C   0  0  0  0  0  0  0  0  0  0  0  0
    4.1930   -0.2711   -0.1616 C   0  0  0  0  0  0  0  0  0  0  0  0
    3.4750   -1.1406    0.6609 C   0  0  0  0  0  0  0  0  0  0  0  0
    2.0759   -1.0409    0.8022 C   0  0  0  0  0  0  0  0  0  0  0  0
    1.4097   -2.1248    1.6074 C   0  0  0  0  0  0  0  0  0  0  0  0
    1.3925    0.0122    0.1594 C   0  0  0  0  0  0  0  0  0  0  0  0
   -0.0052    0.2233    0.2714 N   0  0  0  0  0  0  0  0  0  0  0  0
   -0.7647    0.1148    1.4179 C   0  0  0  0  0  0  0  0  0  0  0  0
   -0.3275   -0.1285    2.5407 O   0  0  0  0  0  0  0  0  0  0  0  0
   -2.2674    0.3297    1.2345 C   0  0  0  0  0  0  0  0  0  0  0  0
   -2.7180    1.5619    0.4248 C   0  0  0  0  0  0  0  0  0  0  0  0
   -3.7529    0.9667   -0.5501 C   0  0  0  0  0  0  0  0  0  0  0  0
   -3.0176    0.1520   -1.6274 C   0  0  0  0  0  0  0  0  0  0  0  0
   -2.5918   -1.1134   -0.8699 C   0  0  0  0  0  0  0  0  0  0  0  0
   -3.0491   -0.8286    0.5703 C   0  0  0  0  0  0  0  0  0  0  0  0
   -4.3909   -0.1363    0.2973 C   0  0  0  0  0  0  0  0  0  0  0  0
    2.1115    0.8807   -0.6996 C   0  0  0  0  0  0  0  0  0  0  0  0
    1.4458    2.0035   -1.4538 C   0  0  0  0  0  0  0  0  0  0  0  0
    3.5028    0.7326   -0.8399 C   0  0  0  0  0  0  0  0  0  0  0  0
    6.0050   -1.4275   -0.1660 H   0  0  0  0  0  0  0  0  0  0  0  0
    6.1658    0.2164    0.5002 H   0  0  0  0  0  0  0  0  0  0  0  0
    6.0290   -0.0426   -1.2564 H   0  0  0  0  0  0  0  0  0  0  0  0
    4.0072   -1.9318    1.1878 H   0  0  0  0  0  0  0  0  0  0  0  0
    1.9445   -3.0745    1.4861 H   0  0  0  0  0  0  0  0  0  0  0  0
    1.4149   -1.8726    2.6714 H   0  0  0  0  0  0  0  0  0  0  0  0
    0.3886   -2.3179    1.2661 H   0  0  0  0  0  0  0  0  0  0  0  0
   -0.4162    0.7768   -0.4635 H   0  0  0  0  0  0  0  0  0  0  0  0
   -2.6636    0.4593    2.2536 H   0  0  0  0  0  0  0  0  0  0  0  0
   -3.2096    2.2782    1.0948 H   0  0  0  0  0  0  0  0  0  0  0  0
   -1.9165    2.0994   -0.0881 H   0  0  0  0  0  0  0  0  0  0  0  0
   -4.4435    1.7079   -0.9570 H   0  0  0  0  0  0  0  0  0  0  0  0
   -3.6938   -0.1118   -2.4483 H   0  0  0  0  0  0  0  0  0  0  0  0
   -2.1636    0.6901   -2.0503 H   0  0  0  0  0  0  0  0  0  0  0  0
   -1.5277   -1.3327   -0.9697 H   0  0  0  0  0  0  0  0  0  0  0  0
   -3.1326   -1.9796   -1.2711 H   0  0  0  0  0  0  0  0  0  0  0  0
   -3.1096   -1.7259    1.1903 H   0  0  0  0  0  0  0  0  0  0  0  0
   -4.8786    0.2406    1.2027 H   0  0  0  0  0  0  0  0  0  0  0  0
   -5.0956   -0.7596   -0.2636 H   0  0  0  0  0  0  0  0  0  0  0  0
    0.9248    2.6726   -0.7611 H   0  0  0  0  0  0  0  0  0  0  0  0
    2.1729    2.6098   -2.0047 H   0  0  0  0  0  0  0  0  0  0  0  0
    0.7356    1.6011   -2.1833 H   0  0  0  0  0  0  0  0  0  0  0  0
    4.0578    1.4175   -1.4787 H   0  0  0  0  0  0  0  0  0  0  0  0
  1  2  1  0
  2  3  2  0
  3  4  1  0
  4  5  1  0
  4  6  2  0
  6  7  1  0
  7  8  1  0
  8  9  2  0
  8 10  1  0
 10 11  1  0
 11 12  1  0
 12 13  1  0
 13 14  1  0
 14 15  1  0
 15 16  1  0
  6 17  1  0
 17 18  1  0
 17 19  2  0
 19  2  1  0
 15 10  1  0
 16 12  1  0
  1 20  1  0
  1 21  1  0
  1 22  1  0
  3 23  1  0
  5 24  1  0
  5 25  1  0
  5 26  1  0
  7 27  1  0
 10 28  1  0
 11 29  1  0
 11 30  1  0
 12 31  1  0
 13 32  1  0
 13 33  1  0
 14 34  1  0
 14 35  1  0
 15 36  1  0
 16 37  1  0
 16 38  1  0
 18 39  1  0
 18 40  1  0
 18 41  1  0
 19 42  1  0
M  END
$$$$
