
     RDKit          3D

 34 35  0  0  0  0  0  0  0  0999 V2000
   -1.8340   -3.3430   -0.5819 C   0  0  0  0  0  0  0  0  0  0  0  0
   -0.7595   -2.4430   -0.2936 O   0  0  0  0  0  0  0  0  0  0  0  0
   -1.2355   -1.2057    0.0515 C   0  0  0  0  0  0  0  0  0  0  0  0
   -1.8860   -1.0302    1.2743 C   0  0  0  0  0  0  0  0  0  0  0  0
   -2.3168    0.2410    1.6632 C   0  0  0  0  0  0  0  0  0  0  0  0
   -2.0988    1.3513    0.8378 C   0  0  0  0  0  0  0  0  0  0  0  0
   -2.5304    2.7208    1.2745 C   0  0  0  0  0  0  0  0  0  0  0  0
   -1.4153    1.1781   -0.3723 C   0  0  0  0  0  0  0  0  0  0  0  0
   -0.9835   -0.0973   -0.7588 C   0  0  0  0  0  0  0  0  0  0  0  0
   -0.1241   -0.2953   -2.2973 S   0  0  0  0  0  6  0  0  0  0  0  0
   -0.8076   -1.3265   -3.0506 O   0  0  0  0  0  0  0  0  0  0  0  0
    0.0839    1.0190   -2.8707 O   0  0  0  0  0  0  0  0  0  0  0  0
    1.3798   -0.9302   -1.8296 N   0  0  0  0  0  0  0  0  0  0  0  0
    2.1652   -0.1918   -0.8939 C   0  0  0  0  0  0  0  0  0  0  0  0
    2.4032   -0.7391    0.3712 C   0  0  0  0  0  0  0  0  0  0  0  0
    3.1533   -0.0312    1.3135 C   0  0  0  0  0  0  0  0  0  0  0  0
    3.6691    1.2214    0.9874 C   0  0  0  0  0  0  0  0  0  0  0  0
    3.4325    1.7524   -0.2763 C   0  0  0  0  0  0  0  0  0  0  0  0
    3.9353    2.9547   -0.5862 F   0  0  0  0  0  0  0  0  0  0  0  0
    2.6862    1.0577   -1.2213 C   0  0  0  0  0  0  0  0  0  0  0  0
   -2.5836   -2.8849   -1.2373 H   0  0  0  0  0  0  0  0  0  0  0  0
   -2.2998   -3.6975    0.3431 H   0  0  0  0  0  0  0  0  0  0  0  0
   -1.4126   -4.2085   -1.1016 H   0  0  0  0  0  0  0  0  0  0  0  0
   -2.0460   -1.8737    1.9403 H   0  0  0  0  0  0  0  0  0  0  0  0
   -2.8188    0.3614    2.6214 H   0  0  0  0  0  0  0  0  0  0  0  0
   -2.7868    3.3428    0.4105 H   0  0  0  0  0  0  0  0  0  0  0  0
   -3.4202    2.6657    1.9104 H   0  0  0  0  0  0  0  0  0  0  0  0
   -1.7248    3.2058    1.8342 H   0  0  0  0  0  0  0  0  0  0  0  0
   -1.2183    2.0390   -1.0095 H   0  0  0  0  0  0  0  0  0  0  0  0
    1.2746   -1.9292   -1.6448 H   0  0  0  0  0  0  0  0  0  0  0  0
    2.0009   -1.7130    0.6390 H   0  0  0  0  0  0  0  0  0  0  0  0
    3.3331   -0.4556    2.2980 H   0  0  0  0  0  0  0  0  0  0  0  0
    4.2551    1.7864    1.7056 H   0  0  0  0  0  0  0  0  0  0  0  0
    2.5302    1.4979   -2.2010 H   0  0  0  0  0  0  0  0  0  0  0  0
  1  2  1  0
  2  3  1  0
  3  4  2  0
  4  5  1  0
  5  6  2  0
  6  7  1  0
  6  8  1  0
  8  9  2  0
  9 10  1  0
 10 11  2  0
 10 12  2  0
 10 13  1  0
 13 14  1  0
 14 15  2  0
 15 16  1  0
 16 17  2  0
 17 18  1  0
 18 19  1  0
 18 20  2  0
  9  3  1  0
 20 14  1  0
  1 21  1  0
  1 22  1  0
  1 23  1  0
  4 24  1  0
  5 25  1  0
  7 26  1  0
  7 27  1  0
  7 28  1  0
  8 29  1  0
 13 30  1  0
 15 31  1  0
 16 32  1  0
 17 33  1  0
 20 34  1  0
M  END
$$$$
