
     RDKit          3D

 37 39  0  0  0  0  0  0  0  0999 V2000
   -1.3469   -3.0157    1.3861 C   0  0  0  0  0  0  0  0  0  0  0  0
   -1.0334   -2.2726    0.2088 O   0  0  0  0  0  0  0  0  0  0  0  0
   -1.7685   -1.1185    0.0958 C   0  0  0  0  0  0  0  0  0  0  0  0
   -3.1641   -1.1330    0.1634 C   0  0  0  0  0  0  0  0  0  0  0  0
   -3.8893    0.0425   -0.0463 C   0  0  0  0  0  0  0  0  0  0  0  0
   -3.2318    1.2402   -0.3483 C   0  0  0  0  0  0  0  0  0  0  0  0
   -4.0102    2.5101   -0.5282 C   0  0  0  0  0  0  0  0  0  0  0  0
   -1.8324    1.2503   -0.4205 C   0  0  0  0  0  0  0  0  0  0  0  0
   -1.0937    0.0739   -0.2148 C   0  0  0  0  0  0  0  0  0  0  0  0
    0.3320    0.1129   -0.2820 N   0  0  0  0  0  0  0  0  0  0  0  0
    0.9975    0.4765   -1.4421 C   0  0  0  0  0  0  0  0  0  0  0  0
    0.2108    0.7258   -2.7126 C   0  0  0  0  0  0  0  0  0  0  0  0
    2.2861    0.5987   -1.5268 N   0  0  0  0  0  0  0  0  0  0  0  0
    3.0625    0.3067   -0.4022 C   0  0  0  0  0  0  0  0  0  0  0  0
    4.4527    0.4068   -0.5010 C   0  0  0  0  0  0  0  0  0  0  0  0
    5.2691    0.1121    0.5945 C   0  0  0  0  0  0  0  0  0  0  0  0
    4.6985   -0.2867    1.8023 C   0  0  0  0  0  0  0  0  0  0  0  0
    3.3124   -0.3896    1.9126 C   0  0  0  0  0  0  0  0  0  0  0  0
    2.5035   -0.0938    0.8073 C   0  0  0  0  0  0  0  0  0  0  0  0
    1.0342   -0.1712    0.8960 C   0  0  0  0  0  0  0  0  0  0  0  0
    0.5316   -0.4171    1.9929 O   0  0  0  0  0  0  0  0  0  0  0  0
   -1.5059   -2.3682    2.2559 H   0  0  0  0  0  0  0  0  0  0  0  0
   -2.2219   -3.6502    1.2144 H   0  0  0  0  0  0  0  0  0  0  0  0
   -0.4966   -3.6691    1.6040 H   0  0  0  0  0  0  0  0  0  0  0  0
   -3.7021   -2.0558    0.3574 H   0  0  0  0  0  0  0  0  0  0  0  0
   -4.9750    0.0144    0.0220 H   0  0  0  0  0  0  0  0  0  0  0  0
   -5.0061    2.3042   -0.9343 H   0  0  0  0  0  0  0  0  0  0  0  0
   -3.5053    3.1804   -1.2318 H   0  0  0  0  0  0  0  0  0  0  0  0
   -4.1188    3.0216    0.4330 H   0  0  0  0  0  0  0  0  0  0  0  0
   -1.3150    2.1884   -0.6093 H   0  0  0  0  0  0  0  0  0  0  0  0
   -0.6227    0.0272   -2.8165 H   0  0  0  0  0  0  0  0  0  0  0  0
    0.8636    0.5966   -3.5822 H   0  0  0  0  0  0  0  0  0  0  0  0
   -0.1594    1.7544   -2.7185 H   0  0  0  0  0  0  0  0  0  0  0  0
    4.9002    0.7151   -1.4427 H   0  0  0  0  0  0  0  0  0  0  0  0
    6.3493    0.1940    0.5022 H   0  0  0  0  0  0  0  0  0  0  0  0
    5.3314   -0.5153    2.6563 H   0  0  0  0  0  0  0  0  0  0  0  0
    2.8638   -0.6959    2.8550 H   0  0  0  0  0  0  0  0  0  0  0  0
  1  2  1  0
  2  3  1  0
  3  4  2  0
  4  5  1  0
  5  6  2  0
  6  7  1  0
  6  8  1  0
  8  9  2  0
  9 10  1  0
 10 11  1  0
 11 12  1  0
 11 13  2  0
 13 14  1  0
 14 15  2  0
 15 16  1  0
 16 17  2  0
 17 18  1  0
 18 19  2  0
 19 20  1  0
 20 21  2  0
  9  3  1  0
 20 10  1  0
 19 14  1  0
  1 22  1  0
  1 23  1  0
  1 24  1  0
  4 25  1  0
  5 26  1  0
  7 27  1  0
  7 28  1  0
  7 29  1  0
  8 30  1  0
 12 31  1  0
 12 32  1  0
 12 33  1  0
 15 34  1  0
 16 35  1  0
 17 36  1  0
 18 37  1  0
M  END
$$$$
