
     RDKit          3D

 41 42  0  0  0  0  0  0  0  0999 V2000
   -3.8823   -2.0037   -1.6961 C   0  0  0  0  0  0  0  0  0  0  0  0
   -3.7782   -0.6636   -0.9666 C   0  0  0  0  0  0  0  0  0  0  0  0
   -4.6926   -0.6847    0.2659 C   0  0  0  0  0  0  0  0  0  0  0  0
   -2.3814   -0.4089   -0.4640 N   0  0  0  0  0  0  0  0  0  0  0  0
   -1.1145   -0.5799   -1.5772 S   0  0  0  0  0  6  0  0  0  0  0  0
   -0.6212   -1.9337   -1.4613 O   0  0  0  0  0  0  0  0  0  0  0  0
   -1.5323   -0.0276   -2.8450 O   0  0  0  0  0  0  0  0  0  0  0  0
    0.0955    0.5190   -0.8857 C   0  0  0  0  0  0  0  0  0  0  0  0
   -0.0299    1.8873   -1.0910 C   0  0  0  0  0  0  0  0  0  0  0  0
    0.9282    2.7444   -0.5502 C   0  0  0  0  0  0  0  0  0  0  0  0
    2.0295    2.2579    0.2009 C   0  0  0  0  0  0  0  0  0  0  0  0
    3.0152    3.0985    0.7530 C   0  0  0  0  0  0  0  0  0  0  0  0
    2.9931    4.8181    0.5847 Cl  0  0  0  0  0  0  0  0  0  0  0  0
    4.0509    2.5288    1.4707 C   0  0  0  0  0  0  0  0  0  0  0  0
    4.1803    1.2054    1.6866 N   0  0  0  0  0  0  0  0  0  0  0  0
    3.2650    0.3705    1.1520 C   0  0  0  0  0  0  0  0  0  0  0  0
    3.3687   -1.0254    1.3783 N   0  0  0  0  0  0  0  0  0  0  0  0
    4.5048   -1.6834    1.7334 C   0  0  0  0  0  0  0  0  0  0  0  0
    5.7200   -1.3040    1.5704 N   0  0  0  0  0  0  0  0  0  0  0  0
    4.2244   -2.9074    2.2534 N   0  0  0  0  0  0  0  0  0  0  0  0
    2.1544    0.8562    0.4031 C   0  0  0  0  0  0  0  0  0  0  0  0
    1.1741    0.0040   -0.1630 C   0  0  0  0  0  0  0  0  0  0  0  0
   -4.1913    0.5423   -1.8226 C   0  0  0  0  0  0  0  0  0  0  0  0
   -3.7918    1.6878   -1.6480 O   0  0  0  0  0  0  0  0  0  0  0  0
   -5.1091    0.2761   -2.7688 O   0  0  0  0  0  0  0  0  0  0  0  0
   -4.9279   -2.2636   -1.8988 H   0  0  0  0  0  0  0  0  0  0  0  0
   -3.4478   -2.8148   -1.1011 H   0  0  0  0  0  0  0  0  0  0  0  0
   -3.3732   -1.9878   -2.6653 H   0  0  0  0  0  0  0  0  0  0  0  0
   -4.6385    0.2600    0.8203 H   0  0  0  0  0  0  0  0  0  0  0  0
   -5.7403   -0.8346   -0.0188 H   0  0  0  0  0  0  0  0  0  0  0  0
   -4.4081   -1.4867    0.9567 H   0  0  0  0  0  0  0  0  0  0  0  0
   -2.3286    0.5001    0.0055 H   0  0  0  0  0  0  0  0  0  0  0  0
   -0.8560    2.2950   -1.6720 H   0  0  0  0  0  0  0  0  0  0  0  0
    0.8084    3.8121   -0.7312 H   0  0  0  0  0  0  0  0  0  0  0  0
    4.8355    3.1359    1.9137 H   0  0  0  0  0  0  0  0  0  0  0  0
    2.5527   -1.3426    1.8808 H   0  0  0  0  0  0  0  0  0  0  0  0
    6.3717   -1.9921    1.9401 H   0  0  0  0  0  0  0  0  0  0  0  0
    5.0368   -3.5037    2.3538 H   0  0  0  0  0  0  0  0  0  0  0  0
    3.5025   -3.4019    1.7412 H   0  0  0  0  0  0  0  0  0  0  0  0
    1.2594   -1.0759   -0.0525 H   0  0  0  0  0  0  0  0  0  0  0  0
   -5.2261    1.1267   -3.2429 H   0  0  0  0  0  0  0  0  0  0  0  0
  1  2  1  0
  2  3  1  0
  2  4  1  0
  4  5  1  0
  5  6  2  0
  5  7  2  0
  5  8  1  0
  8  9  2  0
  9 10  1  0
 10 11  2  0
 11 12  1  0
 12 13  1  0
 12 14  2  0
 14 15  1  0
 15 16  2  0
 16 17  1  0
 17 18  1  0
 18 19  2  3
 18 20  1  0
 16 21  1  0
 21 22  2  0
  2 23  1  0
 23 24  2  0
 23 25  1  0
 22  8  1  0
 21 11  1  0
  1 26  1  0
  1 27  1  0
  1 28  1  0
  3 29  1  0
  3 30  1  0
  3 31  1  0
  4 32  1  0
  9 33  1  0
 10 34  1  0
 14 35  1  0
 17 36  1  0
 19 37  1  0
 20 38  1  0
 20 39  1  0
 22 40  1  0
 25 41  1  0
M  END
$$$$
