
     RDKit          3D

 51 56  0  0  0  0  0  0  0  0999 V2000
   -7.2130   -1.3616    3.1156 C   0  0  0  0  0  0  0  0  0  0  0  0
   -6.6434   -0.3369    2.1793 C   0  0  0  0  0  0  0  0  0  0  0  0
   -7.3839    0.7986    1.8343 C   0  0  0  0  0  0  0  0  0  0  0  0
   -6.8650    1.7337    0.9395 C   0  0  0  0  0  0  0  0  0  0  0  0
   -5.6043    1.5359    0.3730 C   0  0  0  0  0  0  0  0  0  0  0  0
   -4.8490    0.3983    0.6910 C   0  0  0  0  0  0  0  0  0  0  0  0
   -3.5357    0.1962    0.0879 C   0  0  0  0  0  0  0  0  0  0  0  0
   -2.7481   -0.8568    0.3353 N   0  0  0  0  0  0  0  0  0  0  0  0
   -1.6254   -0.6239   -0.4449 O   0  0  0  0  0  0  0  0  0  0  0  0
   -1.8118    0.5662   -1.1190 C   0  0  0  0  0  0  0  0  0  0  0  0
   -0.8563    1.1185   -2.0166 C   0  0  0  0  0  0  0  0  0  0  0  0
   -1.0866    2.2873   -2.6512 C   0  0  0  0  0  0  0  0  0  0  0  0
   -0.1225    2.8680   -3.5691 C   0  0  0  0  0  0  0  0  0  0  0  0
    1.0359    2.2366   -3.8046 C   0  0  0  0  0  0  0  0  0  0  0  0
    1.2833    1.0513   -3.1717 N   0  0  0  0  0  0  0  0  0  0  0  0
    2.3969    0.2496   -3.2618 C   0  0  0  0  0  0  0  0  0  0  0  0
    3.4035    0.4298   -3.9303 O   0  0  0  0  0  0  0  0  0  0  0  0
    2.1272   -0.8277   -2.4111 N   0  0  0  0  0  0  0  0  0  0  0  0
    3.0308   -1.9157   -2.1186 C   0  0  0  0  0  0  0  0  0  0  0  0
    4.0487   -1.4810   -1.0826 C   0  0  0  0  0  0  0  0  0  0  0  0
    5.2680   -1.0704   -1.4542 C   0  0  0  0  0  0  0  0  0  0  0  0
    6.2356   -0.6624   -0.4228 C   0  0  0  0  0  0  0  0  0  0  0  0
    7.3551   -0.2927   -0.7750 O   0  0  0  0  0  0  0  0  0  0  0  0
    5.7860   -0.7403    0.8854 N   0  0  0  0  0  0  0  0  0  0  0  0
    6.6349   -0.3670    1.9214 C   0  0  0  0  0  0  0  0  0  0  0  0
    6.2538   -0.4311    3.2032 C   0  0  0  0  0  0  0  0  0  0  0  0
    4.9342   -0.8975    3.5363 C   0  0  0  0  0  0  0  0  0  0  0  0
    4.0831   -1.2690    2.5727 C   0  0  0  0  0  0  0  0  0  0  0  0
    4.5004   -1.1992    1.1436 C   0  0  0  0  0  0  0  0  0  0  0  0
    3.6553   -1.5667    0.2305 N   0  0  0  0  0  0  0  0  0  0  0  0
    0.8870   -0.6826   -1.8170 N   0  0  0  0  0  0  0  0  0  0  0  0
    0.4363    0.4373   -2.2958 C   0  0  0  0  0  0  0  0  0  0  0  0
   -2.9882    1.0910   -0.8040 N   0  0  0  0  0  0  0  0  0  0  0  0
   -5.3835   -0.5353    1.5940 C   0  0  0  0  0  0  0  0  0  0  0  0
   -7.7585   -2.1230    2.5497 H   0  0  0  0  0  0  0  0  0  0  0  0
   -7.8965   -0.8977    3.8344 H   0  0  0  0  0  0  0  0  0  0  0  0
   -6.4186   -1.8483    3.6912 H   0  0  0  0  0  0  0  0  0  0  0  0
   -8.3707    0.9620    2.2622 H   0  0  0  0  0  0  0  0  0  0  0  0
   -7.4438    2.6165    0.6801 H   0  0  0  0  0  0  0  0  0  0  0  0
   -5.2169    2.2764   -0.3237 H   0  0  0  0  0  0  0  0  0  0  0  0
   -2.0096    2.8421   -2.4958 H   0  0  0  0  0  0  0  0  0  0  0  0
   -0.3603    3.8120   -4.0495 H   0  0  0  0  0  0  0  0  0  0  0  0
    1.8012    2.6137   -4.4755 H   0  0  0  0  0  0  0  0  0  0  0  0
    2.4550   -2.7787   -1.7664 H   0  0  0  0  0  0  0  0  0  0  0  0
    3.5278   -2.2049   -3.0521 H   0  0  0  0  0  0  0  0  0  0  0  0
    5.5874   -0.9994   -2.4860 H   0  0  0  0  0  0  0  0  0  0  0  0
    7.6270   -0.0192    1.6443 H   0  0  0  0  0  0  0  0  0  0  0  0
    6.9239   -0.1374    4.0044 H   0  0  0  0  0  0  0  0  0  0  0  0
    4.6473   -0.9405    4.5819 H   0  0  0  0  0  0  0  0  0  0  0  0
    3.0813   -1.6246    2.7791 H   0  0  0  0  0  0  0  0  0  0  0  0
   -4.8153   -1.4293    1.8482 H   0  0  0  0  0  0  0  0  0  0  0  0
  1  2  1  0
  2  3  2  0
  3  4  1  0
  4  5  2  0
  5  6  1  0
  6  7  1  0
  7  8  2  0
  8  9  1  0
  9 10  1  0
 10 11  1  0
 11 12  2  0
 12 13  1  0
 13 14  2  0
 14 15  1  0
 15 16  1  0
 16 17  2  0
 16 18  1  0
 18 19  1  0
 19 20  1  0
 20 21  2  0
 21 22  1  0
 22 23  2  0
 22 24  1  0
 24 25  1  0
 25 26  2  0
 26 27  1  0
 27 28  2  0
 28 29  1  0
 29 30  2  0
 18 31  1  0
 31 32  2  0
 10 33  2  0
  6 34  2  0
 34  2  1  0
 33  7  1  0
 32 11  1  0
 32 15  1  0
 30 20  1  0
 29 24  1  0
  1 35  1  0
  1 36  1  0
  1 37  1  0
  3 38  1  0
  4 39  1  0
  5 40  1  0
 12 41  1  0
 13 42  1  0
 14 43  1  0
 19 44  1  0
 19 45  1  0
 21 46  1  0
 25 47  1  0
 26 48  1  0
 27 49  1  0
 28 50  1  0
 34 51  1  0
M  END
$$$$
