
     RDKit          3D

 24 24  0  0  0  0  0  0  0  0999 V2000
    3.8564    1.4680    0.4376 N   0  0  0  0  0  0  0  0  0  0  0  0
    3.5145    0.2348    0.3192 C   0  0  0  0  0  0  0  0  0  0  0  0
    4.4777   -0.7135    0.3475 N   0  0  0  0  0  0  0  0  0  0  0  0
    2.2610   -0.2606    0.1898 N   0  0  0  0  0  0  0  0  0  0  0  0
    1.0662    0.2844   -0.1915 C   0  0  0  0  0  0  0  0  0  0  0  0
    0.9920    1.3426   -0.9284 N   0  0  0  0  0  0  0  0  0  0  0  0
    0.0039   -0.4316    0.2991 N   0  0  0  0  0  0  0  0  0  0  0  0
   -1.3713   -0.2526    0.0285 C   0  0  0  0  0  0  0  0  0  0  0  0
   -1.8594    0.4330   -1.0908 C   0  0  0  0  0  0  0  0  0  0  0  0
   -3.2329    0.5385   -1.3398 C   0  0  0  0  0  0  0  0  0  0  0  0
   -4.1468   -0.0605   -0.4784 C   0  0  0  0  0  0  0  0  0  0  0  0
   -3.6793   -0.7683    0.6230 C   0  0  0  0  0  0  0  0  0  0  0  0
   -4.7985   -1.5298    1.6867 Cl  0  0  0  0  0  0  0  0  0  0  0  0
   -2.3084   -0.8730    0.8723 C   0  0  0  0  0  0  0  0  0  0  0  0
    3.0078    2.0467    0.4707 H   0  0  0  0  0  0  0  0  0  0  0  0
    4.4646   -1.3256   -0.4606 H   0  0  0  0  0  0  0  0  0  0  0  0
    5.3839   -0.2497    0.3913 H   0  0  0  0  0  0  0  0  0  0  0  0
    2.2112   -1.2455    0.4055 H   0  0  0  0  0  0  0  0  0  0  0  0
    1.9399    1.6320   -1.1910 H   0  0  0  0  0  0  0  0  0  0  0  0
    0.1641   -0.8380    1.2116 H   0  0  0  0  0  0  0  0  0  0  0  0
   -1.1778    0.8998   -1.7977 H   0  0  0  0  0  0  0  0  0  0  0  0
   -3.5809    1.0876   -2.2112 H   0  0  0  0  0  0  0  0  0  0  0  0
   -5.2120    0.0227   -0.6743 H   0  0  0  0  0  0  0  0  0  0  0  0
   -1.9759   -1.4412    1.7368 H   0  0  0  0  0  0  0  0  0  0  0  0
  1  2  2  3
  2  3  1  0
  2  4  1  0
  4  5  1  0
  5  6  2  3
  5  7  1  0
  7  8  1  0
  8  9  2  0
  9 10  1  0
 10 11  2  0
 11 12  1  0
 12 13  1  0
 12 14  2  0
 14  8  1  0
  1 15  1  0
  3 16  1  0
  3 17  1  0
  4 18  1  0
  6 19  1  0
  7 20  1  0
  9 21  1  0
 10 22  1  0
 11 23  1  0
 14 24  1  0
M  END
$$$$
