
     RDKit          3D

 48 49  0  0  0  0  0  0  0  0999 V2000
    0.1278    4.3848    1.6621 C   0  0  0  0  0  0  0  0  0  0  0  0
   -0.4405    4.0200    0.2999 C   0  0  0  0  0  0  0  0  0  0  0  0
   -0.3952    2.5107    0.0608 C   0  0  0  0  0  0  0  0  0  0  0  0
   -0.9567    2.1534   -1.3193 C   0  0  0  0  0  0  0  0  0  0  0  0
   -1.0302    0.7107   -1.5755 N   0  0  0  0  0  0  0  0  0  0  0  0
    0.1345    0.0886   -2.2157 C   0  0  0  0  0  0  0  0  0  0  0  0
    1.3085   -0.1151   -1.2851 C   0  0  0  0  0  0  0  0  0  0  0  0
    1.2110   -0.9737   -0.1804 C   0  0  0  0  0  0  0  0  0  0  0  0
    2.3023   -1.1645    0.6707 C   0  0  0  0  0  0  0  0  0  0  0  0
    3.5065   -0.4938    0.4340 C   0  0  0  0  0  0  0  0  0  0  0  0
    4.6411   -0.7256    1.3668 C   0  0  0  0  0  0  0  0  0  0  0  0
    4.7066   -1.7387    2.0583 O   0  0  0  0  0  0  0  0  0  0  0  0
    5.5842    0.2776    1.4526 N   0  0  0  0  0  0  0  0  0  0  0  0
    6.5201    0.1104    2.5045 O   0  0  0  0  0  0  0  0  0  0  0  0
    3.6199    0.3512   -0.6763 C   0  0  0  0  0  0  0  0  0  0  0  0
    2.5267    0.5379   -1.5285 C   0  0  0  0  0  0  0  0  0  0  0  0
   -2.1012    0.0233   -0.9968 C   0  0  0  0  0  0  0  0  0  0  0  0
   -2.9014    0.5962   -0.2600 O   0  0  0  0  0  0  0  0  0  0  0  0
   -2.1828   -1.3105   -1.3281 N   0  0  0  0  0  0  0  0  0  0  0  0
   -2.9944   -2.2886   -0.7140 C   0  0  0  0  0  0  0  0  0  0  0  0
   -3.1392   -3.5149   -1.3757 C   0  0  0  0  0  0  0  0  0  0  0  0
   -3.9082   -4.5391   -0.8168 C   0  0  0  0  0  0  0  0  0  0  0  0
   -4.5330   -4.3487    0.4128 C   0  0  0  0  0  0  0  0  0  0  0  0
   -4.3846   -3.1370    1.0834 C   0  0  0  0  0  0  0  0  0  0  0  0
   -3.6147   -2.1122    0.5245 C   0  0  0  0  0  0  0  0  0  0  0  0
   -0.4425    3.9077    2.4656 H   0  0  0  0  0  0  0  0  0  0  0  0
    0.0858    5.4681    1.8126 H   0  0  0  0  0  0  0  0  0  0  0  0
    1.1727    4.0699    1.7484 H   0  0  0  0  0  0  0  0  0  0  0  0
   -1.4749    4.3769    0.2347 H   0  0  0  0  0  0  0  0  0  0  0  0
    0.1320    4.5375   -0.4787 H   0  0  0  0  0  0  0  0  0  0  0  0
   -0.9624    1.9984    0.8466 H   0  0  0  0  0  0  0  0  0  0  0  0
    0.6395    2.1661    0.1494 H   0  0  0  0  0  0  0  0  0  0  0  0
   -0.3594    2.6215   -2.1106 H   0  0  0  0  0  0  0  0  0  0  0  0
   -1.9700    2.5642   -1.4127 H   0  0  0  0  0  0  0  0  0  0  0  0
   -0.1129   -0.8817   -2.6532 H   0  0  0  0  0  0  0  0  0  0  0  0
    0.4191    0.7235   -3.0639 H   0  0  0  0  0  0  0  0  0  0  0  0
    0.2822   -1.4995    0.0333 H   0  0  0  0  0  0  0  0  0  0  0  0
    2.2051   -1.8351    1.5230 H   0  0  0  0  0  0  0  0  0  0  0  0
    5.3510    1.2385    1.2269 H   0  0  0  0  0  0  0  0  0  0  0  0
    6.2614   -0.7627    2.8762 H   0  0  0  0  0  0  0  0  0  0  0  0
    4.5552    0.8524   -0.9107 H   0  0  0  0  0  0  0  0  0  0  0  0
    2.6349    1.1977   -2.3875 H   0  0  0  0  0  0  0  0  0  0  0  0
   -1.8362   -1.5556   -2.2398 H   0  0  0  0  0  0  0  0  0  0  0  0
   -2.6599   -3.6910   -2.3347 H   0  0  0  0  0  0  0  0  0  0  0  0
   -4.0186   -5.4848   -1.3409 H   0  0  0  0  0  0  0  0  0  0  0  0
   -5.1323   -5.1428    0.8503 H   0  0  0  0  0  0  0  0  0  0  0  0
   -4.8659   -2.9841    2.0461 H   0  0  0  0  0  0  0  0  0  0  0  0
   -3.5109   -1.1873    1.0844 H   0  0  0  0  0  0  0  0  0  0  0  0
  1  2  1  0
  2  3  1  0
  3  4  1  0
  4  5  1  0
  5  6  1  0
  6  7  1  0
  7  8  2  0
  8  9  1  0
  9 10  2  0
 10 11  1  0
 11 12  2  0
 11 13  1  0
 13 14  1  0
 10 15  1  0
 15 16  2  0
  5 17  1  0
 17 18  2  0
 17 19  1  0
 19 20  1  0
 20 21  2  0
 21 22  1  0
 22 23  2  0
 23 24  1  0
 24 25  2  0
 16  7  1  0
 25 20  1  0
  1 26  1  0
  1 27  1  0
  1 28  1  0
  2 29  1  0
  2 30  1  0
  3 31  1  0
  3 32  1  0
  4 33  1  0
  4 34  1  0
  6 35  1  0
  6 36  1  0
  8 37  1  0
  9 38  1  0
 13 39  1  0
 14 40  1  0
 15 41  1  0
 16 42  1  0
 19 43  1  0
 21 44  1  0
 22 45  1  0
 23 46  1  0
 24 47  1  0
 25 48  1  0
M  END
$$$$
