
     RDKit          3D

 43 44  0  0  0  0  0  0  0  0999 V2000
   -0.8665   -2.2258    1.0444 C   0  0  0  0  0  0  0  0  0  0  0  0
   -1.5837   -1.1111    1.5823 O   0  0  0  0  0  0  0  0  0  0  0  0
   -2.0025   -0.2771    0.5717 C   0  0  0  0  0  0  0  0  0  0  0  0
   -3.2191   -0.5552   -0.0921 C   0  0  0  0  0  0  0  0  0  0  0  0
   -4.0793   -1.7336    0.2611 C   0  0  0  0  0  0  0  0  0  0  0  0
   -3.5898    0.3041   -1.1209 C   0  0  0  0  0  0  0  0  0  0  0  0
   -2.8165    1.4027   -1.4304 C   0  0  0  0  0  0  0  0  0  0  0  0
   -1.6512    1.7210   -0.7553 C   0  0  0  0  0  0  0  0  0  0  0  0
   -0.9174    2.8267   -1.0811 O   0  0  0  0  0  0  0  0  0  0  0  0
   -1.2295    0.8805    0.2841 C   0  0  0  0  0  0  0  0  0  0  0  0
    0.0246    1.2058    1.0715 C   0  0  0  0  0  0  0  0  0  0  0  0
    1.2798    0.7044    0.4039 C   0  0  0  0  0  0  0  0  0  0  0  0
    2.2433   -0.0942    0.9082 C   0  0  0  0  0  0  0  0  0  0  0  0
    2.2452   -0.6803    2.2946 C   0  0  0  0  0  0  0  0  0  0  0  0
    3.4296   -0.4850    0.0454 C   0  0  0  0  0  0  0  0  0  0  0  0
    4.6822    0.3224    0.3810 C   0  0  0  0  0  0  0  0  0  0  0  0
    5.8251   -0.0613   -0.5167 C   0  0  0  0  0  0  0  0  0  0  0  0
    5.8849   -1.0131   -1.2770 O   0  0  0  0  0  0  0  0  0  0  0  0
    6.8723    0.7806   -0.3894 O   0  0  0  0  0  0  0  0  0  0  0  0
   -3.4373    2.1206   -2.5279 C   0  0  0  0  0  0  0  0  0  0  0  0
   -2.9987    3.1376   -3.0321 O   0  0  0  0  0  0  0  0  0  0  0  0
   -4.5707    1.4423   -2.8620 O   0  0  0  0  0  0  0  0  0  0  0  0
   -4.7593    0.2786   -2.0269 C   0  0  0  0  0  0  0  0  0  0  0  0
   -0.2753   -2.6638    1.8537 H   0  0  0  0  0  0  0  0  0  0  0  0
   -0.1785   -1.9373    0.2415 H   0  0  0  0  0  0  0  0  0  0  0  0
   -1.5612   -2.9892    0.6809 H   0  0  0  0  0  0  0  0  0  0  0  0
   -3.8996   -2.0775    1.2846 H   0  0  0  0  0  0  0  0  0  0  0  0
   -3.8862   -2.5612   -0.4303 H   0  0  0  0  0  0  0  0  0  0  0  0
   -5.1407   -1.4676    0.2065 H   0  0  0  0  0  0  0  0  0  0  0  0
   -1.3597    3.2986   -1.8202 H   0  0  0  0  0  0  0  0  0  0  0  0
   -0.0846    0.8406    2.0957 H   0  0  0  0  0  0  0  0  0  0  0  0
    0.1072    2.2949    1.1819 H   0  0  0  0  0  0  0  0  0  0  0  0
    1.4011    1.0750   -0.6154 H   0  0  0  0  0  0  0  0  0  0  0  0
    1.3767   -0.3946    2.8916 H   0  0  0  0  0  0  0  0  0  0  0  0
    2.2504   -1.7743    2.2373 H   0  0  0  0  0  0  0  0  0  0  0  0
    3.1359   -0.3593    2.8452 H   0  0  0  0  0  0  0  0  0  0  0  0
    3.6239   -1.5589    0.1631 H   0  0  0  0  0  0  0  0  0  0  0  0
    3.1864   -0.3513   -1.0173 H   0  0  0  0  0  0  0  0  0  0  0  0
    4.9938    0.1479    1.4168 H   0  0  0  0  0  0  0  0  0  0  0  0
    4.4807    1.3919    0.2462 H   0  0  0  0  0  0  0  0  0  0  0  0
    7.5397    0.4224   -1.0113 H   0  0  0  0  0  0  0  0  0  0  0  0
   -4.7702   -0.6109   -2.6638 H   0  0  0  0  0  0  0  0  0  0  0  0
   -5.7054    0.3842   -1.4900 H   0  0  0  0  0  0  0  0  0  0  0  0
  1  2  1  0
  2  3  1  0
  3  4  2  0
  4  5  1  0
  4  6  1  0
  6  7  2  0
  7  8  1  0
  8  9  1  0
  8 10  2  0
 10 11  1  0
 11 12  1  0
 12 13  2  0
 13 14  1  0
 13 15  1  0
 15 16  1  0
 16 17  1  0
 17 18  2  0
 17 19  1  0
  7 20  1  0
 20 21  2  0
 20 22  1  0
 22 23  1  0
 10  3  1  0
 23  6  1  0
  1 24  1  0
  1 25  1  0
  1 26  1  0
  5 27  1  0
  5 28  1  0
  5 29  1  0
  9 30  1  0
 11 31  1  0
 11 32  1  0
 12 33  1  0
 14 34  1  0
 14 35  1  0
 14 36  1  0
 15 37  1  0
 15 38  1  0
 16 39  1  0
 16 40  1  0
 19 41  1  0
 23 42  1  0
 23 43  1  0
M  END
$$$$
