
     RDKit          3D

 39 40  0  0  0  0  0  0  0  0999 V2000
   -3.2343    2.9874    1.7507 C   0  0  0  0  0  0  0  0  0  0  0  0
   -3.0309    1.8413    2.5677 O   0  0  0  0  0  0  0  0  0  0  0  0
   -2.5109    0.7274    1.9671 C   0  0  0  0  0  0  0  0  0  0  0  0
   -2.3320   -0.3600    2.8268 C   0  0  0  0  0  0  0  0  0  0  0  0
   -1.8122   -1.5635    2.3528 C   0  0  0  0  0  0  0  0  0  0  0  0
   -1.4702   -1.6806    1.0089 C   0  0  0  0  0  0  0  0  0  0  0  0
   -0.8871   -2.8926    0.5173 N   0  0  0  0  0  0  0  0  0  0  0  0
    0.7011   -3.2465    0.9874 S   0  0  0  0  0  6  0  0  0  0  0  0
    0.7692   -3.3357    2.4304 O   0  0  0  0  0  0  0  0  0  0  0  0
    1.1405   -4.3430    0.1493 O   0  0  0  0  0  0  0  0  0  0  0  0
    1.6115   -1.8006    0.4838 C   0  0  0  0  0  0  0  0  0  0  0  0
    1.8497   -0.7741    1.4006 C   0  0  0  0  0  0  0  0  0  0  0  0
    2.5635    0.3567    0.9960 C   0  0  0  0  0  0  0  0  0  0  0  0
    3.0467    0.4636   -0.3143 C   0  0  0  0  0  0  0  0  0  0  0  0
    3.9607    1.9272   -0.7684 S   0  0  0  0  0  0  0  0  0  0  0  0
    3.1391    2.3684   -2.3225 C   0  0  0  0  0  0  0  0  0  0  0  0
    2.8363   -0.5912   -1.2105 C   0  0  0  0  0  0  0  0  0  0  0  0
    2.1191   -1.7242   -0.8159 C   0  0  0  0  0  0  0  0  0  0  0  0
   -1.6346   -0.5932    0.1320 C   0  0  0  0  0  0  0  0  0  0  0  0
   -1.2535   -0.8229   -1.1688 O   0  0  0  0  0  0  0  0  0  0  0  0
   -1.1093    0.3207   -2.0034 C   0  0  0  0  0  0  0  0  0  0  0  0
   -2.1645    0.6079    0.6168 C   0  0  0  0  0  0  0  0  0  0  0  0
   -2.2876    3.3488    1.3361 H   0  0  0  0  0  0  0  0  0  0  0  0
   -3.6453    3.7805    2.3828 H   0  0  0  0  0  0  0  0  0  0  0  0
   -3.9620    2.7821    0.9584 H   0  0  0  0  0  0  0  0  0  0  0  0
   -2.6001   -0.2685    3.8772 H   0  0  0  0  0  0  0  0  0  0  0  0
   -1.6788   -2.4003    3.0343 H   0  0  0  0  0  0  0  0  0  0  0  0
   -0.9862   -3.0055   -0.4935 H   0  0  0  0  0  0  0  0  0  0  0  0
    1.4813   -0.8420    2.4221 H   0  0  0  0  0  0  0  0  0  0  0  0
    2.7416    1.1540    1.7152 H   0  0  0  0  0  0  0  0  0  0  0  0
    3.5018    3.3466   -2.6505 H   0  0  0  0  0  0  0  0  0  0  0  0
    3.3651    1.6401   -3.1048 H   0  0  0  0  0  0  0  0  0  0  0  0
    2.0565    2.4310   -2.1807 H   0  0  0  0  0  0  0  0  0  0  0  0
    3.2428   -0.5550   -2.2176 H   0  0  0  0  0  0  0  0  0  0  0  0
    1.9680   -2.5387   -1.5209 H   0  0  0  0  0  0  0  0  0  0  0  0
   -0.4339    1.0581   -1.5566 H   0  0  0  0  0  0  0  0  0  0  0  0
   -2.0843    0.7622   -2.2320 H   0  0  0  0  0  0  0  0  0  0  0  0
   -0.6636   -0.0093   -2.9467 H   0  0  0  0  0  0  0  0  0  0  0  0
   -2.3131    1.4435   -0.0541 H   0  0  0  0  0  0  0  0  0  0  0  0
  1  2  1  0
  2  3  1  0
  3  4  2  0
  4  5  1  0
  5  6  2  0
  6  7  1  0
  7  8  1  0
  8  9  2  0
  8 10  2  0
  8 11  1  0
 11 12  2  0
 12 13  1  0
 13 14  2  0
 14 15  1  0
 15 16  1  0
 14 17  1  0
 17 18  2  0
  6 19  1  0
 19 20  1  0
 20 21  1  0
 19 22  2  0
 22  3  1  0
 18 11  1  0
  1 23  1  0
  1 24  1  0
  1 25  1  0
  4 26  1  0
  5 27  1  0
  7 28  1  0
 12 29  1  0
 13 30  1  0
 16 31  1  0
 16 32  1  0
 16 33  1  0
 17 34  1  0
 18 35  1  0
 21 36  1  0
 21 37  1  0
 21 38  1  0
 22 39  1  0
M  END
$$$$
