
     RDKit          3D

 43 45  0  0  0  0  0  0  0  0999 V2000
    3.8756   -3.1805   -1.1552 N   0  0  0  0  0  0  0  0  0  0  0  0
    3.4716   -1.8662   -0.7436 N   0  0  0  0  0  0  0  0  0  0  0  0
    2.5900   -1.1004   -1.4970 C   0  0  0  0  0  0  0  0  0  0  0  0
    1.9480   -1.7669   -2.9869 S   0  0  0  0  0  0  0  0  0  0  0  0
    0.6384   -2.8016   -2.2654 C   0  0  0  0  0  0  0  0  0  0  0  0
   -0.2716   -2.0192   -1.3321 C   0  0  0  0  0  0  0  0  0  0  0  0
   -0.5490   -2.4268   -0.2069 O   0  0  0  0  0  0  0  0  0  0  0  0
   -0.7934   -0.8573   -1.8678 N   0  0  0  0  0  0  0  0  0  0  0  0
   -1.5389    0.0702   -1.0357 C   0  0  0  0  0  0  0  0  0  0  0  0
   -2.9679   -0.4013   -0.7578 C   0  0  0  0  0  0  0  0  0  0  0  0
   -3.7291    0.6033    0.0714 C   0  0  0  0  0  0  0  0  0  0  0  0
   -3.6253    0.5874    1.4690 C   0  0  0  0  0  0  0  0  0  0  0  0
   -4.3101    1.5281    2.2392 C   0  0  0  0  0  0  0  0  0  0  0  0
   -5.1011    2.4942    1.6201 C   0  0  0  0  0  0  0  0  0  0  0  0
   -5.2073    2.5211    0.2306 C   0  0  0  0  0  0  0  0  0  0  0  0
   -4.5231    1.5812   -0.5419 C   0  0  0  0  0  0  0  0  0  0  0  0
    2.2087    0.0942   -1.1800 N   0  0  0  0  0  0  0  0  0  0  0  0
    2.6925    0.6404    0.0174 C   0  0  0  0  0  0  0  0  0  0  0  0
    2.2654    1.9166    0.3910 C   0  0  0  0  0  0  0  0  0  0  0  0
    2.7181    2.5004    1.5777 C   0  0  0  0  0  0  0  0  0  0  0  0
    3.6056    1.8106    2.4037 C   0  0  0  0  0  0  0  0  0  0  0  0
    4.0404    0.5358    2.0442 C   0  0  0  0  0  0  0  0  0  0  0  0
    3.5796   -0.0398    0.8546 C   0  0  0  0  0  0  0  0  0  0  0  0
    4.0186   -1.3865    0.4469 C   0  0  0  0  0  0  0  0  0  0  0  0
    4.8231   -2.0228    1.1266 O   0  0  0  0  0  0  0  0  0  0  0  0
    4.2618   -3.6293   -0.3140 H   0  0  0  0  0  0  0  0  0  0  0  0
    4.6873   -3.0550   -1.7640 H   0  0  0  0  0  0  0  0  0  0  0  0
    0.0300   -3.2246   -3.0707 H   0  0  0  0  0  0  0  0  0  0  0  0
    1.0884   -3.6301   -1.7104 H   0  0  0  0  0  0  0  0  0  0  0  0
   -0.2473   -0.4500   -2.6209 H   0  0  0  0  0  0  0  0  0  0  0  0
   -1.5522    1.0292   -1.5662 H   0  0  0  0  0  0  0  0  0  0  0  0
   -0.9853    0.2177   -0.1006 H   0  0  0  0  0  0  0  0  0  0  0  0
   -3.4949   -0.5751   -1.7049 H   0  0  0  0  0  0  0  0  0  0  0  0
   -2.9687   -1.3695   -0.2424 H   0  0  0  0  0  0  0  0  0  0  0  0
   -3.0095   -0.1614    1.9639 H   0  0  0  0  0  0  0  0  0  0  0  0
   -4.2265    1.5056    3.3225 H   0  0  0  0  0  0  0  0  0  0  0  0
   -5.6353    3.2254    2.2207 H   0  0  0  0  0  0  0  0  0  0  0  0
   -5.8245    3.2743   -0.2520 H   0  0  0  0  0  0  0  0  0  0  0  0
   -4.6153    1.6157   -1.6249 H   0  0  0  0  0  0  0  0  0  0  0  0
    1.5721    2.4591   -0.2472 H   0  0  0  0  0  0  0  0  0  0  0  0
    2.3751    3.4940    1.8570 H   0  0  0  0  0  0  0  0  0  0  0  0
    3.9557    2.2652    3.3276 H   0  0  0  0  0  0  0  0  0  0  0  0
    4.7303   -0.0053    2.6880 H   0  0  0  0  0  0  0  0  0  0  0  0
  1  2  1  0
  2  3  1  0
  3  4  1  0
  4  5  1  0
  5  6  1  0
  6  7  2  0
  6  8  1  0
  8  9  1  0
  9 10  1  0
 10 11  1  0
 11 12  2  0
 12 13  1  0
 13 14  2  0
 14 15  1  0
 15 16  2  0
  3 17  2  0
 17 18  1  0
 18 19  2  0
 19 20  1  0
 20 21  2  0
 21 22  1  0
 22 23  2  0
 23 24  1  0
 24 25  2  0
 24  2  1  0
 16 11  1  0
 23 18  1  0
  1 26  1  0
  1 27  1  0
  5 28  1  0
  5 29  1  0
  8 30  1  0
  9 31  1  0
  9 32  1  0
 10 33  1  0
 10 34  1  0
 12 35  1  0
 13 36  1  0
 14 37  1  0
 15 38  1  0
 16 39  1  0
 19 40  1  0
 20 41  1  0
 21 42  1  0
 22 43  1  0
M  END
$$$$
