
     RDKit          3D

 54 57  0  0  0  0  0  0  0  0999 V2000
    6.0083    1.2405    0.4160 O   0  0  0  0  0  0  0  0  0  0  0  0
    5.2790    0.2808    0.1817 C   0  0  0  0  0  0  0  0  0  0  0  0
    3.8959    0.5492   -0.2628 C   0  0  0  0  0  0  0  0  0  0  0  0
    3.6877    1.2981   -1.4207 C   0  0  0  0  0  0  0  0  0  0  0  0
    2.3828    1.5786   -1.8306 C   0  0  0  0  0  0  0  0  0  0  0  0
    1.2849    1.1229   -1.0911 C   0  0  0  0  0  0  0  0  0  0  0  0
    0.0730    1.4964   -1.5937 O   0  0  0  0  0  0  0  0  0  0  0  0
   -1.1006    0.7684   -1.2189 C   0  0  0  0  0  0  0  0  0  0  0  0
   -2.1218    1.7249   -0.5839 C   0  0  0  0  0  0  0  0  0  0  0  0
   -1.5633    2.4494    0.6490 C   0  0  0  0  0  0  0  0  0  0  0  0
   -2.8177    2.8088    1.4312 C   0  0  0  0  0  0  0  0  0  0  0  0
   -3.6898    1.5779    1.2426 C   0  0  0  0  0  0  0  0  0  0  0  0
   -3.3420    1.0795   -0.0851 N   0  0  0  0  0  0  0  0  0  0  0  0
   -4.2148    0.4434   -0.9527 C   0  0  0  0  0  0  0  0  0  0  0  0
   -4.0155    0.3465   -2.1606 O   0  0  0  0  0  0  0  0  0  0  0  0
   -5.4561   -0.1471   -0.4011 C   0  0  0  0  0  0  0  0  0  0  0  0
   -6.6782    0.1768   -1.0040 C   0  0  0  0  0  0  0  0  0  0  0  0
   -7.8620   -0.3677   -0.5052 C   0  0  0  0  0  0  0  0  0  0  0  0
   -7.8120   -1.2357    0.5823 C   0  0  0  0  0  0  0  0  0  0  0  0
   -8.9491   -1.7560    1.0621 F   0  0  0  0  0  0  0  0  0  0  0  0
   -6.5998   -1.5836    1.1714 C   0  0  0  0  0  0  0  0  0  0  0  0
   -5.4124   -1.0423    0.6761 C   0  0  0  0  0  0  0  0  0  0  0  0
    1.5042    0.4076    0.0875 C   0  0  0  0  0  0  0  0  0  0  0  0
    2.8088    0.1227    0.5046 C   0  0  0  0  0  0  0  0  0  0  0  0
    5.6839   -1.0358    0.2950 N   0  0  0  0  0  0  0  0  0  0  0  0
    7.0403   -1.3568    0.7039 C   0  0  0  0  0  0  0  0  0  0  0  0
    7.2760   -2.7691    0.1865 C   0  0  0  0  0  0  0  0  0  0  0  0
    5.8803   -3.3762    0.1956 C   0  0  0  0  0  0  0  0  0  0  0  0
    5.0019   -2.2104   -0.2313 C   0  0  0  0  0  0  0  0  0  0  0  0
    4.5334    1.6673   -1.9960 H   0  0  0  0  0  0  0  0  0  0  0  0
    2.2179    2.1623   -2.7336 H   0  0  0  0  0  0  0  0  0  0  0  0
   -0.9111   -0.0925   -0.5701 H   0  0  0  0  0  0  0  0  0  0  0  0
   -1.5073    0.3472   -2.1439 H   0  0  0  0  0  0  0  0  0  0  0  0
   -2.4235    2.4783   -1.3249 H   0  0  0  0  0  0  0  0  0  0  0  0
   -0.9435    1.7812    1.2573 H   0  0  0  0  0  0  0  0  0  0  0  0
   -0.9663    3.3275    0.3862 H   0  0  0  0  0  0  0  0  0  0  0  0
   -2.6190    3.0201    2.4863 H   0  0  0  0  0  0  0  0  0  0  0  0
   -3.2979    3.6877    0.9843 H   0  0  0  0  0  0  0  0  0  0  0  0
   -4.7547    1.8116    1.3299 H   0  0  0  0  0  0  0  0  0  0  0  0
   -3.4230    0.8026    1.9678 H   0  0  0  0  0  0  0  0  0  0  0  0
   -6.7034    0.8498   -1.8577 H   0  0  0  0  0  0  0  0  0  0  0  0
   -8.8181   -0.1239   -0.9544 H   0  0  0  0  0  0  0  0  0  0  0  0
   -6.5900   -2.2779    2.0069 H   0  0  0  0  0  0  0  0  0  0  0  0
   -4.4606   -1.3328    1.1149 H   0  0  0  0  0  0  0  0  0  0  0  0
    0.6893    0.0833    0.7242 H   0  0  0  0  0  0  0  0  0  0  0  0
    2.9744   -0.4126    1.4360 H   0  0  0  0  0  0  0  0  0  0  0  0
    7.7635   -0.6390    0.3076 H   0  0  0  0  0  0  0  0  0  0  0  0
    7.0707   -1.3238    1.7985 H   0  0  0  0  0  0  0  0  0  0  0  0
    7.9901   -3.3267    0.7969 H   0  0  0  0  0  0  0  0  0  0  0  0
    7.6547   -2.7342   -0.8427 H   0  0  0  0  0  0  0  0  0  0  0  0
    5.7839   -4.2415   -0.4665 H   0  0  0  0  0  0  0  0  0  0  0  0
    5.6207   -3.6900    1.2134 H   0  0  0  0  0  0  0  0  0  0  0  0
    3.9861   -2.2996    0.1572 H   0  0  0  0  0  0  0  0  0  0  0  0
    4.9615   -2.1161   -1.3209 H   0  0  0  0  0  0  0  0  0  0  0  0
  1  2  2  0
  2  3  1  0
  3  4  2  0
  4  5  1  0
  5  6  2  0
  6  7  1  0
  7  8  1  0
  8  9  1  0
  9 10  1  0
 10 11  1  0
 11 12  1  0
 12 13  1  0
 13 14  1  0
 14 15  2  0
 14 16  1  0
 16 17  2  0
 17 18  1  0
 18 19  2  0
 19 20  1  0
 19 21  1  0
 21 22  2  0
  6 23  1  0
 23 24  2  0
  2 25  1  0
 25 26  1  0
 26 27  1  0
 27 28  1  0
 28 29  1  0
 24  3  1  0
 29 25  1  0
 13  9  1  0
 22 16  1  0
  4 30  1  0
  5 31  1  0
  8 32  1  0
  8 33  1  0
  9 34  1  0
 10 35  1  0
 10 36  1  0
 11 37  1  0
 11 38  1  0
 12 39  1  0
 12 40  1  0
 17 41  1  0
 18 42  1  0
 21 43  1  0
 22 44  1  0
 23 45  1  0
 24 46  1  0
 26 47  1  0
 26 48  1  0
 27 49  1  0
 27 50  1  0
 28 51  1  0
 28 52  1  0
 29 53  1  0
 29 54  1  0
M  END
$$$$
