
     RDKit          3D

 53 55  0  0  0  0  0  0  0  0999 V2000
    7.9839    1.6405   -0.7376 C   0  0  0  0  0  0  0  0  0  0  0  0
    6.5570    1.1508   -0.9079 C   0  0  0  0  0  0  0  0  0  0  0  0
    6.3959   -0.0204   -0.1102 O   0  0  0  0  0  0  0  0  0  0  0  0
    5.1609   -0.6074   -0.1094 C   0  0  0  0  0  0  0  0  0  0  0  0
    5.0467   -1.7259    0.7175 C   0  0  0  0  0  0  0  0  0  0  0  0
    3.8395   -2.4226    0.8151 C   0  0  0  0  0  0  0  0  0  0  0  0
    2.7193   -2.0089    0.0846 C   0  0  0  0  0  0  0  0  0  0  0  0
    1.4138   -2.7660    0.1867 C   0  0  0  0  0  0  0  0  0  0  0  0
    0.2864   -1.9818    0.8268 C   0  0  0  0  0  0  0  0  0  0  0  0
   -0.6546   -1.3417   -0.0052 C   0  0  0  0  0  0  0  0  0  0  0  0
   -1.7070   -0.5759    0.5246 C   0  0  0  0  0  0  0  0  0  0  0  0
   -2.7145    0.0803   -0.4039 C   0  0  2  0  0  0  0  0  0  0  0  0
   -2.9192    1.4255    0.0508 O   0  0  0  0  0  0  0  0  0  0  0  0
   -3.8097    2.1688   -0.8055 C   0  0  2  0  0  0  0  0  0  0  0  0
   -3.8765    3.6002   -0.2639 C   0  0  0  0  0  0  0  0  0  0  0  0
   -2.5580    4.1523   -0.2139 O   0  0  0  0  0  0  0  0  0  0  0  0
   -5.1940    1.5140   -0.8369 C   0  0  1  0  0  0  0  0  0  0  0  0
   -6.0727    2.2022   -1.7278 O   0  0  0  0  0  0  0  0  0  0  0  0
   -5.0601    0.0590   -1.2893 C   0  0  2  0  0  0  0  0  0  0  0  0
   -6.3476   -0.5743   -1.2104 O   0  0  0  0  0  0  0  0  0  0  0  0
   -4.0465   -0.6997   -0.4276 C   0  0  1  0  0  0  0  0  0  0  0  0
   -3.9047   -2.0152   -0.9856 O   0  0  0  0  0  0  0  0  0  0  0  0
   -1.8152   -0.4560    1.9157 C   0  0  0  0  0  0  0  0  0  0  0  0
   -0.8947   -1.0861    2.7537 C   0  0  0  0  0  0  0  0  0  0  0  0
    0.1490   -1.8444    2.2164 C   0  0  0  0  0  0  0  0  0  0  0  0
    1.2272   -2.6079    3.3287 Cl  0  0  0  0  0  0  0  0  0  0  0  0
    2.8416   -0.8886   -0.7495 C   0  0  0  0  0  0  0  0  0  0  0  0
    4.0523   -0.1917   -0.8447 C   0  0  0  0  0  0  0  0  0  0  0  0
    8.1918    1.8644    0.3140 H   0  0  0  0  0  0  0  0  0  0  0  0
    8.1607    2.5412   -1.3321 H   0  0  0  0  0  0  0  0  0  0  0  0
    8.6961    0.8678   -1.0458 H   0  0  0  0  0  0  0  0  0  0  0  0
    6.3829    0.9178   -1.9647 H   0  0  0  0  0  0  0  0  0  0  0  0
    5.8676    1.9360   -0.5762 H   0  0  0  0  0  0  0  0  0  0  0  0
    5.9062   -2.0571    1.2953 H   0  0  0  0  0  0  0  0  0  0  0  0
    3.7844   -3.2878    1.4721 H   0  0  0  0  0  0  0  0  0  0  0  0
    1.5537   -3.7126    0.7240 H   0  0  0  0  0  0  0  0  0  0  0  0
    1.1214   -3.0764   -0.8261 H   0  0  0  0  0  0  0  0  0  0  0  0
   -0.5582   -1.4388   -1.0867 H   0  0  0  0  0  0  0  0  0  0  0  0
   -2.2811    0.1196   -1.4124 H   0  0  0  0  0  0  0  0  0  0  0  0
   -3.3680    2.2075   -1.8102 H   0  0  0  0  0  0  0  0  0  0  0  0
   -4.4934    4.2451   -0.8961 H   0  0  0  0  0  0  0  0  0  0  0  0
   -4.2733    3.6181    0.7565 H   0  0  0  0  0  0  0  0  0  0  0  0
   -2.0084    3.4748    0.2255 H   0  0  0  0  0  0  0  0  0  0  0  0
   -5.6535    1.5418    0.1593 H   0  0  0  0  0  0  0  0  0  0  0  0
   -6.8543    1.6197   -1.8211 H   0  0  0  0  0  0  0  0  0  0  0  0
   -4.7752    0.0154   -2.3483 H   0  0  0  0  0  0  0  0  0  0  0  0
   -6.1763   -1.5213   -1.3890 H   0  0  0  0  0  0  0  0  0  0  0  0
   -4.4596   -0.8193    0.5821 H   0  0  0  0  0  0  0  0  0  0  0  0
   -3.3410   -2.5244   -0.3727 H   0  0  0  0  0  0  0  0  0  0  0  0
   -2.6124    0.1393    2.3575 H   0  0  0  0  0  0  0  0  0  0  0  0
   -0.9940   -0.9772    3.8313 H   0  0  0  0  0  0  0  0  0  0  0  0
    1.9927   -0.5430   -1.3344 H   0  0  0  0  0  0  0  0  0  0  0  0
    4.0926    0.6702   -1.5019 H   0  0  0  0  0  0  0  0  0  0  0  0
  1  2  1  0
  2  3  1  0
  3  4  1  0
  4  5  2  0
  5  6  1  0
  6  7  2  0
  7  8  1  0
  8  9  1  0
  9 10  2  0
 10 11  1  0
 11 12  1  0
 12 13  1  0
 13 14  1  0
 14 15  1  0
 15 16  1  0
 14 17  1  0
 17 18  1  0
 17 19  1  0
 19 20  1  0
 19 21  1  0
 21 22  1  0
 11 23  2  0
 23 24  1  0
 24 25  2  0
 25 26  1  0
  7 27  1  0
 27 28  2  0
 28  4  1  0
 25  9  1  0
 21 12  1  0
  1 29  1  0
  1 30  1  0
  1 31  1  0
  2 32  1  0
  2 33  1  0
  5 34  1  0
  6 35  1  0
  8 36  1  0
  8 37  1  0
 10 38  1  0
 12 39  1  6
 14 40  1  6
 15 41  1  0
 15 42  1  0
 16 43  1  0
 17 44  1  1
 18 45  1  0
 19 46  1  6
 20 47  1  0
 21 48  1  1
 22 49  1  0
 23 50  1  0
 24 51  1  0
 27 52  1  0
 28 53  1  0
M  END
$$$$
