
     RDKit          3D

 60 64  0  0  0  0  0  0  0  0999 V2000
   -3.9404   -0.2590   -3.1640 C   0  0  0  0  0  0  0  0  0  0  0  0
   -3.2831   -0.3055   -1.8168 C   0  0  0  0  0  0  0  0  0  0  0  0
   -3.9812    0.1516   -0.6726 C   0  0  0  0  0  0  0  0  0  0  0  0
   -3.4442    0.1639    0.6285 C   0  0  0  0  0  0  0  0  0  0  0  0
   -4.1530    0.6169    1.7468 N   0  0  0  0  0  0  0  0  0  0  0  0
   -3.4409    1.5402    2.6679 C   0  0  0  0  0  0  0  0  0  0  0  0
   -3.6778    3.0010    2.2424 C   0  0  0  0  0  0  0  0  0  0  0  0
   -5.0816    3.3153    2.1988 O   0  0  0  0  0  0  0  0  0  0  0  0
   -5.7617    2.4506    1.2725 C   0  0  0  0  0  0  0  0  0  0  0  0
   -5.5863    0.9702    1.6528 C   0  0  0  0  0  0  0  0  0  0  0  0
   -2.1452   -0.3562    0.7857 C   0  0  0  0  0  0  0  0  0  0  0  0
   -1.4121   -0.8084   -0.3223 C   0  0  0  0  0  0  0  0  0  0  0  0
   -0.1289   -1.3049   -0.3784 N   0  0  0  0  0  0  0  0  0  0  0  0
    0.1027   -1.5722   -1.6575 C   0  0  0  0  0  0  0  0  0  0  0  0
    1.2797   -2.0690   -2.3031 C   0  0  0  0  0  0  0  0  0  0  0  0
    2.3654   -2.4387   -1.5733 C   0  0  0  0  0  0  0  0  0  0  0  0
    2.4229   -2.4809   -0.1775 N   0  0  0  0  0  0  0  0  0  0  0  0
    3.3693   -1.6690    0.6086 C   0  0  0  0  0  0  0  0  0  0  0  0
    2.9069   -0.1953    0.7275 C   0  0  1  0  0  0  0  0  0  0  0  0
    1.6673   -0.1105    1.4356 O   0  0  0  0  0  0  0  0  0  0  0  0
    3.9304    0.6433    1.4629 C   0  0  0  0  0  0  0  0  0  0  0  0
    4.1207    0.5047    2.8484 C   0  0  0  0  0  0  0  0  0  0  0  0
    5.0873    1.2591    3.5172 C   0  0  0  0  0  0  0  0  0  0  0  0
    5.8760    2.1657    2.8088 C   0  0  0  0  0  0  0  0  0  0  0  0
    5.6899    2.3173    1.4352 C   0  0  0  0  0  0  0  0  0  0  0  0
    6.6591    3.4390    0.5604 Cl  0  0  0  0  0  0  0  0  0  0  0  0
    4.7282    1.5628    0.7615 C   0  0  0  0  0  0  0  0  0  0  0  0
    3.5634   -2.8995   -2.2629 C   0  0  0  0  0  0  0  0  0  0  0  0
    3.6264   -2.9497   -3.5960 C   0  0  0  0  0  0  0  0  0  0  0  0
    2.5508   -2.5690   -4.3458 N   0  0  0  0  0  0  0  0  0  0  0  0
    1.3629   -2.1397   -3.8085 C   0  0  0  0  0  0  0  0  0  0  0  0
    0.4188   -1.8301   -4.5353 O   0  0  0  0  0  0  0  0  0  0  0  0
   -1.0135   -1.2683   -2.4068 N   0  0  0  0  0  0  0  0  0  0  0  0
   -1.9876   -0.7707   -1.5808 C   0  0  0  0  0  0  0  0  0  0  0  0
   -4.1705    0.7765   -3.4322 H   0  0  0  0  0  0  0  0  0  0  0  0
   -4.8693   -0.8367   -3.1468 H   0  0  0  0  0  0  0  0  0  0  0  0
   -3.2980   -0.6821   -3.9416 H   0  0  0  0  0  0  0  0  0  0  0  0
   -4.9864    0.5261   -0.8453 H   0  0  0  0  0  0  0  0  0  0  0  0
   -3.8589    1.3899    3.6717 H   0  0  0  0  0  0  0  0  0  0  0  0
   -2.3666    1.3461    2.7439 H   0  0  0  0  0  0  0  0  0  0  0  0
   -3.2138    3.6759    2.9681 H   0  0  0  0  0  0  0  0  0  0  0  0
   -3.2370    3.2081    1.2605 H   0  0  0  0  0  0  0  0  0  0  0  0
   -5.3918    2.6594    0.2624 H   0  0  0  0  0  0  0  0  0  0  0  0
   -6.8237    2.7135    1.2972 H   0  0  0  0  0  0  0  0  0  0  0  0
   -6.1376    0.3093    0.9755 H   0  0  0  0  0  0  0  0  0  0  0  0
   -6.0243    0.8151    2.6473 H   0  0  0  0  0  0  0  0  0  0  0  0
   -1.6865   -0.4400    1.7649 H   0  0  0  0  0  0  0  0  0  0  0  0
    1.4779   -2.3645    0.2143 H   0  0  0  0  0  0  0  0  0  0  0  0
    4.3738   -1.7187    0.1733 H   0  0  0  0  0  0  0  0  0  0  0  0
    3.4248   -2.1220    1.6043 H   0  0  0  0  0  0  0  0  0  0  0  0
    2.7344    0.2304   -0.2697 H   0  0  0  0  0  0  0  0  0  0  0  0
    0.9856   -0.4719    0.8292 H   0  0  0  0  0  0  0  0  0  0  0  0
    3.5017   -0.1907    3.4149 H   0  0  0  0  0  0  0  0  0  0  0  0
    5.2231    1.1379    4.5905 H   0  0  0  0  0  0  0  0  0  0  0  0
    6.6247    2.7532    3.3340 H   0  0  0  0  0  0  0  0  0  0  0  0
    4.5973    1.6978   -0.3106 H   0  0  0  0  0  0  0  0  0  0  0  0
    4.4070   -3.2336   -1.6662 H   0  0  0  0  0  0  0  0  0  0  0  0
    4.5057   -3.2976   -4.1284 H   0  0  0  0  0  0  0  0  0  0  0  0
    2.5923   -2.6164   -5.3570 H   0  0  0  0  0  0  0  0  0  0  0  0
   -1.0746   -1.3701   -3.4141 H   0  0  0  0  0  0  0  0  0  0  0  0
  1  2  1  0
  2  3  2  0
  3  4  1  0
  4  5  1  0
  5  6  1  0
  6  7  1  0
  7  8  1  0
  8  9  1  0
  9 10  1  0
  4 11  2  0
 11 12  1  0
 12 13  1  0
 13 14  2  0
 14 15  1  0
 15 16  2  0
 16 17  1  0
 17 18  1  0
 18 19  1  0
 19 20  1  0
 19 21  1  0
 21 22  2  0
 22 23  1  0
 23 24  2  0
 24 25  1  0
 25 26  1  0
 25 27  2  0
 16 28  1  0
 28 29  2  0
 29 30  1  0
 30 31  1  0
 31 32  2  0
 14 33  1  0
 33 34  1  0
 34  2  1  0
 10  5  1  0
 34 12  2  0
 31 15  1  0
 27 21  1  0
  1 35  1  0
  1 36  1  0
  1 37  1  0
  3 38  1  0
  6 39  1  0
  6 40  1  0
  7 41  1  0
  7 42  1  0
  9 43  1  0
  9 44  1  0
 10 45  1  0
 10 46  1  0
 11 47  1  0
 17 48  1  0
 18 49  1  0
 18 50  1  0
 19 51  1  6
 20 52  1  0
 22 53  1  0
 23 54  1  0
 24 55  1  0
 27 56  1  0
 28 57  1  0
 29 58  1  0
 30 59  1  0
 33 60  1  0
M  END
$$$$
