
     RDKit          3D

 24 25  0  0  0  0  0  0  0  0999 V2000
    2.6997    0.8039    0.3475 C   0  0  0  0  0  0  0  0  0  0  0  0
    1.3912    0.3745   -0.3125 C   0  0  0  0  0  0  0  0  0  0  0  0
    1.1647   -1.1470   -0.1383 C   0  0  0  0  0  0  0  0  0  0  0  0
   -0.2212   -1.6165   -0.6123 C   0  0  0  0  0  0  0  0  0  0  0  0
   -1.2736   -0.7480    0.0427 C   0  0  0  0  0  0  0  0  0  0  0  0
   -2.7121   -0.9179   -0.3207 C   0  0  0  0  0  0  0  0  0  0  0  0
   -3.2641   -1.9501   -0.6554 O   0  0  0  0  0  0  0  0  0  0  0  0
   -3.3331    0.2837   -0.1223 O   0  0  0  0  0  0  0  0  0  0  0  0
   -2.3875    1.2572    0.0419 C   0  0  0  0  0  0  0  0  0  0  0  0
   -2.6077    2.4018    0.3936 O   0  0  0  0  0  0  0  0  0  0  0  0
   -1.0740    0.6868   -0.3821 C   0  0  0  0  0  0  0  0  0  0  0  0
    0.2099    1.2170    0.2217 C   0  0  0  0  0  0  0  0  0  0  0  0
    3.5448    0.2420   -0.0638 H   0  0  0  0  0  0  0  0  0  0  0  0
    2.8896    1.8687    0.1761 H   0  0  0  0  0  0  0  0  0  0  0  0
    2.6737    0.6342    1.4291 H   0  0  0  0  0  0  0  0  0  0  0  0
    1.4807    0.5717   -1.3897 H   0  0  0  0  0  0  0  0  0  0  0  0
    1.2771   -1.4089    0.9221 H   0  0  0  0  0  0  0  0  0  0  0  0
    1.9394   -1.7014   -0.6814 H   0  0  0  0  0  0  0  0  0  0  0  0
   -0.3716   -2.6689   -0.3466 H   0  0  0  0  0  0  0  0  0  0  0  0
   -0.2877   -1.5552   -1.7054 H   0  0  0  0  0  0  0  0  0  0  0  0
   -1.2175   -0.8617    1.1353 H   0  0  0  0  0  0  0  0  0  0  0  0
   -1.0353    0.7872   -1.4768 H   0  0  0  0  0  0  0  0  0  0  0  0
    0.3456    2.2718   -0.0455 H   0  0  0  0  0  0  0  0  0  0  0  0
    0.1690    1.1751    1.3176 H   0  0  0  0  0  0  0  0  0  0  0  0
  1  2  1  0
  2  3  1  0
  3  4  1  0
  4  5  1  0
  5  6  1  0
  6  7  2  0
  6  8  1  0
  8  9  1  0
  9 10  2  0
  9 11  1  0
 11 12  1  0
 12  2  1  0
 11  5  1  0
  1 13  1  0
  1 14  1  0
  1 15  1  0
  2 16  1  0
  3 17  1  0
  3 18  1  0
  4 19  1  0
  4 20  1  0
  5 21  1  0
 11 22  1  0
 12 23  1  0
 12 24  1  0
M  END
$$$$
