
     RDKit          3D

 54 58  0  0  0  0  0  0  0  0999 V2000
  -10.0280    3.5408    1.3529 N   0  0  0  0  0  0  0  0  0  0  0  0
   -9.0275    3.1025    0.9638 C   0  0  0  0  0  0  0  0  0  0  0  0
   -7.8152    2.5394    0.4804 C   0  0  0  0  0  0  0  0  0  0  0  0
   -6.5904    3.1536    0.3279 C   0  0  0  0  0  0  0  0  0  0  0  0
   -5.6871    2.1891   -0.2019 C   0  0  0  0  0  0  0  0  0  0  0  0
   -4.3285    2.2218   -0.5734 C   0  0  0  0  0  0  0  0  0  0  0  0
   -3.7139    1.0598   -1.0760 C   0  0  0  0  0  0  0  0  0  0  0  0
   -2.2589    1.0900   -1.5012 C   0  0  0  0  0  0  0  0  0  0  0  0
   -1.4175    0.1022   -0.8006 N   0  0  0  0  0  0  0  0  0  0  0  0
   -1.3561    0.3722    0.6490 C   0  0  0  0  0  0  0  0  0  0  0  0
   -0.1363   -0.2733    1.2995 C   0  0  0  0  0  0  0  0  0  0  0  0
    1.1606    0.3398    0.7436 C   0  0  0  0  0  0  0  0  0  0  0  0
    2.2355   -0.6463    0.8891 N   0  0  0  0  0  0  0  0  0  0  0  0
    3.5526   -0.2078    0.7743 C   0  0  0  0  0  0  0  0  0  0  0  0
    3.8464    1.1019    0.9468 N   0  0  0  0  0  0  0  0  0  0  0  0
    5.1184    1.5092    0.8153 C   0  0  0  0  0  0  0  0  0  0  0  0
    6.1845    0.7669    0.5084 N   0  0  0  0  0  0  0  0  0  0  0  0
    5.8678   -0.5279    0.3496 C   0  0  0  0  0  0  0  0  0  0  0  0
    7.0675   -1.6666   -0.0578 S   0  0  0  0  0  0  0  0  0  0  0  0
    5.9411   -2.9558   -0.0781 C   0  0  0  0  0  0  0  0  0  0  0  0
    6.3871   -4.3464   -0.4313 C   0  0  0  0  0  0  0  0  0  0  0  0
    6.9012   -5.1443    0.7541 C   0  0  0  0  0  0  0  0  0  0  0  0
    5.9761   -5.2398    1.7370 F   0  0  0  0  0  0  0  0  0  0  0  0
    7.2025   -6.4053    0.3605 F   0  0  0  0  0  0  0  0  0  0  0  0
    8.0242   -4.6111    1.2795 F   0  0  0  0  0  0  0  0  0  0  0  0
    4.6698   -2.5131    0.2321 C   0  0  0  0  0  0  0  0  0  0  0  0
    4.6089   -1.0935    0.4688 C   0  0  0  0  0  0  0  0  0  0  0  0
    0.9970    0.7814   -0.7212 C   0  0  0  0  0  0  0  0  0  0  0  0
   -0.0937   -0.0193   -1.4282 C   0  0  0  0  0  0  0  0  0  0  0  0
   -4.4630   -0.1200   -1.2000 C   0  0  0  0  0  0  0  0  0  0  0  0
   -5.8128   -0.1742   -0.8372 C   0  0  0  0  0  0  0  0  0  0  0  0
   -6.3961    0.9961   -0.3454 C   0  0  0  0  0  0  0  0  0  0  0  0
   -7.6847    1.2383    0.0774 N   0  0  0  0  0  0  0  0  0  0  0  0
   -6.3636    4.1850    0.5634 H   0  0  0  0  0  0  0  0  0  0  0  0
   -3.7647    3.1449   -0.4702 H   0  0  0  0  0  0  0  0  0  0  0  0
   -1.8443    2.1002   -1.3757 H   0  0  0  0  0  0  0  0  0  0  0  0
   -2.2528    0.8885   -2.5814 H   0  0  0  0  0  0  0  0  0  0  0  0
   -2.2601   -0.0229    1.1294 H   0  0  0  0  0  0  0  0  0  0  0  0
   -1.3245    1.4527    0.8523 H   0  0  0  0  0  0  0  0  0  0  0  0
   -0.1677   -1.3601    1.1357 H   0  0  0  0  0  0  0  0  0  0  0  0
   -0.1714   -0.1309    2.3880 H   0  0  0  0  0  0  0  0  0  0  0  0
    1.3893    1.2268    1.3507 H   0  0  0  0  0  0  0  0  0  0  0  0
    2.0636   -1.5421    0.4482 H   0  0  0  0  0  0  0  0  0  0  0  0
    5.2986    2.5690    0.9701 H   0  0  0  0  0  0  0  0  0  0  0  0
    7.1714   -4.3033   -1.1989 H   0  0  0  0  0  0  0  0  0  0  0  0
    5.5453   -4.8830   -0.8856 H   0  0  0  0  0  0  0  0  0  0  0  0
    3.8088   -3.1688    0.2802 H   0  0  0  0  0  0  0  0  0  0  0  0
    1.9357    0.6946   -1.2813 H   0  0  0  0  0  0  0  0  0  0  0  0
    0.7258    1.8458   -0.7463 H   0  0  0  0  0  0  0  0  0  0  0  0
   -0.1238    0.2566   -2.4901 H   0  0  0  0  0  0  0  0  0  0  0  0
    0.1844   -1.0815   -1.4184 H   0  0  0  0  0  0  0  0  0  0  0  0
   -3.9825   -1.0205   -1.5796 H   0  0  0  0  0  0  0  0  0  0  0  0
   -6.3756   -1.0964   -0.9338 H   0  0  0  0  0  0  0  0  0  0  0  0
   -8.4235    0.5488    0.0854 H   0  0  0  0  0  0  0  0  0  0  0  0
  1  2  3  0
  2  3  1  0
  3  4  2  0
  4  5  1  0
  5  6  2  0
  6  7  1  0
  7  8  1  0
  8  9  1  0
  9 10  1  0
 10 11  1  0
 11 12  1  0
 12 13  1  0
 13 14  1  0
 14 15  2  0
 15 16  1  0
 16 17  2  0
 17 18  1  0
 18 19  1  0
 19 20  1  0
 20 21  1  0
 21 22  1  0
 22 23  1  0
 22 24  1  0
 22 25  1  0
 20 26  2  0
 26 27  1  0
 12 28  1  0
 28 29  1  0
  7 30  2  0
 30 31  1  0
 31 32  2  0
 32 33  1  0
 33  3  1  0
 32  5  1  0
 29  9  1  0
 27 14  1  0
 27 18  2  0
  4 34  1  0
  6 35  1  0
  8 36  1  0
  8 37  1  0
 10 38  1  0
 10 39  1  0
 11 40  1  0
 11 41  1  0
 12 42  1  0
 13 43  1  0
 16 44  1  0
 21 45  1  0
 21 46  1  0
 26 47  1  0
 28 48  1  0
 28 49  1  0
 29 50  1  0
 29 51  1  0
 30 52  1  0
 31 53  1  0
 33 54  1  0
M  END
$$$$
