
     RDKit          3D

 64 67  0  0  0  0  0  0  0  0999 V2000
    6.9439    0.1881    3.1155 C   0  0  0  0  0  0  0  0  0  0  0  0
    6.0641    1.3432    2.6686 C   0  0  0  0  0  0  0  0  0  0  0  0
    5.4728    1.1293    1.2841 C   0  0  0  0  0  0  0  0  0  0  0  0
    5.7577    0.1562    0.5947 O   0  0  0  0  0  0  0  0  0  0  0  0
    4.6067    2.1575    0.9436 N   0  0  0  0  0  0  0  0  0  0  0  0
    3.8725    2.2997   -0.2531 C   0  0  0  0  0  0  0  0  0  0  0  0
    2.9914    3.3869   -0.3345 C   0  0  0  0  0  0  0  0  0  0  0  0
    2.2302    3.6077   -1.4867 C   0  0  0  0  0  0  0  0  0  0  0  0
    2.3349    2.7346   -2.5679 C   0  0  0  0  0  0  0  0  0  0  0  0
    3.1896    1.6394   -2.4834 C   0  0  0  0  0  0  0  0  0  0  0  0
    3.2922    0.8225   -3.5882 O   0  0  0  0  0  0  0  0  0  0  0  0
    3.0423   -0.5232   -3.3519 C   0  0  0  0  0  0  0  0  0  0  0  0
    1.9192   -0.8368   -2.6642 N   0  0  0  0  0  0  0  0  0  0  0  0
    1.6668   -2.1349   -2.4561 C   0  0  0  0  0  0  0  0  0  0  0  0
    0.5388   -2.5555   -1.7699 N   0  0  0  0  0  0  0  0  0  0  0  0
   -0.5693   -1.9119   -1.1978 C   0  0  0  0  0  0  0  0  0  0  0  0
   -0.7626   -0.5292   -1.2276 C   0  0  0  0  0  0  0  0  0  0  0  0
   -1.9013    0.0564   -0.6578 C   0  0  0  0  0  0  0  0  0  0  0  0
   -2.8762   -0.7157   -0.0187 C   0  0  0  0  0  0  0  0  0  0  0  0
   -4.0326   -0.1786    0.5740 N   0  0  0  0  0  0  0  0  0  0  0  0
   -4.4902    1.1435    0.0954 C   0  0  0  0  0  0  0  0  0  0  0  0
   -5.8733    1.4795    0.6994 C   0  0  0  0  0  0  0  0  0  0  0  0
   -5.8497    1.4764    2.1792 N   0  0  0  0  0  0  0  0  0  0  0  0
   -7.1799    1.7648    2.7109 C   0  0  0  0  0  0  0  0  0  0  0  0
   -5.3730    0.1526    2.6495 C   0  0  0  0  0  0  0  0  0  0  0  0
   -3.9991   -0.2475    2.0566 C   0  0  0  0  0  0  0  0  0  0  0  0
   -2.6817   -2.1058    0.0149 C   0  0  0  0  0  0  0  0  0  0  0  0
   -1.5586   -2.7033   -0.5734 C   0  0  0  0  0  0  0  0  0  0  0  0
   -1.3186   -4.0615   -0.5897 O   0  0  0  0  0  0  0  0  0  0  0  0
   -2.4192   -4.9064   -0.2832 C   0  0  0  0  0  0  0  0  0  0  0  0
    2.4708   -3.1182   -2.9047 N   0  0  0  0  0  0  0  0  0  0  0  0
    3.5678   -2.7556   -3.6099 C   0  0  0  0  0  0  0  0  0  0  0  0
    3.9061   -1.4543   -3.8793 C   0  0  0  0  0  0  0  0  0  0  0  0
    5.3056   -1.0651   -4.7884 Cl  0  0  0  0  0  0  0  0  0  0  0  0
    3.9749    1.4329   -1.3419 C   0  0  0  0  0  0  0  0  0  0  0  0
    6.3837   -0.7553    3.1258 H   0  0  0  0  0  0  0  0  0  0  0  0
    7.8018    0.0610    2.4423 H   0  0  0  0  0  0  0  0  0  0  0  0
    7.3275    0.3750    4.1254 H   0  0  0  0  0  0  0  0  0  0  0  0
    6.6567    2.2657    2.6510 H   0  0  0  0  0  0  0  0  0  0  0  0
    5.2441    1.4731    3.3859 H   0  0  0  0  0  0  0  0  0  0  0  0
    4.4384    2.8641    1.6517 H   0  0  0  0  0  0  0  0  0  0  0  0
    2.8803    4.0789    0.4976 H   0  0  0  0  0  0  0  0  0  0  0  0
    1.5502    4.4567   -1.5376 H   0  0  0  0  0  0  0  0  0  0  0  0
    1.7469    2.9008   -3.4656 H   0  0  0  0  0  0  0  0  0  0  0  0
    0.5296   -3.5646   -1.6726 H   0  0  0  0  0  0  0  0  0  0  0  0
   -0.0371    0.1288   -1.6964 H   0  0  0  0  0  0  0  0  0  0  0  0
   -1.9857    1.1371   -0.7110 H   0  0  0  0  0  0  0  0  0  0  0  0
   -3.7811    1.9321    0.3822 H   0  0  0  0  0  0  0  0  0  0  0  0
   -4.5808    1.1373   -0.9974 H   0  0  0  0  0  0  0  0  0  0  0  0
   -6.1727    2.4710    0.3429 H   0  0  0  0  0  0  0  0  0  0  0  0
   -6.6112    0.7568    0.3275 H   0  0  0  0  0  0  0  0  0  0  0  0
   -7.1589    1.7881    3.8053 H   0  0  0  0  0  0  0  0  0  0  0  0
   -7.9229    1.0239    2.3924 H   0  0  0  0  0  0  0  0  0  0  0  0
   -7.5191    2.7540    2.3796 H   0  0  0  0  0  0  0  0  0  0  0  0
   -5.2800    0.1677    3.7434 H   0  0  0  0  0  0  0  0  0  0  0  0
   -6.1046   -0.6266    2.3927 H   0  0  0  0  0  0  0  0  0  0  0  0
   -3.2220    0.4262    2.4445 H   0  0  0  0  0  0  0  0  0  0  0  0
   -3.7646   -1.2619    2.4045 H   0  0  0  0  0  0  0  0  0  0  0  0
   -3.4450   -2.7088    0.4956 H   0  0  0  0  0  0  0  0  0  0  0  0
   -2.6545   -4.8610    0.7849 H   0  0  0  0  0  0  0  0  0  0  0  0
   -2.1265   -5.9368   -0.5210 H   0  0  0  0  0  0  0  0  0  0  0  0
   -3.2952   -4.6651   -0.8943 H   0  0  0  0  0  0  0  0  0  0  0  0
    4.1805   -3.5812   -3.9596 H   0  0  0  0  0  0  0  0  0  0  0  0
    4.6591    0.5953   -1.3274 H   0  0  0  0  0  0  0  0  0  0  0  0
  1  2  1  0
  2  3  1  0
  3  4  2  0
  3  5  1  0
  5  6  1  0
  6  7  2  0
  7  8  1  0
  8  9  2  0
  9 10  1  0
 10 11  1  0
 11 12  1  0
 12 13  2  0
 13 14  1  0
 14 15  1  0
 15 16  1  0
 16 17  2  0
 17 18  1  0
 18 19  2  0
 19 20  1  0
 20 21  1  0
 21 22  1  0
 22 23  1  0
 23 24  1  0
 23 25  1  0
 25 26  1  0
 19 27  1  0
 27 28  2  0
 28 29  1  0
 29 30  1  0
 14 31  2  0
 31 32  1  0
 32 33  2  0
 33 34  1  0
 10 35  2  0
 35  6  1  0
 33 12  1  0
 28 16  1  0
 26 20  1  0
  1 36  1  0
  1 37  1  0
  1 38  1  0
  2 39  1  0
  2 40  1  0
  5 41  1  0
  7 42  1  0
  8 43  1  0
  9 44  1  0
 15 45  1  0
 17 46  1  0
 18 47  1  0
 21 48  1  0
 21 49  1  0
 22 50  1  0
 22 51  1  0
 24 52  1  0
 24 53  1  0
 24 54  1  0
 25 55  1  0
 25 56  1  0
 26 57  1  0
 26 58  1  0
 27 59  1  0
 30 60  1  0
 30 61  1  0
 30 62  1  0
 32 63  1  0
 35 64  1  0
M  END
$$$$
