
     RDKit          3D

 41 43  0  0  0  0  0  0  0  0999 V2000
   -2.8970   -0.9242    2.1033 O   0  0  0  0  0  0  0  0  0  0  0  0
   -3.3845   -0.7755    0.9895 C   0  0  0  0  0  0  0  0  0  0  0  0
   -2.7678   -0.2487   -0.1301 N   0  0  0  0  0  0  0  0  0  0  0  0
   -1.4718    0.2798   -0.2460 C   0  0  0  0  0  0  0  0  0  0  0  0
   -1.0545    0.6719   -1.5257 C   0  0  0  0  0  0  0  0  0  0  0  0
    0.2194    1.2086   -1.7280 C   0  0  0  0  0  0  0  0  0  0  0  0
    1.0743    1.3723   -0.6364 C   0  0  0  0  0  0  0  0  0  0  0  0
    2.6972    2.0404   -0.8912 S   0  0  0  0  0  6  0  0  0  0  0  0
    2.7004    3.3769   -0.3391 O   0  0  0  0  0  0  0  0  0  0  0  0
    3.0809    1.7864   -2.2656 O   0  0  0  0  0  0  0  0  0  0  0  0
    3.6962    1.0575    0.0832 N   0  0  0  0  0  0  0  0  0  0  0  0
    3.7905   -0.3849   -0.3226 C   0  0  0  0  0  0  0  0  0  0  0  0
    5.1499   -0.6946   -0.9529 C   0  0  0  0  0  0  0  0  0  0  0  0
    6.2447   -0.4711   -0.0528 O   0  0  0  0  0  0  0  0  0  0  0  0
    6.0153    0.6094    0.8640 C   0  0  0  0  0  0  0  0  0  0  0  0
    5.0454    1.6641    0.3288 C   0  0  0  0  0  0  0  0  0  0  0  0
    0.6714    0.9922    0.6451 C   0  0  0  0  0  0  0  0  0  0  0  0
   -0.5993    0.4389    0.8342 C   0  0  0  0  0  0  0  0  0  0  0  0
   -4.7982   -1.2056    0.7233 C   0  0  0  0  0  0  0  0  0  0  0  0
   -5.5589   -1.7700    1.7400 C   0  0  0  0  0  0  0  0  0  0  0  0
   -6.8632   -2.1549    1.4456 C   0  0  0  0  0  0  0  0  0  0  0  0
   -7.3616   -1.9540    0.1613 C   0  0  0  0  0  0  0  0  0  0  0  0
   -6.5318   -1.3755   -0.7884 C   0  0  0  0  0  0  0  0  0  0  0  0
   -5.2587   -0.9947   -0.5455 N   0  0  0  0  0  0  0  0  0  0  0  0
   -3.3571   -0.2484   -0.9598 H   0  0  0  0  0  0  0  0  0  0  0  0
   -1.7153    0.5606   -2.3826 H   0  0  0  0  0  0  0  0  0  0  0  0
    0.5305    1.5009   -2.7282 H   0  0  0  0  0  0  0  0  0  0  0  0
    2.9889   -0.6612   -1.0139 H   0  0  0  0  0  0  0  0  0  0  0  0
    3.6527   -0.9813    0.5871 H   0  0  0  0  0  0  0  0  0  0  0  0
    5.1910   -1.7439   -1.2600 H   0  0  0  0  0  0  0  0  0  0  0  0
    5.3146   -0.0843   -1.8469 H   0  0  0  0  0  0  0  0  0  0  0  0
    5.6365    0.1794    1.7986 H   0  0  0  0  0  0  0  0  0  0  0  0
    6.9857    1.0650    1.0840 H   0  0  0  0  0  0  0  0  0  0  0  0
    5.4381    2.0807   -0.6047 H   0  0  0  0  0  0  0  0  0  0  0  0
    4.9412    2.4687    1.0621 H   0  0  0  0  0  0  0  0  0  0  0  0
    1.3326    1.1245    1.4992 H   0  0  0  0  0  0  0  0  0  0  0  0
   -0.8874    0.1551    1.8423 H   0  0  0  0  0  0  0  0  0  0  0  0
   -5.1466   -1.9085    2.7338 H   0  0  0  0  0  0  0  0  0  0  0  0
   -7.4873   -2.6030    2.2144 H   0  0  0  0  0  0  0  0  0  0  0  0
   -8.3755   -2.2431   -0.0946 H   0  0  0  0  0  0  0  0  0  0  0  0
   -6.8810   -1.2057   -1.8037 H   0  0  0  0  0  0  0  0  0  0  0  0
  1  2  2  0
  2  3  1  0
  3  4  1  0
  4  5  2  0
  5  6  1  0
  6  7  2  0
  7  8  1  0
  8  9  2  0
  8 10  2  0
  8 11  1  0
 11 12  1  0
 12 13  1  0
 13 14  1  0
 14 15  1  0
 15 16  1  0
  7 17  1  0
 17 18  2  0
  2 19  1  0
 19 20  2  0
 20 21  1  0
 21 22  2  0
 22 23  1  0
 23 24  2  0
 18  4  1  0
 24 19  1  0
 16 11  1  0
  3 25  1  0
  5 26  1  0
  6 27  1  0
 12 28  1  0
 12 29  1  0
 13 30  1  0
 13 31  1  0
 15 32  1  0
 15 33  1  0
 16 34  1  0
 16 35  1  0
 17 36  1  0
 18 37  1  0
 20 38  1  0
 21 39  1  0
 22 40  1  0
 23 41  1  0
M  END
$$$$
