
     RDKit          3D

 47 49  0  0  0  0  0  0  0  0999 V2000
   -2.9586   -2.9040   -1.5574 C   0  0  0  0  0  0  0  0  0  0  0  0
   -1.6865   -2.2532   -1.0740 C   0  0  0  0  0  0  0  0  0  0  0  0
   -0.6141   -2.8324   -1.2495 O   0  0  0  0  0  0  0  0  0  0  0  0
   -1.7827   -1.0121   -0.4409 N   0  0  0  0  0  0  0  0  0  0  0  0
   -3.0734   -0.3329   -0.1727 C   0  0  0  0  0  0  0  0  0  0  0  0
   -3.2520    0.9332   -1.0255 C   0  0  0  0  0  0  0  0  0  0  0  0
   -4.2044    1.9221   -0.3623 C   0  0  0  0  0  0  0  0  0  0  0  0
   -5.2033    1.2189    0.3678 O   0  0  0  0  0  0  0  0  0  0  0  0
   -4.6855    0.5679    1.5298 C   0  0  0  0  0  0  0  0  0  0  0  0
   -3.2980   -0.0352    1.3131 C   0  0  0  0  0  0  0  0  0  0  0  0
   -0.5461   -0.3247   -0.0267 C   0  0  0  0  0  0  0  0  0  0  0  0
    0.2777   -1.0455    1.0471 C   0  0  0  0  0  0  0  0  0  0  0  0
    1.6183   -0.3203    0.9864 C   0  0  0  0  0  0  0  0  0  0  0  0
    1.7349    0.1582   -0.3859 N   0  0  0  0  0  0  0  0  0  0  0  0
    2.8693    0.5981   -1.0356 C   0  0  0  0  0  0  0  0  0  0  0  0
    2.9055    0.8537   -2.2365 O   0  0  0  0  0  0  0  0  0  0  0  0
    4.1203    0.7286   -0.2701 C   0  0  0  0  0  0  0  0  0  0  0  0
    5.2355   -0.0148   -0.6770 C   0  0  0  0  0  0  0  0  0  0  0  0
    6.4398    0.1146    0.0166 C   0  0  0  0  0  0  0  0  0  0  0  0
    6.5208    0.9928    1.0948 C   0  0  0  0  0  0  0  0  0  0  0  0
    7.6779    1.1146    1.7574 F   0  0  0  0  0  0  0  0  0  0  0  0
    5.4250    1.7504    1.4912 C   0  0  0  0  0  0  0  0  0  0  0  0
    4.2263    1.6190    0.7981 C   0  0  0  0  0  0  0  0  0  0  0  0
    3.1827    2.3722    1.1742 F   0  0  0  0  0  0  0  0  0  0  0  0
    0.4947   -0.0461   -1.1219 C   0  0  0  0  0  0  0  0  0  0  0  0
   -3.4890   -2.2429   -2.2475 H   0  0  0  0  0  0  0  0  0  0  0  0
   -3.5902   -3.1770   -0.7081 H   0  0  0  0  0  0  0  0  0  0  0  0
   -2.7093   -3.8207   -2.1016 H   0  0  0  0  0  0  0  0  0  0  0  0
   -3.8867   -1.0074   -0.4548 H   0  0  0  0  0  0  0  0  0  0  0  0
   -2.3056    1.4406   -1.2412 H   0  0  0  0  0  0  0  0  0  0  0  0
   -3.6553    0.6316   -2.0008 H   0  0  0  0  0  0  0  0  0  0  0  0
   -4.6974    2.5360   -1.1228 H   0  0  0  0  0  0  0  0  0  0  0  0
   -3.6690    2.6031    0.3104 H   0  0  0  0  0  0  0  0  0  0  0  0
   -4.6698    1.2811    2.3614 H   0  0  0  0  0  0  0  0  0  0  0  0
   -5.3979   -0.2206    1.7946 H   0  0  0  0  0  0  0  0  0  0  0  0
   -3.1777   -0.9357    1.9267 H   0  0  0  0  0  0  0  0  0  0  0  0
   -2.5518    0.6797    1.6793 H   0  0  0  0  0  0  0  0  0  0  0  0
   -0.8235    0.6533    0.3870 H   0  0  0  0  0  0  0  0  0  0  0  0
   -0.1810   -0.9886    2.0390 H   0  0  0  0  0  0  0  0  0  0  0  0
    0.4246   -2.1048    0.8152 H   0  0  0  0  0  0  0  0  0  0  0  0
    1.6114    0.5499    1.6502 H   0  0  0  0  0  0  0  0  0  0  0  0
    2.4582   -0.9690    1.2508 H   0  0  0  0  0  0  0  0  0  0  0  0
    5.1631   -0.6849   -1.5313 H   0  0  0  0  0  0  0  0  0  0  0  0
    7.3150   -0.4558   -0.2807 H   0  0  0  0  0  0  0  0  0  0  0  0
    5.5073    2.4405    2.3229 H   0  0  0  0  0  0  0  0  0  0  0  0
    0.2495    0.8446   -1.7099 H   0  0  0  0  0  0  0  0  0  0  0  0
    0.6508   -0.8761   -1.8160 H   0  0  0  0  0  0  0  0  0  0  0  0
  1  2  1  0
  2  3  2  0
  2  4  1  0
  4  5  1  0
  5  6  1  0
  6  7  1  0
  7  8  1  0
  8  9  1  0
  9 10  1  0
  4 11  1  0
 11 12  1  0
 12 13  1  0
 13 14  1  0
 14 15  1  0
 15 16  2  0
 15 17  1  0
 17 18  2  0
 18 19  1  0
 19 20  2  0
 20 21  1  0
 20 22  1  0
 22 23  2  0
 23 24  1  0
 14 25  1  0
 10  5  1  0
 25 11  1  0
 23 17  1  0
  1 26  1  0
  1 27  1  0
  1 28  1  0
  5 29  1  0
  6 30  1  0
  6 31  1  0
  7 32  1  0
  7 33  1  0
  9 34  1  0
  9 35  1  0
 10 36  1  0
 10 37  1  0
 11 38  1  0
 12 39  1  0
 12 40  1  0
 13 41  1  0
 13 42  1  0
 18 43  1  0
 19 44  1  0
 22 45  1  0
 25 46  1  0
 25 47  1  0
M  END
$$$$
