
     RDKit          3D

 68 71  0  0  0  0  0  0  0  0999 V2000
    2.3347   -1.7514    1.1909 C   0  0  0  0  0  0  0  0  0  0  0  0
    2.4116   -1.6661   -0.2606 N   0  0  0  0  0  0  0  0  0  0  0  0
    1.2981   -2.2539   -1.0191 C   0  0  0  0  0  0  0  0  0  0  0  0
    0.0693   -1.3206   -1.1131 C   0  0  0  0  0  0  0  0  0  0  0  0
   -0.7855   -1.3234    0.0978 N   0  0  0  0  0  0  0  0  0  0  0  0
   -1.7242   -2.4643    0.2377 C   0  0  0  0  0  0  0  0  0  0  0  0
   -2.0547   -3.3007   -1.0065 C   0  0  0  0  0  0  0  0  0  0  0  0
   -3.1088   -4.3616   -0.6764 C   0  0  0  0  0  0  0  0  0  0  0  0
   -3.1529   -4.7021    0.7099 O   0  0  0  0  0  0  0  0  0  0  0  0
   -1.8567   -4.7780    1.2895 C   0  0  0  0  0  0  0  0  0  0  0  0
   -1.2255   -3.3907    1.3635 C   0  0  0  0  0  0  0  0  0  0  0  0
   -1.3978    0.0129    0.3134 C   0  0  0  0  0  0  0  0  0  0  0  0
   -1.8852    0.1950    1.7709 C   0  0  0  0  0  0  0  0  0  0  0  0
   -2.4825    1.5898    1.9810 C   0  0  0  0  0  0  0  0  0  0  0  0
   -3.5721    1.8890    0.9486 C   0  0  0  0  0  0  0  0  0  0  0  0
   -3.0532    1.7416   -0.4092 N   0  0  0  0  0  0  0  0  0  0  0  0
   -2.3818    2.7896   -1.0487 C   0  0  0  0  0  0  0  0  0  0  0  0
   -1.2667    2.6411   -1.5427 O   0  0  0  0  0  0  0  0  0  0  0  0
   -3.0595    4.0971   -1.2934 C   0  0  0  0  0  0  0  0  0  0  0  0
   -4.4657    4.4709   -0.9156 C   0  0  0  0  0  0  0  0  0  0  0  0
   -3.3000    5.1071   -0.2032 C   0  0  0  0  0  0  0  0  0  0  0  0
   -2.5305    0.3976   -0.6745 C   0  0  0  0  0  0  0  0  0  0  0  0
    3.2370   -0.7690   -0.9346 C   0  0  0  0  0  0  0  0  0  0  0  0
    3.1685   -0.6055   -2.1537 O   0  0  0  0  0  0  0  0  0  0  0  0
    4.2420    0.0020   -0.1041 C   0  0  0  0  0  0  0  0  0  0  0  0
    5.0213    0.9840   -0.9704 C   0  0  0  0  0  0  0  0  0  0  0  0
    5.9617    1.7572   -0.1845 N   0  0  0  0  0  0  0  0  0  0  0  0
    5.7290    2.9760    0.3865 C   0  0  0  0  0  0  0  0  0  0  0  0
    6.9013    3.2917    1.0329 C   0  0  0  0  0  0  0  0  0  0  0  0
    7.8319    2.2987    0.8657 N   0  0  0  0  0  0  0  0  0  0  0  0
    7.2416    1.3930    0.1184 C   0  0  0  0  0  0  0  0  0  0  0  0
    3.3022   -1.5499    1.6546 H   0  0  0  0  0  0  0  0  0  0  0  0
    1.6115   -1.0176    1.5562 H   0  0  0  0  0  0  0  0  0  0  0  0
    2.0310   -2.7604    1.4803 H   0  0  0  0  0  0  0  0  0  0  0  0
    1.0521   -3.2298   -0.5900 H   0  0  0  0  0  0  0  0  0  0  0  0
    1.6479   -2.4543   -2.0393 H   0  0  0  0  0  0  0  0  0  0  0  0
   -0.5139   -1.5618   -2.0077 H   0  0  0  0  0  0  0  0  0  0  0  0
    0.4547   -0.3094   -1.2989 H   0  0  0  0  0  0  0  0  0  0  0  0
   -2.6947   -2.0854    0.5802 H   0  0  0  0  0  0  0  0  0  0  0  0
   -1.1555   -3.8122   -1.3705 H   0  0  0  0  0  0  0  0  0  0  0  0
   -2.4251   -2.6803   -1.8303 H   0  0  0  0  0  0  0  0  0  0  0  0
   -4.1050   -3.9905   -0.9415 H   0  0  0  0  0  0  0  0  0  0  0  0
   -2.9378   -5.2705   -1.2645 H   0  0  0  0  0  0  0  0  0  0  0  0
   -1.9487   -5.2024    2.2949 H   0  0  0  0  0  0  0  0  0  0  0  0
   -1.2343   -5.4656    0.7038 H   0  0  0  0  0  0  0  0  0  0  0  0
   -1.4731   -2.9299    2.3288 H   0  0  0  0  0  0  0  0  0  0  0  0
   -0.1383   -3.5107    1.3586 H   0  0  0  0  0  0  0  0  0  0  0  0
   -0.5949    0.7559    0.2062 H   0  0  0  0  0  0  0  0  0  0  0  0
   -2.6502   -0.5439    2.0331 H   0  0  0  0  0  0  0  0  0  0  0  0
   -1.0499    0.0492    2.4667 H   0  0  0  0  0  0  0  0  0  0  0  0
   -1.6851    2.3393    1.9039 H   0  0  0  0  0  0  0  0  0  0  0  0
   -2.8990    1.6636    2.9916 H   0  0  0  0  0  0  0  0  0  0  0  0
   -4.4096    1.1908    1.0626 H   0  0  0  0  0  0  0  0  0  0  0  0
   -3.9542    2.8884    1.1368 H   0  0  0  0  0  0  0  0  0  0  0  0
   -2.7320    4.5146   -2.2458 H   0  0  0  0  0  0  0  0  0  0  0  0
   -5.0230    5.0860   -1.6161 H   0  0  0  0  0  0  0  0  0  0  0  0
   -5.0936    3.7591   -0.3997 H   0  0  0  0  0  0  0  0  0  0  0  0
   -3.0734    6.1447   -0.4260 H   0  0  0  0  0  0  0  0  0  0  0  0
   -3.0893    4.8357    0.8224 H   0  0  0  0  0  0  0  0  0  0  0  0
   -2.1739    0.3471   -1.7099 H   0  0  0  0  0  0  0  0  0  0  0  0
   -3.3785   -0.2920   -0.5946 H   0  0  0  0  0  0  0  0  0  0  0  0
    4.9336   -0.7084    0.3631 H   0  0  0  0  0  0  0  0  0  0  0  0
    3.7108    0.5488    0.6832 H   0  0  0  0  0  0  0  0  0  0  0  0
    4.3504    1.6921   -1.4720 H   0  0  0  0  0  0  0  0  0  0  0  0
    5.5919    0.4641   -1.7495 H   0  0  0  0  0  0  0  0  0  0  0  0
    4.7888    3.5004    0.2911 H   0  0  0  0  0  0  0  0  0  0  0  0
    7.1247    4.1805    1.6085 H   0  0  0  0  0  0  0  0  0  0  0  0
    7.6888    0.4678   -0.2210 H   0  0  0  0  0  0  0  0  0  0  0  0
  1  2  1  0
  2  3  1  0
  3  4  1  0
  4  5  1  0
  5  6  1  0
  6  7  1  0
  7  8  1  0
  8  9  1  0
  9 10  1  0
 10 11  1  0
  5 12  1  0
 12 13  1  0
 13 14  1  0
 14 15  1  0
 15 16  1  0
 16 17  1  0
 17 18  2  0
 17 19  1  0
 19 20  1  0
 20 21  1  0
 16 22  1  0
  2 23  1  0
 23 24  2  0
 23 25  1  0
 25 26  1  0
 26 27  1  0
 27 28  1  0
 28 29  2  0
 29 30  1  0
 30 31  2  0
 11  6  1  0
 22 12  1  0
 31 27  1  0
 21 19  1  0
  1 32  1  0
  1 33  1  0
  1 34  1  0
  3 35  1  0
  3 36  1  0
  4 37  1  0
  4 38  1  0
  6 39  1  0
  7 40  1  0
  7 41  1  0
  8 42  1  0
  8 43  1  0
 10 44  1  0
 10 45  1  0
 11 46  1  0
 11 47  1  0
 12 48  1  0
 13 49  1  0
 13 50  1  0
 14 51  1  0
 14 52  1  0
 15 53  1  0
 15 54  1  0
 19 55  1  0
 20 56  1  0
 20 57  1  0
 21 58  1  0
 21 59  1  0
 22 60  1  0
 22 61  1  0
 25 62  1  0
 25 63  1  0
 26 64  1  0
 26 65  1  0
 28 66  1  0
 29 67  1  0
 31 68  1  0
M  END
$$$$
