
     RDKit          3D

 74 77  0  0  0  0  0  0  0  0999 V2000
   -4.4762   -2.5040   -0.9647 C   0  0  0  0  0  0  0  0  0  0  0  0
   -3.6728   -1.3611   -0.4037 C   0  0  0  0  0  0  0  0  0  0  0  0
   -2.2685   -1.5175   -0.3923 C   0  0  0  0  0  0  0  0  0  0  0  0
   -1.4080   -0.5240    0.0833 C   0  0  0  0  0  0  0  0  0  0  0  0
   -0.0119   -0.6569    0.1208 N   0  0  0  0  0  0  0  0  0  0  0  0
    0.8946   -1.6409   -0.2332 C   0  0  0  0  0  0  0  0  0  0  0  0
    0.5149   -2.7588   -0.8677 N   0  0  0  0  0  0  0  0  0  0  0  0
    1.4798   -3.6453   -1.1832 C   0  0  0  0  0  0  0  0  0  0  0  0
    2.8082   -3.4608   -0.8919 C   0  0  0  0  0  0  0  0  0  0  0  0
    3.9691   -4.6461   -1.3425 Cl  0  0  0  0  0  0  0  0  0  0  0  0
    3.1285   -2.2793   -0.2377 C   0  0  0  0  0  0  0  0  0  0  0  0
    4.4756   -2.0267    0.1172 N   0  0  0  0  0  0  0  0  0  0  0  0
    5.0016   -1.0150    0.9452 C   0  0  0  0  0  0  0  0  0  0  0  0
    4.3169   -0.6291    2.1110 C   0  0  0  0  0  0  0  0  0  0  0  0
    4.8302    0.3383    2.9823 C   0  0  0  0  0  0  0  0  0  0  0  0
    6.0515    0.9464    2.7110 C   0  0  0  0  0  0  0  0  0  0  0  0
    6.7520    0.5941    1.5613 C   0  0  0  0  0  0  0  0  0  0  0  0
    6.2220   -0.3660    0.6793 C   0  0  0  0  0  0  0  0  0  0  0  0
    7.1641   -0.6964   -0.7983 S   0  0  0  0  0  6  0  0  0  0  0  0
    6.5584   -1.8335   -1.4719 O   0  0  0  0  0  0  0  0  0  0  0  0
    8.5584   -0.7478   -0.3958 O   0  0  0  0  0  0  0  0  0  0  0  0
    6.9168    0.7671   -1.8186 C   0  0  0  0  0  0  0  0  0  0  0  0
    7.7138    0.6371   -3.1130 C   0  0  0  0  0  0  0  0  0  0  0  0
    5.4426    1.0103   -2.1202 C   0  0  0  0  0  0  0  0  0  0  0  0
    2.1730   -1.3808    0.0909 N   0  0  0  0  0  0  0  0  0  0  0  0
   -1.9736    0.6845    0.5335 C   0  0  0  0  0  0  0  0  0  0  0  0
   -1.0593    1.6208    0.9589 O   0  0  0  0  0  0  0  0  0  0  0  0
   -1.5006    2.9316    1.3239 C   0  0  0  0  0  0  0  0  0  0  0  0
   -0.3845    3.5387    2.1758 C   0  0  0  0  0  0  0  0  0  0  0  0
   -1.7191    3.7931    0.0799 C   0  0  0  0  0  0  0  0  0  0  0  0
   -3.3614    0.8531    0.5249 C   0  0  0  0  0  0  0  0  0  0  0  0
   -4.2353   -0.1543    0.0567 C   0  0  0  0  0  0  0  0  0  0  0  0
   -5.7301    0.1511    0.1134 C   0  0  0  0  0  0  0  0  0  0  0  0
   -6.4748   -0.6629    1.1926 C   0  0  0  0  0  0  0  0  0  0  0  0
   -7.8969   -1.0254    0.7642 C   0  0  0  0  0  0  0  0  0  0  0  0
   -8.5503    0.1238    0.1487 N   0  0  0  0  0  0  0  0  0  0  0  0
   -7.9113    0.5357   -1.1020 C   0  0  0  0  0  0  0  0  0  0  0  0
   -6.4456    0.1009   -1.2419 C   0  0  0  0  0  0  0  0  0  0  0  0
   -3.9314   -3.4523   -0.8713 H   0  0  0  0  0  0  0  0  0  0  0  0
   -5.4183   -2.6479   -0.4301 H   0  0  0  0  0  0  0  0  0  0  0  0
   -4.6784   -2.3357   -2.0297 H   0  0  0  0  0  0  0  0  0  0  0  0
   -1.8505   -2.4494   -0.7619 H   0  0  0  0  0  0  0  0  0  0  0  0
    0.4575    0.1232    0.5656 H   0  0  0  0  0  0  0  0  0  0  0  0
    1.1304   -4.5361   -1.6984 H   0  0  0  0  0  0  0  0  0  0  0  0
    5.1058   -2.3268   -0.6360 H   0  0  0  0  0  0  0  0  0  0  0  0
    3.3753   -1.1093    2.3707 H   0  0  0  0  0  0  0  0  0  0  0  0
    4.2734    0.6036    3.8786 H   0  0  0  0  0  0  0  0  0  0  0  0
    6.4575    1.6904    3.3940 H   0  0  0  0  0  0  0  0  0  0  0  0
    7.7115    1.0686    1.3573 H   0  0  0  0  0  0  0  0  0  0  0  0
    7.3220    1.6114   -1.2460 H   0  0  0  0  0  0  0  0  0  0  0  0
    8.7699    0.4211   -2.9071 H   0  0  0  0  0  0  0  0  0  0  0  0
    7.6648    1.5651   -3.6945 H   0  0  0  0  0  0  0  0  0  0  0  0
    7.3248   -0.1757   -3.7408 H   0  0  0  0  0  0  0  0  0  0  0  0
    4.9820    0.1443   -2.6068 H   0  0  0  0  0  0  0  0  0  0  0  0
    4.8809    1.2137   -1.2039 H   0  0  0  0  0  0  0  0  0  0  0  0
    5.3201    1.8749   -2.7793 H   0  0  0  0  0  0  0  0  0  0  0  0
   -2.4007    2.8930    1.9493 H   0  0  0  0  0  0  0  0  0  0  0  0
    0.5622    3.5712    1.6224 H   0  0  0  0  0  0  0  0  0  0  0  0
   -0.6361    4.5529    2.4985 H   0  0  0  0  0  0  0  0  0  0  0  0
   -0.2057    2.9250    3.0678 H   0  0  0  0  0  0  0  0  0  0  0  0
   -0.7914    3.8852   -0.4932 H   0  0  0  0  0  0  0  0  0  0  0  0
   -2.4583    3.3543   -0.5951 H   0  0  0  0  0  0  0  0  0  0  0  0
   -2.0584    4.7974    0.3537 H   0  0  0  0  0  0  0  0  0  0  0  0
   -3.7990    1.7801    0.8799 H   0  0  0  0  0  0  0  0  0  0  0  0
   -5.8244    1.2005    0.4327 H   0  0  0  0  0  0  0  0  0  0  0  0
   -6.5159   -0.0668    2.1145 H   0  0  0  0  0  0  0  0  0  0  0  0
   -5.9395   -1.5806    1.4661 H   0  0  0  0  0  0  0  0  0  0  0  0
   -8.4674   -1.3376    1.6465 H   0  0  0  0  0  0  0  0  0  0  0  0
   -7.8926   -1.8746    0.0722 H   0  0  0  0  0  0  0  0  0  0  0  0
   -9.5374   -0.0717   -0.0128 H   0  0  0  0  0  0  0  0  0  0  0  0
   -8.4770    0.1307   -1.9510 H   0  0  0  0  0  0  0  0  0  0  0  0
   -7.9798    1.6275   -1.1778 H   0  0  0  0  0  0  0  0  0  0  0  0
   -5.9376    0.7454   -1.9711 H   0  0  0  0  0  0  0  0  0  0  0  0
   -6.4299   -0.9087   -1.6639 H   0  0  0  0  0  0  0  0  0  0  0  0
  1  2  1  0
  2  3  2  0
  3  4  1  0
  4  5  1  0
  5  6  1  0
  6  7  2  0
  7  8  1  0
  8  9  2  0
  9 10  1  0
  9 11  1  0
 11 12  1  0
 12 13  1  0
 13 14  2  0
 14 15  1  0
 15 16  2  0
 16 17  1  0
 17 18  2  0
 18 19  1  0
 19 20  2  0
 19 21  2  0
 19 22  1  0
 22 23  1  0
 22 24  1  0
 11 25  2  0
  4 26  2  0
 26 27  1  0
 27 28  1  0
 28 29  1  0
 28 30  1  0
 26 31  1  0
 31 32  2  0
 32 33  1  0
 33 34  1  0
 34 35  1  0
 35 36  1  0
 36 37  1  0
 37 38  1  0
 32  2  1  0
 38 33  1  0
 25  6  1  0
 18 13  1  0
  1 39  1  0
  1 40  1  0
  1 41  1  0
  3 42  1  0
  5 43  1  0
  8 44  1  0
 12 45  1  0
 14 46  1  0
 15 47  1  0
 16 48  1  0
 17 49  1  0
 22 50  1  0
 23 51  1  0
 23 52  1  0
 23 53  1  0
 24 54  1  0
 24 55  1  0
 24 56  1  0
 28 57  1  0
 29 58  1  0
 29 59  1  0
 29 60  1  0
 30 61  1  0
 30 62  1  0
 30 63  1  0
 31 64  1  0
 33 65  1  0
 34 66  1  0
 34 67  1  0
 35 68  1  0
 35 69  1  0
 36 70  1  0
 37 71  1  0
 37 72  1  0
 38 73  1  0
 38 74  1  0
M  END
$$$$
