
     RDKit          3D

 59 62  0  0  0  0  0  0  0  0999 V2000
  -10.0732    1.9698    0.1461 C   0  0  0  0  0  0  0  0  0  0  0  0
   -9.2997    0.9748    0.8020 O   0  0  0  0  0  0  0  0  0  0  0  0
   -7.9992    0.8045    0.3960 C   0  0  0  0  0  0  0  0  0  0  0  0
   -7.3827    1.5490   -0.6180 C   0  0  0  0  0  0  0  0  0  0  0  0
   -6.0609    1.3360   -0.9881 C   0  0  0  0  0  0  0  0  0  0  0  0
   -5.5324    2.0848   -1.9650 N   0  0  0  0  0  0  0  0  0  0  0  0
   -4.2524    1.8550   -2.2902 C   0  0  0  0  0  0  0  0  0  0  0  0
   -3.4501    0.9496   -1.7299 N   0  0  0  0  0  0  0  0  0  0  0  0
   -4.0142    0.2023   -0.7610 C   0  0  0  0  0  0  0  0  0  0  0  0
   -3.2344   -0.7532   -0.1073 O   0  0  0  0  0  0  0  0  0  0  0  0
   -2.0849   -1.1447   -0.7484 C   0  0  0  0  0  0  0  0  0  0  0  0
   -2.1429   -2.0472   -1.8076 C   0  0  0  0  0  0  0  0  0  0  0  0
   -0.9589   -2.4697   -2.4057 C   0  0  0  0  0  0  0  0  0  0  0  0
    0.2743   -2.0027   -1.9354 C   0  0  0  0  0  0  0  0  0  0  0  0
    0.3363   -1.1157   -0.8570 C   0  0  0  0  0  0  0  0  0  0  0  0
    1.5391   -0.5938   -0.3335 N   0  0  0  0  0  0  0  0  0  0  0  0
    2.8371   -0.9860   -0.6448 C   0  0  0  0  0  0  0  0  0  0  0  0
    3.1263   -1.9360   -1.3587 O   0  0  0  0  0  0  0  0  0  0  0  0
    3.7469   -0.1410   -0.0309 N   0  0  0  0  0  0  0  0  0  0  0  0
    5.1187   -0.3083   -0.0599 C   0  0  0  0  0  0  0  0  0  0  0  0
    6.0311    0.6463    0.4554 C   0  0  0  0  0  0  0  0  0  0  0  0
    7.2780    0.1012    0.2469 C   0  0  0  0  0  0  0  0  0  0  0  0
    8.6969    0.5267    0.5183 C   0  0  0  0  0  0  0  0  0  0  0  0
    9.4553    0.6572   -0.8158 C   0  0  0  0  0  0  0  0  0  0  0  0
    9.3933   -0.5304    1.3962 C   0  0  0  0  0  0  0  0  0  0  0  0
    8.7442    1.8770    1.2465 C   0  0  0  0  0  0  0  0  0  0  0  0
    8.1630    2.8621    0.5213 F   0  0  0  0  0  0  0  0  0  0  0  0
    8.1036    1.8293    2.4387 F   0  0  0  0  0  0  0  0  0  0  0  0
   10.0170    2.2649    1.4946 F   0  0  0  0  0  0  0  0  0  0  0  0
    7.1180   -1.1104   -0.3544 O   0  0  0  0  0  0  0  0  0  0  0  0
    5.7782   -1.3652   -0.5375 N   0  0  0  0  0  0  0  0  0  0  0  0
   -0.8576   -0.6901   -0.2620 C   0  0  0  0  0  0  0  0  0  0  0  0
   -5.3338    0.3472   -0.3226 C   0  0  0  0  0  0  0  0  0  0  0  0
   -5.9407   -0.4166    0.7043 C   0  0  0  0  0  0  0  0  0  0  0  0
   -7.2693   -0.1923    1.0651 C   0  0  0  0  0  0  0  0  0  0  0  0
   -7.9373   -0.8801    2.0450 O   0  0  0  0  0  0  0  0  0  0  0  0
   -7.2426   -1.9217    2.7166 C   0  0  0  0  0  0  0  0  0  0  0  0
  -11.0718    1.9659    0.5937 H   0  0  0  0  0  0  0  0  0  0  0  0
  -10.1856    1.7439   -0.9194 H   0  0  0  0  0  0  0  0  0  0  0  0
   -9.6454    2.9663    0.2977 H   0  0  0  0  0  0  0  0  0  0  0  0
   -7.9224    2.3244   -1.1527 H   0  0  0  0  0  0  0  0  0  0  0  0
   -3.8305    2.4647   -3.0820 H   0  0  0  0  0  0  0  0  0  0  0  0
   -3.0980   -2.4153   -2.1694 H   0  0  0  0  0  0  0  0  0  0  0  0
   -0.9871   -3.1646   -3.2414 H   0  0  0  0  0  0  0  0  0  0  0  0
    1.1715   -2.3499   -2.4399 H   0  0  0  0  0  0  0  0  0  0  0  0
    1.4392    0.0285    0.4530 H   0  0  0  0  0  0  0  0  0  0  0  0
    3.4118    0.7334    0.3344 H   0  0  0  0  0  0  0  0  0  0  0  0
    5.8055    1.5988    0.9117 H   0  0  0  0  0  0  0  0  0  0  0  0
    9.4845   -0.2954   -1.3579 H   0  0  0  0  0  0  0  0  0  0  0  0
    8.9778    1.3922   -1.4746 H   0  0  0  0  0  0  0  0  0  0  0  0
   10.4916    0.9753   -0.6550 H   0  0  0  0  0  0  0  0  0  0  0  0
    8.8663   -0.6669    2.3481 H   0  0  0  0  0  0  0  0  0  0  0  0
    9.4288   -1.5078    0.9003 H   0  0  0  0  0  0  0  0  0  0  0  0
   10.4256   -0.2412    1.6235 H   0  0  0  0  0  0  0  0  0  0  0  0
   -0.8528   -0.0008    0.5764 H   0  0  0  0  0  0  0  0  0  0  0  0
   -5.3479   -1.1780    1.2015 H   0  0  0  0  0  0  0  0  0  0  0  0
   -6.3821   -1.5295    3.2685 H   0  0  0  0  0  0  0  0  0  0  0  0
   -6.9405   -2.7096    2.0186 H   0  0  0  0  0  0  0  0  0  0  0  0
   -7.9286   -2.3670    3.4436 H   0  0  0  0  0  0  0  0  0  0  0  0
  1  2  1  0
  2  3  1  0
  3  4  2  0
  4  5  1  0
  5  6  2  0
  6  7  1  0
  7  8  2  0
  8  9  1  0
  9 10  1  0
 10 11  1  0
 11 12  2  0
 12 13  1  0
 13 14  2  0
 14 15  1  0
 15 16  1  0
 16 17  1  0
 17 18  2  0
 17 19  1  0
 19 20  1  0
 20 21  1  0
 21 22  2  0
 22 23  1  0
 23 24  1  0
 23 25  1  0
 23 26  1  0
 26 27  1  0
 26 28  1  0
 26 29  1  0
 22 30  1  0
 30 31  1  0
 15 32  2  0
  9 33  2  0
 33 34  1  0
 34 35  2  0
 35 36  1  0
 36 37  1  0
 35  3  1  0
 33  5  1  0
 32 11  1  0
 31 20  2  0
  1 38  1  0
  1 39  1  0
  1 40  1  0
  4 41  1  0
  7 42  1  0
 12 43  1  0
 13 44  1  0
 14 45  1  0
 16 46  1  0
 19 47  1  0
 21 48  1  0
 24 49  1  0
 24 50  1  0
 24 51  1  0
 25 52  1  0
 25 53  1  0
 25 54  1  0
 32 55  1  0
 34 56  1  0
 37 57  1  0
 37 58  1  0
 37 59  1  0
M  END
$$$$
