
     RDKit          3D

 52 55  0  0  0  0  0  0  0  0999 V2000
    0.6918    0.0000    0.0000 Cl  0  0  0  0  0  0  0  0  0  0  0  0
   -6.5315   -2.0954    3.2833 C   0  0  0  0  0  0  0  0  0  0  0  0
   -5.6087   -1.4155    2.3656 N   0  0  0  0  0  0  0  0  0  0  0  0
   -5.9279   -0.5337    1.4000 C   0  0  0  0  0  0  0  0  0  0  0  0
   -4.7916   -0.1051    0.7393 C   0  0  0  0  0  0  0  0  0  0  0  0
   -4.6708    0.8410   -0.3641 C   0  0  0  0  0  0  0  0  0  0  0  0
   -4.1705    0.4804   -1.5975 C   0  0  0  0  0  0  0  0  0  0  0  0
   -4.0593    1.3869   -2.6419 C   0  0  0  0  0  0  0  0  0  0  0  0
   -4.4573    2.6772   -2.4441 N   0  0  0  0  0  0  0  0  0  0  0  0
   -4.9505    3.0690   -1.2563 C   0  0  0  0  0  0  0  0  0  0  0  0
   -5.0622    2.1540   -0.2038 C   0  0  0  0  0  0  0  0  0  0  0  0
   -3.7521   -0.7906    1.3726 C   0  0  0  0  0  0  0  0  0  0  0  0
   -2.3536   -0.6397    0.9900 C   0  0  0  0  0  0  0  0  0  0  0  0
   -1.6908    0.5650    1.0962 C   0  0  0  0  0  0  0  0  0  0  0  0
   -0.3622    0.6877    0.7265 C   0  0  0  0  0  0  0  0  0  0  0  0
    0.3363   -0.4079    0.2373 C   0  0  0  0  0  0  0  0  0  0  0  0
    1.6516   -0.3755   -0.1514 O   0  0  0  0  0  0  0  0  0  0  0  0
    2.4649    0.7783   -0.1028 C   0  0  0  0  0  0  0  0  0  0  0  0
    3.8368    0.5106   -0.5868 C   0  0  0  0  0  0  0  0  0  0  0  0
    4.1946    0.6831   -1.9150 C   0  0  0  0  0  0  0  0  0  0  0  0
    5.4700    0.4351   -2.3799 C   0  0  0  0  0  0  0  0  0  0  0  0
    6.4400   -0.0021   -1.5034 C   0  0  0  0  0  0  0  0  0  0  0  0
    7.7276   -0.2621   -1.9293 C   0  0  0  0  0  0  0  0  0  0  0  0
    8.6859   -0.6989   -1.0433 C   0  0  0  0  0  0  0  0  0  0  0  0
    8.3069   -0.8638    0.2759 C   0  0  0  0  0  0  0  0  0  0  0  0
    7.0232   -0.6032    0.6936 C   0  0  0  0  0  0  0  0  0  0  0  0
    6.0626   -0.1684   -0.1798 C   0  0  0  0  0  0  0  0  0  0  0  0
    4.8072    0.0829    0.2424 N   0  0  0  0  0  0  0  0  0  0  0  0
   -0.3581   -1.5952    0.1451 C   0  0  0  0  0  0  0  0  0  0  0  0
   -1.6701   -1.7178    0.5098 C   0  0  0  0  0  0  0  0  0  0  0  0
   -4.2945   -1.5514    2.3270 N   0  0  0  0  0  0  0  0  0  0  0  0
   -0.6918    0.0000    0.0000 H   0  0  0  0  0  0  0  0  0  0  0  0
   -6.4998   -1.6477    4.2942 H   0  0  0  0  0  0  0  0  0  0  0  0
   -7.5579   -1.9307    2.8980 H   0  0  0  0  0  0  0  0  0  0  0  0
   -6.2889   -3.1578    3.2528 H   0  0  0  0  0  0  0  0  0  0  0  0
   -6.9368   -0.2133    1.1815 H   0  0  0  0  0  0  0  0  0  0  0  0
   -3.8557   -0.5362   -1.7571 H   0  0  0  0  0  0  0  0  0  0  0  0
   -3.6722    1.1268   -3.6107 H   0  0  0  0  0  0  0  0  0  0  0  0
   -5.2482    4.1034   -1.1630 H   0  0  0  0  0  0  0  0  0  0  0  0
   -5.4653    2.5175    0.7328 H   0  0  0  0  0  0  0  0  0  0  0  0
   -2.1993    1.4598    1.4769 H   0  0  0  0  0  0  0  0  0  0  0  0
    0.1822    1.6159    0.7983 H   0  0  0  0  0  0  0  0  0  0  0  0
    2.5164    1.1181    0.9481 H   0  0  0  0  0  0  0  0  0  0  0  0
    1.9570    1.5826   -0.6744 H   0  0  0  0  0  0  0  0  0  0  0  0
    3.4359    1.0265   -2.6070 H   0  0  0  0  0  0  0  0  0  0  0  0
    5.7681    0.5632   -3.4094 H   0  0  0  0  0  0  0  0  0  0  0  0
    8.0148   -0.1302   -2.9634 H   0  0  0  0  0  0  0  0  0  0  0  0
    9.7166   -0.9144   -1.3485 H   0  0  0  0  0  0  0  0  0  0  0  0
    9.0662   -1.2054    0.9550 H   0  0  0  0  0  0  0  0  0  0  0  0
    6.7438   -0.7387    1.7359 H   0  0  0  0  0  0  0  0  0  0  0  0
    0.1648   -2.4607   -0.2326 H   0  0  0  0  0  0  0  0  0  0  0  0
   -2.1375   -2.7036    0.4003 H   0  0  0  0  0  0  0  0  0  0  0  0
  2  3  1  0
  3  4  1  0
  4  5  2  0
  5  6  1  0
  6  7  2  0
  7  8  1  0
  8  9  2  0
  9 10  1  0
 10 11  2  0
  5 12  1  0
 12 13  1  0
 13 14  2  0
 14 15  1  0
 15 16  2  0
 16 17  1  0
 17 18  1  0
 18 19  1  0
 19 20  2  0
 20 21  1  0
 21 22  2  0
 22 23  1  0
 23 24  2  0
 24 25  1  0
 25 26  2  0
 26 27  1  0
 27 28  2  0
 16 29  1  0
 29 30  2  0
 12 31  2  0
 31  3  1  0
 11  6  1  0
 30 13  1  0
 28 19  1  0
 27 22  1  0
  1 32  1  0
  2 33  1  0
  2 34  1  0
  2 35  1  0
  4 36  1  0
  7 37  1  0
  8 38  1  0
 10 39  1  0
 11 40  1  0
 14 41  1  0
 15 42  1  0
 18 43  1  0
 18 44  1  0
 20 45  1  0
 21 46  1  0
 23 47  1  0
 24 48  1  0
 25 49  1  0
 26 50  1  0
 29 51  1  0
 30 52  1  0
M  END
$$$$
