
     RDKit          3D

 28 28  0  0  0  0  0  0  0  0999 V2000
    5.3459    0.5887   -0.0550 C   0  0  0  0  0  0  0  0  0  0  0  0
    3.8760    0.9158   -0.0785 C   0  0  0  0  0  0  0  0  0  0  0  0
    3.6627    2.2827   -0.1999 O   0  0  0  0  0  0  0  0  0  0  0  0
    2.8750    0.0064    0.0069 C   0  0  0  0  0  0  0  0  0  0  0  0
    3.1489   -1.3828    0.1301 C   0  0  0  0  0  0  0  0  0  0  0  0
    3.2968   -2.5291    0.2322 N   0  0  0  0  0  0  0  0  0  0  0  0
    1.4370    0.4652   -0.0285 C   0  0  0  0  0  0  0  0  0  0  0  0
    1.1989    1.6683   -0.1355 O   0  0  0  0  0  0  0  0  0  0  0  0
    0.4832   -0.5337    0.0652 N   0  0  0  0  0  0  0  0  0  0  0  0
   -0.9227   -0.3813    0.0572 C   0  0  0  0  0  0  0  0  0  0  0  0
   -1.5836    0.8426   -0.0524 C   0  0  0  0  0  0  0  0  0  0  0  0
   -2.9834    0.8995   -0.0514 C   0  0  0  0  0  0  0  0  0  0  0  0
   -3.7502   -0.2672    0.0660 C   0  0  0  0  0  0  0  0  0  0  0  0
   -5.2580   -0.2050    0.0437 C   0  0  0  0  0  0  0  0  0  0  0  0
   -5.7543    0.9612    0.5427 F   0  0  0  0  0  0  0  0  0  0  0  0
   -5.7614   -0.3186   -1.2159 F   0  0  0  0  0  0  0  0  0  0  0  0
   -5.8425   -1.1980    0.7710 F   0  0  0  0  0  0  0  0  0  0  0  0
   -3.0860   -1.4959    0.1668 C   0  0  0  0  0  0  0  0  0  0  0  0
   -1.6879   -1.5502    0.1657 C   0  0  0  0  0  0  0  0  0  0  0  0
    5.8257    1.0969    0.7882 H   0  0  0  0  0  0  0  0  0  0  0  0
    5.5587   -0.4792    0.0397 H   0  0  0  0  0  0  0  0  0  0  0  0
    5.8187    0.9387   -0.9789 H   0  0  0  0  0  0  0  0  0  0  0  0
    2.6950    2.4663   -0.2126 H   0  0  0  0  0  0  0  0  0  0  0  0
    0.7916   -1.4963    0.1511 H   0  0  0  0  0  0  0  0  0  0  0  0
   -1.0461    1.7811   -0.1426 H   0  0  0  0  0  0  0  0  0  0  0  0
   -3.4718    1.8694   -0.1419 H   0  0  0  0  0  0  0  0  0  0  0  0
   -3.6554   -2.4211    0.2490 H   0  0  0  0  0  0  0  0  0  0  0  0
   -1.2107   -2.5243    0.2497 H   0  0  0  0  0  0  0  0  0  0  0  0
  1  2  1  0
  2  3  1  0
  2  4  2  0
  4  5  1  0
  5  6  3  0
  4  7  1  0
  7  8  2  0
  7  9  1  0
  9 10  1  0
 10 11  2  0
 11 12  1  0
 12 13  2  0
 13 14  1  0
 14 15  1  0
 14 16  1  0
 14 17  1  0
 13 18  1  0
 18 19  2  0
 19 10  1  0
  1 20  1  0
  1 21  1  0
  1 22  1  0
  3 23  1  0
  9 24  1  0
 11 25  1  0
 12 26  1  0
 18 27  1  0
 19 28  1  0
M  END
$$$$
