
     RDKit          3D

 45 49  0  0  0  0  0  0  0  0999 V2000
    7.5171    1.6513    1.3607 N   0  0  0  0  0  0  0  0  0  0  0  0
    6.4040    2.4026    1.6219 C   0  0  0  0  0  0  0  0  0  0  0  0
    6.5068    3.5435    2.0533 O   0  0  0  0  0  0  0  0  0  0  0  0
    5.0814    1.7937    1.3202 C   0  0  0  0  0  0  0  0  0  0  0  0
    4.8922    0.4078    1.2791 C   0  0  0  0  0  0  0  0  0  0  0  0
    3.6268   -0.1237    0.9928 C   0  0  0  0  0  0  0  0  0  0  0  0
    2.5315    0.7187    0.7489 C   0  0  0  0  0  0  0  0  0  0  0  0
    1.1913    0.2060    0.4424 C   0  0  0  0  0  0  0  0  0  0  0  0
    0.1552    0.9286    0.0583 N   0  0  0  0  0  0  0  0  0  0  0  0
   -0.8977    0.0541   -0.0947 C   0  0  0  0  0  0  0  0  0  0  0  0
   -2.2215    0.5245   -0.4501 C   0  0  0  0  0  0  0  0  0  0  0  0
   -3.3465    0.1746    0.3309 C   0  0  0  0  0  0  0  0  0  0  0  0
   -4.6238    0.6347   -0.0065 C   0  0  0  0  0  0  0  0  0  0  0  0
   -4.7386    1.4462   -1.1140 C   0  0  0  0  0  0  0  0  0  0  0  0
   -3.6451    1.8045   -1.8677 C   0  0  0  0  0  0  0  0  0  0  0  0
   -2.3744    1.3670   -1.5601 C   0  0  0  0  0  0  0  0  0  0  0  0
   -3.9770    2.6133   -2.9097 O   0  0  0  0  0  0  0  0  0  0  0  0
   -5.4002    2.7395   -2.7134 C   0  0  0  0  0  0  0  0  0  0  0  0
   -5.8941    1.9844   -1.5873 O   0  0  0  0  0  0  0  0  0  0  0  0
   -0.4965   -1.2502    0.1343 C   0  0  0  0  0  0  0  0  0  0  0  0
   -1.1064   -2.5681    0.0540 C   0  0  0  0  0  0  0  0  0  0  0  0
   -2.2046   -2.8639   -0.7428 C   0  0  0  0  0  0  0  0  0  0  0  0
   -2.6914   -4.1691   -0.7512 C   0  0  0  0  0  0  0  0  0  0  0  0
   -2.0646   -5.1365    0.0242 C   0  0  0  0  0  0  0  0  0  0  0  0
   -0.9637   -4.7596    0.7738 C   0  0  0  0  0  0  0  0  0  0  0  0
   -0.4641   -3.5037    0.7996 N   0  0  0  0  0  0  0  0  0  0  0  0
    0.8176   -1.1111    0.5277 N   0  0  0  0  0  0  0  0  0  0  0  0
    2.7348    2.1063    0.8032 C   0  0  0  0  0  0  0  0  0  0  0  0
    3.9943    2.6414    1.0924 C   0  0  0  0  0  0  0  0  0  0  0  0
    8.3990    2.1420    1.4435 H   0  0  0  0  0  0  0  0  0  0  0  0
    7.4885    0.8619    0.7320 H   0  0  0  0  0  0  0  0  0  0  0  0
    5.7102   -0.2746    1.4915 H   0  0  0  0  0  0  0  0  0  0  0  0
    3.5227   -1.2047    0.9665 H   0  0  0  0  0  0  0  0  0  0  0  0
   -3.2251   -0.4500    1.2140 H   0  0  0  0  0  0  0  0  0  0  0  0
   -5.4917    0.3716    0.5872 H   0  0  0  0  0  0  0  0  0  0  0  0
   -1.5211    1.6707   -2.1575 H   0  0  0  0  0  0  0  0  0  0  0  0
   -5.9107    2.3915   -3.6187 H   0  0  0  0  0  0  0  0  0  0  0  0
   -5.6411    3.7978   -2.5590 H   0  0  0  0  0  0  0  0  0  0  0  0
   -2.6755   -2.1118   -1.3653 H   0  0  0  0  0  0  0  0  0  0  0  0
   -3.5511   -4.4270   -1.3635 H   0  0  0  0  0  0  0  0  0  0  0  0
   -2.4219   -6.1602    0.0392 H   0  0  0  0  0  0  0  0  0  0  0  0
   -0.4372   -5.4809    1.3924 H   0  0  0  0  0  0  0  0  0  0  0  0
    1.3909   -1.8887    0.8194 H   0  0  0  0  0  0  0  0  0  0  0  0
    1.9005    2.7839    0.6228 H   0  0  0  0  0  0  0  0  0  0  0  0
    4.1209    3.7216    1.1351 H   0  0  0  0  0  0  0  0  0  0  0  0
  1  2  1  0
  2  3  2  0
  2  4  1  0
  4  5  2  0
  5  6  1  0
  6  7  2  0
  7  8  1  0
  8  9  2  0
  9 10  1  0
 10 11  1  0
 11 12  2  0
 12 13  1  0
 13 14  2  0
 14 15  1  0
 15 16  2  0
 15 17  1  0
 17 18  1  0
 18 19  1  0
 10 20  2  0
 20 21  1  0
 21 22  2  0
 22 23  1  0
 23 24  2  0
 24 25  1  0
 25 26  2  0
 20 27  1  0
  7 28  1  0
 28 29  2  0
 29  4  1  0
 27  8  1  0
 16 11  1  0
 26 21  1  0
 19 14  1  0
  1 30  1  0
  1 31  1  0
  5 32  1  0
  6 33  1  0
 12 34  1  0
 13 35  1  0
 16 36  1  0
 18 37  1  0
 18 38  1  0
 22 39  1  0
 23 40  1  0
 24 41  1  0
 25 42  1  0
 27 43  1  0
 28 44  1  0
 29 45  1  0
M  END
$$$$
