
     RDKit          3D

 20 21  0  0  0  0  0  0  0  0999 V2000
    5.6585    0.4748   -0.6506 S   0  0  0  0  0  0  0  0  0  0  0  0
    3.9417    0.3118   -0.4071 C   0  0  0  0  0  0  0  0  0  0  0  0
    3.1335    1.3358   -0.5396 N   0  0  0  0  0  0  0  0  0  0  0  0
    1.8206    0.9800   -0.3015 N   0  0  0  0  0  0  0  0  0  0  0  0
    1.6714   -0.2944    0.0026 C   0  0  0  0  0  0  0  0  0  0  0  0
    0.5340   -0.9719    0.2919 N   0  0  0  0  0  0  0  0  0  0  0  0
   -0.7936   -0.5075    0.3476 C   0  0  0  0  0  0  0  0  0  0  0  0
   -1.8064   -1.4268    0.6761 C   0  0  0  0  0  0  0  0  0  0  0  0
   -3.1482   -1.0401    0.7510 C   0  0  0  0  0  0  0  0  0  0  0  0
   -3.5052    0.2794    0.4977 C   0  0  0  0  0  0  0  0  0  0  0  0
   -2.5205    1.2061    0.1709 C   0  0  0  0  0  0  0  0  0  0  0  0
   -1.1783    0.8145    0.0971 C   0  0  0  0  0  0  0  0  0  0  0  0
    3.1773   -1.1535    0.0141 S   0  0  0  0  0  0  0  0  0  0  0  0
    5.6369    1.7830   -0.9418 H   0  0  0  0  0  0  0  0  0  0  0  0
    0.6348   -1.9568    0.5009 H   0  0  0  0  0  0  0  0  0  0  0  0
   -1.5605   -2.4662    0.8799 H   0  0  0  0  0  0  0  0  0  0  0  0
   -3.9111   -1.7705    1.0069 H   0  0  0  0  0  0  0  0  0  0  0  0
   -4.5460    0.5862    0.5542 H   0  0  0  0  0  0  0  0  0  0  0  0
   -2.7900    2.2402   -0.0288 H   0  0  0  0  0  0  0  0  0  0  0  0
   -0.4488    1.5760   -0.1618 H   0  0  0  0  0  0  0  0  0  0  0  0
  1  2  1  0
  2  3  2  0
  3  4  1  0
  4  5  2  0
  5  6  1  0
  6  7  1  0
  7  8  2  0
  8  9  1  0
  9 10  2  0
 10 11  1  0
 11 12  2  0
  5 13  1  0
 13  2  1  0
 12  7  1  0
  1 14  1  0
  6 15  1  0
  8 16  1  0
  9 17  1  0
 10 18  1  0
 11 19  1  0
 12 20  1  0
M  END
$$$$
