
     RDKit          3D

 37 38  0  0  0  0  0  0  0  0999 V2000
   -3.4016   -2.8507    0.2510 N   0  0  0  0  0  0  0  0  0  0  0  0
   -3.5356   -1.9614   -0.4838 C   0  0  0  0  0  0  0  0  0  0  0  0
   -3.6950   -0.8515   -1.4362 C   0  0  0  0  0  0  0  0  0  0  0  0
   -4.2068    0.4165   -0.7859 C   0  0  0  0  0  0  0  0  0  0  0  0
   -5.5555    0.7803   -0.9514 C   0  0  0  0  0  0  0  0  0  0  0  0
   -6.0596    1.9393   -0.3591 C   0  0  0  0  0  0  0  0  0  0  0  0
   -5.2277    2.7488    0.4093 C   0  0  0  0  0  0  0  0  0  0  0  0
   -3.8898    2.3990    0.5895 C   0  0  0  0  0  0  0  0  0  0  0  0
   -3.3757    1.2388   -0.0008 C   0  0  0  0  0  0  0  0  0  0  0  0
   -1.9987    0.9112    0.2228 C   0  0  0  0  0  0  0  0  0  0  0  0
   -0.8523    0.6050    0.4098 C   0  0  0  0  0  0  0  0  0  0  0  0
    0.5036    0.2092    0.6284 C   0  0  0  0  0  0  0  0  0  0  0  0
    1.5361    1.1419    0.4969 C   0  0  0  0  0  0  0  0  0  0  0  0
    2.8640    0.7561    0.7038 C   0  0  0  0  0  0  0  0  0  0  0  0
    3.1693   -0.5676    1.0452 C   0  0  0  0  0  0  0  0  0  0  0  0
    4.5981   -1.0032    1.2540 C   0  0  0  0  0  0  0  0  0  0  0  0
    5.1696   -1.7704    0.0651 C   0  0  0  0  0  0  0  0  0  0  0  0
    5.3381   -0.9149   -1.1583 C   0  0  0  0  0  0  0  0  0  0  0  0
    4.9316   -1.1727   -2.2791 O   0  0  0  0  0  0  0  0  0  0  0  0
    6.0683    0.1951   -0.9395 O   0  0  0  0  0  0  0  0  0  0  0  0
    2.1212   -1.4857    1.1709 C   0  0  0  0  0  0  0  0  0  0  0  0
    2.3915   -2.7593    1.4912 F   0  0  0  0  0  0  0  0  0  0  0  0
    0.7969   -1.1108    0.9677 C   0  0  0  0  0  0  0  0  0  0  0  0
   -4.3845   -1.1596   -2.2324 H   0  0  0  0  0  0  0  0  0  0  0  0
   -2.7455   -0.6449   -1.9447 H   0  0  0  0  0  0  0  0  0  0  0  0
   -6.2282    0.1609   -1.5421 H   0  0  0  0  0  0  0  0  0  0  0  0
   -7.1046    2.2087   -0.4944 H   0  0  0  0  0  0  0  0  0  0  0  0
   -5.6211    3.6496    0.8736 H   0  0  0  0  0  0  0  0  0  0  0  0
   -3.2509    3.0348    1.1990 H   0  0  0  0  0  0  0  0  0  0  0  0
    1.3141    2.1732    0.2312 H   0  0  0  0  0  0  0  0  0  0  0  0
    3.6558    1.4946    0.5948 H   0  0  0  0  0  0  0  0  0  0  0  0
    5.2202   -0.1304    1.4882 H   0  0  0  0  0  0  0  0  0  0  0  0
    4.6394   -1.6404    2.1468 H   0  0  0  0  0  0  0  0  0  0  0  0
    4.5247   -2.6169   -0.1979 H   0  0  0  0  0  0  0  0  0  0  0  0
    6.1537   -2.1808    0.3186 H   0  0  0  0  0  0  0  0  0  0  0  0
    6.1254    0.6119   -1.8255 H   0  0  0  0  0  0  0  0  0  0  0  0
    0.0115   -1.8538    1.0757 H   0  0  0  0  0  0  0  0  0  0  0  0
  1  2  3  0
  2  3  1  0
  3  4  1  0
  4  5  2  0
  5  6  1  0
  6  7  2  0
  7  8  1  0
  8  9  2  0
  9 10  1  0
 10 11  3  0
 11 12  1  0
 12 13  2  0
 13 14  1  0
 14 15  2  0
 15 16  1  0
 16 17  1  0
 17 18  1  0
 18 19  2  0
 18 20  1  0
 15 21  1  0
 21 22  1  0
 21 23  2  0
  9  4  1  0
 23 12  1  0
  3 24  1  0
  3 25  1  0
  5 26  1  0
  6 27  1  0
  7 28  1  0
  8 29  1  0
 13 30  1  0
 14 31  1  0
 16 32  1  0
 16 33  1  0
 17 34  1  0
 17 35  1  0
 20 36  1  0
 23 37  1  0
M  END
$$$$
