
     RDKit          3D

 29 29  0  0  0  0  0  0  0  0999 V2000
    5.0169   -0.9658   -0.0620 C   0  0  0  0  0  0  0  0  0  0  0  0
    3.7635   -0.1081    0.0162 C   0  0  0  0  0  0  0  0  0  0  0  0
    2.6037   -0.9664    0.1793 N   0  0  0  0  0  0  0  0  0  0  0  0
    1.3815   -0.3038    0.1950 C   0  0  0  0  0  0  0  0  0  0  0  0
    0.3591   -0.9850   -0.3037 N   0  0  0  0  0  0  0  0  0  0  0  0
   -0.8165   -0.3737   -0.2818 C   0  0  0  0  0  0  0  0  0  0  0  0
   -1.8770   -1.1000   -0.8134 N   0  0  0  0  0  0  0  0  0  0  0  0
   -3.1522   -0.8851   -0.1529 C   0  0  0  0  0  0  0  0  0  0  0  0
   -4.1997   -1.7968   -0.7726 C   0  0  0  0  0  0  0  0  0  0  0  0
   -1.0146    0.8449    0.1938 N   0  0  0  0  0  0  0  0  0  0  0  0
    0.0719    1.4474    0.6600 C   0  0  0  0  0  0  0  0  0  0  0  0
   -0.0792    3.0930    1.3228 S   0  0  0  0  0  0  0  0  0  0  0  0
   -1.7174    3.5417    0.7000 C   0  0  0  0  0  0  0  0  0  0  0  0
    1.2891    0.9202    0.6869 N   0  0  0  0  0  0  0  0  0  0  0  0
    5.1387   -1.5664    0.8458 H   0  0  0  0  0  0  0  0  0  0  0  0
    4.9712   -1.6523   -0.9141 H   0  0  0  0  0  0  0  0  0  0  0  0
    5.9039   -0.3353   -0.1778 H   0  0  0  0  0  0  0  0  0  0  0  0
    3.8632    0.5781    0.8657 H   0  0  0  0  0  0  0  0  0  0  0  0
    3.6788    0.4867   -0.9014 H   0  0  0  0  0  0  0  0  0  0  0  0
    2.5143   -1.7158   -0.4986 H   0  0  0  0  0  0  0  0  0  0  0  0
   -1.5644   -2.0655   -0.8461 H   0  0  0  0  0  0  0  0  0  0  0  0
   -3.0748   -1.1047    0.9189 H   0  0  0  0  0  0  0  0  0  0  0  0
   -3.4813    0.1543   -0.2699 H   0  0  0  0  0  0  0  0  0  0  0  0
   -3.9225   -2.8500   -0.6566 H   0  0  0  0  0  0  0  0  0  0  0  0
   -5.1709   -1.6437   -0.2920 H   0  0  0  0  0  0  0  0  0  0  0  0
   -4.3109   -1.5957   -1.8434 H   0  0  0  0  0  0  0  0  0  0  0  0
   -1.7499    3.4771   -0.3913 H   0  0  0  0  0  0  0  0  0  0  0  0
   -1.9360    4.5736    0.9884 H   0  0  0  0  0  0  0  0  0  0  0  0
   -2.4887    2.8971    1.1310 H   0  0  0  0  0  0  0  0  0  0  0  0
  1  2  1  0
  2  3  1  0
  3  4  1  0
  4  5  2  0
  5  6  1  0
  6  7  1  0
  7  8  1  0
  8  9  1  0
  6 10  2  0
 10 11  1  0
 11 12  1  0
 12 13  1  0
 11 14  2  0
 14  4  1  0
  1 15  1  0
  1 16  1  0
  1 17  1  0
  2 18  1  0
  2 19  1  0
  3 20  1  0
  7 21  1  0
  8 22  1  0
  8 23  1  0
  9 24  1  0
  9 25  1  0
  9 26  1  0
 13 27  1  0
 13 28  1  0
 13 29  1  0
M  END
$$$$
