
     RDKit          3D

 39 43  0  0  0  0  0  0  0  0999 V2000
   -3.7096   -0.0003    2.3861 N   0  0  0  0  0  0  0  0  0  0  0  0
   -3.8266    0.4403    1.3194 C   0  0  0  0  0  0  0  0  0  0  0  0
   -3.9019    1.0542    0.0253 C   0  0  0  0  0  0  0  0  0  0  0  0
   -5.1488    1.5629   -0.3763 C   0  0  0  0  0  0  0  0  0  0  0  0
   -5.2962    2.1739   -1.6168 C   0  0  0  0  0  0  0  0  0  0  0  0
   -4.1965    2.2839   -2.4619 C   0  0  0  0  0  0  0  0  0  0  0  0
   -2.9400    1.7818   -2.0775 C   0  0  0  0  0  0  0  0  0  0  0  0
   -1.8525    1.9725   -3.0024 C   0  0  0  0  0  0  0  0  0  0  0  0
   -1.0263    2.1964   -3.7867 N   0  0  0  0  0  0  0  0  0  0  0  0
   -2.7726    1.1566   -0.8198 C   0  0  0  0  0  0  0  0  0  0  0  0
   -1.4618    0.5949   -0.4483 C   0  0  0  0  0  0  0  0  0  0  0  0
   -0.6630   -0.0542   -1.2689 N   0  0  0  0  0  0  0  0  0  0  0  0
    0.4604   -0.3956   -0.5442 C   0  0  0  0  0  0  0  0  0  0  0  0
    1.6265   -1.0871   -0.9425 C   0  0  0  0  0  0  0  0  0  0  0  0
    1.7225   -1.5072   -2.2845 C   0  0  0  0  0  0  0  0  0  0  0  0
    2.8497   -2.1913   -2.7254 C   0  0  0  0  0  0  0  0  0  0  0  0
    3.8812   -2.4584   -1.8340 C   0  0  0  0  0  0  0  0  0  0  0  0
    3.7893   -2.0403   -0.4997 C   0  0  0  0  0  0  0  0  0  0  0  0
    2.6619   -1.3388   -0.0031 C   0  0  0  0  0  0  0  0  0  0  0  0
    2.5116   -0.8830    1.3525 C   0  0  0  0  0  0  0  0  0  0  0  0
    3.4774   -1.0821    2.3684 C   0  0  0  0  0  0  0  0  0  0  0  0
    3.2824   -0.6206    3.6745 C   0  0  0  0  0  0  0  0  0  0  0  0
    4.4962   -0.8957    4.8650 Cl  0  0  0  0  0  0  0  0  0  0  0  0
    2.1211    0.0561    4.0247 C   0  0  0  0  0  0  0  0  0  0  0  0
    1.1417    0.2783    3.0616 C   0  0  0  0  0  0  0  0  0  0  0  0
    1.3348   -0.1833    1.7416 C   0  0  0  0  0  0  0  0  0  0  0  0
    0.3427    0.0426    0.7654 C   0  0  0  0  0  0  0  0  0  0  0  0
   -0.8764    0.6783    0.7959 N   0  0  0  0  0  0  0  0  0  0  0  0
   -6.0163    1.4801    0.2787 H   0  0  0  0  0  0  0  0  0  0  0  0
   -6.2641    2.5638   -1.9255 H   0  0  0  0  0  0  0  0  0  0  0  0
   -4.3192    2.7680   -3.4313 H   0  0  0  0  0  0  0  0  0  0  0  0
    0.9169   -1.2930   -2.9852 H   0  0  0  0  0  0  0  0  0  0  0  0
    2.9215   -2.5111   -3.7612 H   0  0  0  0  0  0  0  0  0  0  0  0
    4.7654   -2.9923   -2.1733 H   0  0  0  0  0  0  0  0  0  0  0  0
    4.6291   -2.2774    0.1474 H   0  0  0  0  0  0  0  0  0  0  0  0
    4.4043   -1.6060    2.1541 H   0  0  0  0  0  0  0  0  0  0  0  0
    1.9726    0.4090    5.0416 H   0  0  0  0  0  0  0  0  0  0  0  0
    0.2376    0.8034    3.3554 H   0  0  0  0  0  0  0  0  0  0  0  0
   -1.2751    1.1207    1.6107 H   0  0  0  0  0  0  0  0  0  0  0  0
  1  2  3  0
  2  3  1  0
  3  4  2  0
  4  5  1  0
  5  6  2  0
  6  7  1  0
  7  8  1  0
  8  9  3  0
  7 10  2  0
 10 11  1  0
 11 12  2  0
 12 13  1  0
 13 14  2  0
 14 15  1  0
 15 16  2  0
 16 17  1  0
 17 18  2  0
 18 19  1  0
 19 20  2  0
 20 21  1  0
 21 22  2  0
 22 23  1  0
 22 24  1  0
 24 25  2  0
 25 26  1  0
 26 27  2  0
 27 28  1  0
 10  3  1  0
 28 11  1  0
 27 13  1  0
 19 14  1  0
 26 20  1  0
  4 29  1  0
  5 30  1  0
  6 31  1  0
 15 32  1  0
 16 33  1  0
 17 34  1  0
 18 35  1  0
 21 36  1  0
 24 37  1  0
 25 38  1  0
 28 39  1  0
M  END
$$$$
