
     RDKit          3D

 32 34  0  0  0  0  0  0  0  0999 V2000
   -3.6176   -3.3385    0.5595 O   0  0  0  0  0  0  0  0  0  0  0  0
   -2.8994   -2.3659    0.5565 C   0  0  0  0  0  0  0  0  0  0  0  0
   -1.3557   -2.3307    0.6898 C   0  0  0  0  0  0  0  0  0  0  0  0
   -0.6350   -3.3007    0.7839 O   0  0  0  0  0  0  0  0  0  0  0  0
   -1.0183   -0.9847    0.6568 N   0  0  0  0  0  0  0  0  0  0  0  0
    0.3448   -0.5000    0.6898 C   0  0  0  0  0  0  0  0  0  0  0  0
    0.9598   -0.4208   -0.7100 C   0  0  0  0  0  0  0  0  0  0  0  0
    2.3697    0.1104   -0.6674 C   0  0  0  0  0  0  0  0  0  0  0  0
    2.6247    1.4738   -0.8665 C   0  0  0  0  0  0  0  0  0  0  0  0
    3.9300    1.9641   -0.8038 C   0  0  0  0  0  0  0  0  0  0  0  0
    4.9896    1.0985   -0.5386 C   0  0  0  0  0  0  0  0  0  0  0  0
    4.7457   -0.2584   -0.3357 C   0  0  0  0  0  0  0  0  0  0  0  0
    3.4417   -0.7513   -0.3981 C   0  0  0  0  0  0  0  0  0  0  0  0
   -2.1588   -0.1862    0.4751 C   0  0  0  0  0  0  0  0  0  0  0  0
   -2.2448    1.1883    0.3546 C   0  0  0  0  0  0  0  0  0  0  0  0
   -3.5165    1.7526    0.1799 C   0  0  0  0  0  0  0  0  0  0  0  0
   -4.6665    0.9407    0.1280 C   0  0  0  0  0  0  0  0  0  0  0  0
   -6.3602    1.7477   -0.1100 Br  0  0  0  0  0  0  0  0  0  0  0  0
   -4.5780   -0.4446    0.2466 C   0  0  0  0  0  0  0  0  0  0  0  0
   -3.3120   -0.9697    0.4178 C   0  0  0  0  0  0  0  0  0  0  0  0
    0.9314   -1.1922    1.3073 H   0  0  0  0  0  0  0  0  0  0  0  0
    0.3732    0.4715    1.1966 H   0  0  0  0  0  0  0  0  0  0  0  0
    0.3461    0.2165   -1.3594 H   0  0  0  0  0  0  0  0  0  0  0  0
    0.9561   -1.4108   -1.1843 H   0  0  0  0  0  0  0  0  0  0  0  0
    1.8108    2.1638   -1.0757 H   0  0  0  0  0  0  0  0  0  0  0  0
    4.1218    3.0220   -0.9634 H   0  0  0  0  0  0  0  0  0  0  0  0
    6.0059    1.4807   -0.4912 H   0  0  0  0  0  0  0  0  0  0  0  0
    5.5717   -0.9342   -0.1293 H   0  0  0  0  0  0  0  0  0  0  0  0
    3.2678   -1.8137   -0.2365 H   0  0  0  0  0  0  0  0  0  0  0  0
   -1.3698    1.8281    0.3930 H   0  0  0  0  0  0  0  0  0  0  0  0
   -3.6087    2.8333    0.0844 H   0  0  0  0  0  0  0  0  0  0  0  0
   -5.4494   -1.0896    0.2061 H   0  0  0  0  0  0  0  0  0  0  0  0
  1  2  2  0
  2  3  1  0
  3  4  2  0
  3  5  1  0
  5  6  1  0
  6  7  1  0
  7  8  1  0
  8  9  2  0
  9 10  1  0
 10 11  2  0
 11 12  1  0
 12 13  2  0
  5 14  1  0
 14 15  2  0
 15 16  1  0
 16 17  2  0
 17 18  1  0
 17 19  1  0
 19 20  2  0
 20  2  1  0
 13  8  1  0
 20 14  1  0
  6 21  1  0
  6 22  1  0
  7 23  1  0
  7 24  1  0
  9 25  1  0
 10 26  1  0
 11 27  1  0
 12 28  1  0
 13 29  1  0
 15 30  1  0
 16 31  1  0
 19 32  1  0
M  END
$$$$
