
     RDKit          3D

 62 64  0  0  0  0  0  0  0  0999 V2000
    4.5239   -1.8451    1.0912 C   0  0  0  0  0  0  0  0  0  0  0  0
    4.0230   -1.8203   -0.2445 O   0  0  0  0  0  0  0  0  0  0  0  0
    2.8530   -1.1131   -0.3437 C   0  0  0  0  0  0  0  0  0  0  0  0
    1.7132   -1.5026    0.3602 C   0  0  0  0  0  0  0  0  0  0  0  0
    0.5135   -0.7925    0.2104 C   0  0  0  0  0  0  0  0  0  0  0  0
   -0.6570   -1.2346    1.0229 C   0  0  0  0  0  0  0  0  0  0  0  0
   -0.4836   -1.9311    2.0174 O   0  0  0  0  0  0  0  0  0  0  0  0
   -1.9020   -0.8346    0.6058 N   0  0  0  0  0  0  0  0  0  0  0  0
   -3.0921   -1.0796    1.4021 C   0  0  0  0  0  0  0  0  0  0  0  0
   -4.3914   -0.6866    0.6227 C   0  0  0  0  0  0  0  0  0  0  0  0
   -4.1730    0.6426   -0.0440 N   0  0  0  0  0  0  0  0  0  0  0  0
   -5.1156    1.0302   -1.0921 C   0  0  0  0  0  0  0  0  0  0  0  0
   -4.0288    1.7609    0.8993 C   0  0  0  0  0  0  0  0  0  0  0  0
   -5.6085   -0.7916    1.5692 C   0  0  0  0  0  0  0  0  0  0  0  0
   -6.8028   -1.1641    0.7012 C   0  0  0  0  0  0  0  0  0  0  0  0
   -6.2346   -1.9024   -0.5042 C   0  0  0  0  0  0  0  0  0  0  0  0
   -4.7123   -1.8277   -0.3822 C   0  0  0  0  0  0  0  0  0  0  0  0
    0.4589    0.3021   -0.6654 C   0  0  0  0  0  0  0  0  0  0  0  0
    1.5874    0.6641   -1.4084 C   0  0  0  0  0  0  0  0  0  0  0  0
    1.5880    1.7197   -2.2860 O   0  0  0  0  0  0  0  0  0  0  0  0
    0.4218    1.8080   -3.1004 C   0  0  0  0  0  0  0  0  0  0  0  0
    2.7952   -0.0240   -1.2195 C   0  0  0  0  0  0  0  0  0  0  0  0
    3.9208    0.3075   -1.9329 O   0  0  0  0  0  0  0  0  0  0  0  0
    4.4990    1.5399   -1.4805 C   0  0  0  0  0  0  0  0  0  0  0  0
    5.7361    1.2923   -0.6447 C   0  0  0  0  0  0  0  0  0  0  0  0
    5.9697    2.0477    0.5142 C   0  0  0  0  0  0  0  0  0  0  0  0
    7.1191    1.8360    1.2792 C   0  0  0  0  0  0  0  0  0  0  0  0
    8.0504    0.8744    0.8907 C   0  0  0  0  0  0  0  0  0  0  0  0
    7.8354    0.1261   -0.2648 C   0  0  0  0  0  0  0  0  0  0  0  0
    6.6874    0.3368   -1.0313 C   0  0  0  0  0  0  0  0  0  0  0  0
    3.9971   -2.5965    1.6868 H   0  0  0  0  0  0  0  0  0  0  0  0
    5.5785   -2.1326    1.0472 H   0  0  0  0  0  0  0  0  0  0  0  0
    4.4602   -0.8618    1.5705 H   0  0  0  0  0  0  0  0  0  0  0  0
    1.7485   -2.3680    1.0173 H   0  0  0  0  0  0  0  0  0  0  0  0
   -2.0413   -0.1931   -0.1624 H   0  0  0  0  0  0  0  0  0  0  0  0
   -3.0983   -2.1350    1.7008 H   0  0  0  0  0  0  0  0  0  0  0  0
   -2.9913   -0.4976    2.3261 H   0  0  0  0  0  0  0  0  0  0  0  0
   -5.1550    0.2972   -1.9017 H   0  0  0  0  0  0  0  0  0  0  0  0
   -4.7843    1.9588   -1.5714 H   0  0  0  0  0  0  0  0  0  0  0  0
   -6.1243    1.2076   -0.7095 H   0  0  0  0  0  0  0  0  0  0  0  0
   -3.6956    2.6583    0.3664 H   0  0  0  0  0  0  0  0  0  0  0  0
   -4.9676    2.0081    1.4066 H   0  0  0  0  0  0  0  0  0  0  0  0
   -3.2634    1.5697    1.6574 H   0  0  0  0  0  0  0  0  0  0  0  0
   -5.4459   -1.5954    2.2997 H   0  0  0  0  0  0  0  0  0  0  0  0
   -5.8009    0.1125    2.1521 H   0  0  0  0  0  0  0  0  0  0  0  0
   -7.5146   -1.7872    1.2544 H   0  0  0  0  0  0  0  0  0  0  0  0
   -7.3491   -0.2713    0.3802 H   0  0  0  0  0  0  0  0  0  0  0  0
   -6.5865   -1.4470   -1.4346 H   0  0  0  0  0  0  0  0  0  0  0  0
   -6.5676   -2.9458   -0.5196 H   0  0  0  0  0  0  0  0  0  0  0  0
   -4.2246   -1.6984   -1.3549 H   0  0  0  0  0  0  0  0  0  0  0  0
   -4.3584   -2.7943    0.0026 H   0  0  0  0  0  0  0  0  0  0  0  0
   -0.4437    0.8956   -0.7495 H   0  0  0  0  0  0  0  0  0  0  0  0
    0.1010    0.8257   -3.4667 H   0  0  0  0  0  0  0  0  0  0  0  0
   -0.3881    2.3038   -2.5566 H   0  0  0  0  0  0  0  0  0  0  0  0
    0.6687    2.4255   -3.9698 H   0  0  0  0  0  0  0  0  0  0  0  0
    3.7870    2.1629   -0.9234 H   0  0  0  0  0  0  0  0  0  0  0  0
    4.7928    2.1094   -2.3703 H   0  0  0  0  0  0  0  0  0  0  0  0
    5.2550    2.8044    0.8304 H   0  0  0  0  0  0  0  0  0  0  0  0
    7.2890    2.4228    2.1781 H   0  0  0  0  0  0  0  0  0  0  0  0
    8.9438    0.7087    1.4869 H   0  0  0  0  0  0  0  0  0  0  0  0
    8.5594   -0.6249   -0.5709 H   0  0  0  0  0  0  0  0  0  0  0  0
    6.5255   -0.2604   -1.9272 H   0  0  0  0  0  0  0  0  0  0  0  0
  1  2  1  0
  2  3  1  0
  3  4  2  0
  4  5  1  0
  5  6  1  0
  6  7  2  0
  6  8  1  0
  8  9  1  0
  9 10  1  0
 10 11  1  0
 11 12  1  0
 11 13  1  0
 10 14  1  0
 14 15  1  0
 15 16  1  0
 16 17  1  0
  5 18  2  0
 18 19  1  0
 19 20  1  0
 20 21  1  0
 19 22  2  0
 22 23  1  0
 23 24  1  0
 24 25  1  0
 25 26  2  0
 26 27  1  0
 27 28  2  0
 28 29  1  0
 29 30  2  0
 22  3  1  0
 30 25  1  0
 17 10  1  0
  1 31  1  0
  1 32  1  0
  1 33  1  0
  4 34  1  0
  8 35  1  0
  9 36  1  0
  9 37  1  0
 12 38  1  0
 12 39  1  0
 12 40  1  0
 13 41  1  0
 13 42  1  0
 13 43  1  0
 14 44  1  0
 14 45  1  0
 15 46  1  0
 15 47  1  0
 16 48  1  0
 16 49  1  0
 17 50  1  0
 17 51  1  0
 18 52  1  0
 21 53  1  0
 21 54  1  0
 21 55  1  0
 24 56  1  0
 24 57  1  0
 26 58  1  0
 27 59  1  0
 28 60  1  0
 29 61  1  0
 30 62  1  0
M  END
$$$$
