
     RDKit          3D

 66 68  0  0  0  0  0  0  0  0999 V2000
    5.7373    2.0999   -2.2995 C   0  0  0  0  0  0  0  0  0  0  0  0
    5.3472    2.6338   -0.9341 C   0  0  0  0  0  0  0  0  0  0  0  0
    4.0531    2.1289   -0.5669 O   0  0  0  0  0  0  0  0  0  0  0  0
    4.0280    0.9314    0.0938 C   0  0  0  0  0  0  0  0  0  0  0  0
    5.0565    0.3164    0.3525 O   0  0  0  0  0  0  0  0  0  0  0  0
    2.7139    0.5068    0.3774 N   0  0  0  0  0  0  0  0  0  0  0  0
    2.4739   -0.8171    0.8836 C   0  0  0  0  0  0  0  0  0  0  0  0
    3.3765   -1.4366    1.7576 C   0  0  0  0  0  0  0  0  0  0  0  0
    3.1791   -2.7467    2.1975 C   0  0  0  0  0  0  0  0  0  0  0  0
    2.0721   -3.4812    1.7701 C   0  0  0  0  0  0  0  0  0  0  0  0
    1.8829   -4.9119    2.2099 C   0  0  0  0  0  0  0  0  0  0  0  0
    2.3874   -5.1601    3.4506 F   0  0  0  0  0  0  0  0  0  0  0  0
    2.4869   -5.7990    1.3729 F   0  0  0  0  0  0  0  0  0  0  0  0
    0.5704   -5.2780    2.2666 F   0  0  0  0  0  0  0  0  0  0  0  0
    1.1533   -2.8653    0.9069 C   0  0  0  0  0  0  0  0  0  0  0  0
    1.3184   -1.5281    0.4893 C   0  0  0  0  0  0  0  0  0  0  0  0
    0.3296   -0.8456   -0.4435 C   0  0  1  0  0  0  0  0  0  0  0  0
   -0.9859   -1.5136   -0.5400 N   0  0  0  0  0  0  0  0  0  0  0  0
   -1.9161   -1.4977    0.5982 C   0  0  0  0  0  0  0  0  0  0  0  0
   -2.8875   -0.3302    0.5835 C   0  0  0  0  0  0  0  0  0  0  0  0
   -3.8911   -0.2273   -0.3910 C   0  0  0  0  0  0  0  0  0  0  0  0
   -4.8009    0.8472   -0.3973 C   0  0  0  0  0  0  0  0  0  0  0  0
   -5.9111    0.8970   -1.4242 C   0  0  0  0  0  0  0  0  0  0  0  0
   -6.4624    2.1355   -1.5566 F   0  0  0  0  0  0  0  0  0  0  0  0
   -6.9383    0.0613   -1.1087 F   0  0  0  0  0  0  0  0  0  0  0  0
   -5.5019    0.5353   -2.6719 F   0  0  0  0  0  0  0  0  0  0  0  0
   -4.6943    1.8356    0.5944 C   0  0  0  0  0  0  0  0  0  0  0  0
   -3.7002    1.7594    1.5811 C   0  0  0  0  0  0  0  0  0  0  0  0
   -3.5906    2.8004    2.6687 C   0  0  0  0  0  0  0  0  0  0  0  0
   -2.3055    3.2103    2.8623 F   0  0  0  0  0  0  0  0  0  0  0  0
   -4.3110    3.9270    2.4224 F   0  0  0  0  0  0  0  0  0  0  0  0
   -4.0203    2.3349    3.8710 F   0  0  0  0  0  0  0  0  0  0  0  0
   -2.8185    0.6642    1.5740 C   0  0  0  0  0  0  0  0  0  0  0  0
   -1.2675   -2.2138   -1.7068 C   0  0  0  0  0  0  0  0  0  0  0  0
   -0.5431   -2.2259   -2.6955 O   0  0  0  0  0  0  0  0  0  0  0  0
   -2.4435   -2.8963   -1.6452 O   0  0  0  0  0  0  0  0  0  0  0  0
   -2.8008   -3.5705   -2.8540 C   0  0  0  0  0  0  0  0  0  0  0  0
    0.2123    0.5994    0.0146 C   0  0  0  0  0  0  0  0  0  0  0  0
    1.5647    1.3222   -0.0835 C   0  0  1  0  0  0  0  0  0  0  0  0
    1.4669    2.6483    0.7243 C   0  0  0  0  0  0  0  0  0  0  0  0
    0.5846    3.6927    0.0534 C   0  0  0  0  0  0  0  0  0  0  0  0
    6.6992    2.5083   -2.6178 H   0  0  0  0  0  0  0  0  0  0  0  0
    5.8060    1.0061   -2.2957 H   0  0  0  0  0  0  0  0  0  0  0  0
    4.9775    2.3643   -3.0428 H   0  0  0  0  0  0  0  0  0  0  0  0
    5.2636    3.7265   -0.9736 H   0  0  0  0  0  0  0  0  0  0  0  0
    6.1034    2.3965   -0.1759 H   0  0  0  0  0  0  0  0  0  0  0  0
    4.2578   -0.9144    2.1273 H   0  0  0  0  0  0  0  0  0  0  0  0
    3.9079   -3.1899    2.8761 H   0  0  0  0  0  0  0  0  0  0  0  0
    0.3086   -3.4512    0.5497 H   0  0  0  0  0  0  0  0  0  0  0  0
    0.7899   -0.8515   -1.4399 H   0  0  0  0  0  0  0  0  0  0  0  0
   -2.4986   -2.4250    0.6258 H   0  0  0  0  0  0  0  0  0  0  0  0
   -1.3327   -1.4923    1.5258 H   0  0  0  0  0  0  0  0  0  0  0  0
   -3.9911   -1.0024   -1.1515 H   0  0  0  0  0  0  0  0  0  0  0  0
   -5.3993    2.6685    0.6050 H   0  0  0  0  0  0  0  0  0  0  0  0
   -2.0685    0.5953    2.3603 H   0  0  0  0  0  0  0  0  0  0  0  0
   -3.6441   -4.2312   -2.6369 H   0  0  0  0  0  0  0  0  0  0  0  0
   -1.9773   -4.1839   -3.2323 H   0  0  0  0  0  0  0  0  0  0  0  0
   -3.1128   -2.8363   -3.5992 H   0  0  0  0  0  0  0  0  0  0  0  0
   -0.1192    0.6283    1.0610 H   0  0  0  0  0  0  0  0  0  0  0  0
   -0.5404    1.1335   -0.5806 H   0  0  0  0  0  0  0  0  0  0  0  0
    1.7494    1.5518   -1.1425 H   0  0  0  0  0  0  0  0  0  0  0  0
    1.0748    2.4470    1.7278 H   0  0  0  0  0  0  0  0  0  0  0  0
    2.4507    3.0964    0.8862 H   0  0  0  0  0  0  0  0  0  0  0  0
    0.9657    3.9348   -0.9441 H   0  0  0  0  0  0  0  0  0  0  0  0
   -0.4553    3.3608   -0.0482 H   0  0  0  0  0  0  0  0  0  0  0  0
    0.5801    4.6167    0.6423 H   0  0  0  0  0  0  0  0  0  0  0  0
  1  2  1  0
  2  3  1  0
  3  4  1  0
  4  5  2  0
  4  6  1  0
  6  7  1  0
  7  8  2  0
  8  9  1  0
  9 10  2  0
 10 11  1  0
 11 12  1  0
 11 13  1  0
 11 14  1  0
 10 15  1  0
 15 16  2  0
 16 17  1  0
 17 18  1  0
 18 19  1  0
 19 20  1  0
 20 21  2  0
 21 22  1  0
 22 23  1  0
 23 24  1  0
 23 25  1  0
 23 26  1  0
 22 27  2  0
 27 28  1  0
 28 29  1  0
 29 30  1  0
 29 31  1  0
 29 32  1  0
 28 33  2  0
 18 34  1  0
 34 35  2  0
 34 36  1  0
 36 37  1  0
 17 38  1  0
 38 39  1  0
 39 40  1  0
 40 41  1  0
 39  6  1  0
 16  7  1  0
 33 20  1  0
  1 42  1  0
  1 43  1  0
  1 44  1  0
  2 45  1  0
  2 46  1  0
  8 47  1  0
  9 48  1  0
 15 49  1  0
 17 50  1  6
 19 51  1  0
 19 52  1  0
 21 53  1  0
 27 54  1  0
 33 55  1  0
 37 56  1  0
 37 57  1  0
 37 58  1  0
 38 59  1  0
 38 60  1  0
 39 61  1  6
 40 62  1  0
 40 63  1  0
 41 64  1  0
 41 65  1  0
 41 66  1  0
M  END
$$$$
