
     RDKit          3D

 67 71  0  0  0  0  0  0  0  0999 V2000
    2.5292   -1.8691    2.1401 O   0  0  0  0  0  0  0  0  0  0  0  0
    2.6170   -1.8501    0.9172 C   0  0  0  0  0  0  0  0  0  0  0  0
    1.6675   -1.2733    0.0966 N   0  0  0  0  0  0  0  0  0  0  0  0
    0.4082   -0.7903    0.6528 C   0  0  0  0  0  0  0  0  0  0  0  0
   -0.3910    0.2468   -0.2364 C   0  0  0  0  0  0  0  0  0  0  0  0
   -1.6355    0.6641    0.4889 N   0  0  0  0  0  0  0  0  0  0  0  0
   -2.5201    1.6375   -0.1884 C   0  0  0  0  0  0  0  0  0  0  0  0
   -3.9771    1.1871   -0.4735 C   0  0  0  0  0  0  0  0  0  0  0  0
   -4.6340    0.6615    0.7283 N   0  0  0  0  0  0  0  0  0  0  0  0
   -6.0128    0.6499    0.8638 C   0  0  0  0  0  0  0  0  0  0  0  0
   -6.8716    0.7965   -0.2385 C   0  0  0  0  0  0  0  0  0  0  0  0
   -8.2663    0.7837   -0.1033 C   0  0  0  0  0  0  0  0  0  0  0  0
   -8.8441    0.6263    1.1499 C   0  0  0  0  0  0  0  0  0  0  0  0
   -8.0252    0.4833    2.2627 C   0  0  0  0  0  0  0  0  0  0  0  0
   -6.6320    0.4957    2.1160 C   0  0  0  0  0  0  0  0  0  0  0  0
   -3.7586    0.0661    1.7443 C   0  0  0  0  0  0  0  0  0  0  0  0
   -2.4205   -0.4108    1.1266 C   0  0  0  0  0  0  0  0  0  0  0  0
   -0.7105   -0.4160   -1.6067 C   0  0  0  0  0  0  0  0  0  0  0  0
    0.0844    0.2037   -2.7463 C   0  0  0  0  0  0  0  0  0  0  0  0
   -0.1764    1.5985   -2.7866 O   0  0  0  0  0  0  0  0  0  0  0  0
    0.3644    2.3104   -1.6772 C   0  0  0  0  0  0  0  0  0  0  0  0
    0.5447    1.4832   -0.4070 C   0  0  0  0  0  0  0  0  0  0  0  0
    3.7403   -2.5581    0.2596 C   0  0  0  0  0  0  0  0  0  0  0  0
    4.1186   -3.7899    0.8127 C   0  0  0  0  0  0  0  0  0  0  0  0
    5.1512   -4.5226    0.2379 C   0  0  0  0  0  0  0  0  0  0  0  0
    5.7765   -3.9975   -0.8764 C   0  0  0  0  0  0  0  0  0  0  0  0
    5.4490   -2.8091   -1.4277 N   0  0  0  0  0  0  0  0  0  0  0  0
    4.4509   -2.0881   -0.8455 C   0  0  0  0  0  0  0  0  0  0  0  0
    4.1764   -0.4994   -1.6109 S   0  0  0  0  0  0  0  0  0  0  0  0
    5.2942    0.4903   -0.6375 C   0  0  0  0  0  0  0  0  0  0  0  0
    4.8359    1.1685    0.4967 C   0  0  0  0  0  0  0  0  0  0  0  0
    5.7155    1.9456    1.2538 C   0  0  0  0  0  0  0  0  0  0  0  0
    7.0538    2.0519    0.8775 C   0  0  0  0  0  0  0  0  0  0  0  0
    7.5150    1.3821   -0.2547 C   0  0  0  0  0  0  0  0  0  0  0  0
    6.6370    0.6036   -1.0115 C   0  0  0  0  0  0  0  0  0  0  0  0
    1.7138   -1.4809   -0.8923 H   0  0  0  0  0  0  0  0  0  0  0  0
   -0.1832   -1.6984    0.8174 H   0  0  0  0  0  0  0  0  0  0  0  0
    0.6123   -0.3497    1.6371 H   0  0  0  0  0  0  0  0  0  0  0  0
   -2.5622    2.5214    0.4604 H   0  0  0  0  0  0  0  0  0  0  0  0
   -2.1146    1.9837   -1.1381 H   0  0  0  0  0  0  0  0  0  0  0  0
   -4.5143    2.0632   -0.8581 H   0  0  0  0  0  0  0  0  0  0  0  0
   -3.9805    0.4177   -1.2550 H   0  0  0  0  0  0  0  0  0  0  0  0
   -6.4696    0.9029   -1.2418 H   0  0  0  0  0  0  0  0  0  0  0  0
   -8.8943    0.8943   -0.9830 H   0  0  0  0  0  0  0  0  0  0  0  0
   -9.9247    0.6165    1.2590 H   0  0  0  0  0  0  0  0  0  0  0  0
   -8.4626    0.3673    3.2506 H   0  0  0  0  0  0  0  0  0  0  0  0
   -6.0337    0.4051    3.0182 H   0  0  0  0  0  0  0  0  0  0  0  0
   -4.2323   -0.8108    2.2028 H   0  0  0  0  0  0  0  0  0  0  0  0
   -3.5632    0.8001    2.5360 H   0  0  0  0  0  0  0  0  0  0  0  0
   -1.8449   -0.8538    1.9463 H   0  0  0  0  0  0  0  0  0  0  0  0
   -2.6354   -1.2029    0.3981 H   0  0  0  0  0  0  0  0  0  0  0  0
   -0.5461   -1.4996   -1.5814 H   0  0  0  0  0  0  0  0  0  0  0  0
   -1.7727   -0.2969   -1.8504 H   0  0  0  0  0  0  0  0  0  0  0  0
    1.1596    0.0187   -2.6600 H   0  0  0  0  0  0  0  0  0  0  0  0
   -0.2440   -0.2247   -3.6988 H   0  0  0  0  0  0  0  0  0  0  0  0
    1.3311    2.7291   -1.9840 H   0  0  0  0  0  0  0  0  0  0  0  0
   -0.2868    3.1707   -1.4868 H   0  0  0  0  0  0  0  0  0  0  0  0
    1.5881    1.1478   -0.4250 H   0  0  0  0  0  0  0  0  0  0  0  0
    0.4973    2.1395    0.4727 H   0  0  0  0  0  0  0  0  0  0  0  0
    3.6061   -4.1765    1.6918 H   0  0  0  0  0  0  0  0  0  0  0  0
    5.4581   -5.4773    0.6511 H   0  0  0  0  0  0  0  0  0  0  0  0
    6.5865   -4.5294   -1.3685 H   0  0  0  0  0  0  0  0  0  0  0  0
    3.7965    1.0951    0.8080 H   0  0  0  0  0  0  0  0  0  0  0  0
    5.3560    2.4654    2.1384 H   0  0  0  0  0  0  0  0  0  0  0  0
    7.7380    2.6562    1.4684 H   0  0  0  0  0  0  0  0  0  0  0  0
    8.5583    1.4636   -0.5487 H   0  0  0  0  0  0  0  0  0  0  0  0
    7.0093    0.0805   -1.8897 H   0  0  0  0  0  0  0  0  0  0  0  0
  1  2  2  0
  2  3  1  0
  3  4  1  0
  4  5  1  0
  5  6  1  0
  6  7  1  0
  7  8  1  0
  8  9  1  0
  9 10  1  0
 10 11  2  0
 11 12  1  0
 12 13  2  0
 13 14  1  0
 14 15  2  0
  9 16  1  0
 16 17  1  0
  5 18  1  0
 18 19  1  0
 19 20  1  0
 20 21  1  0
 21 22  1  0
  2 23  1  0
 23 24  2  0
 24 25  1  0
 25 26  2  0
 26 27  1  0
 27 28  2  0
 28 29  1  0
 29 30  1  0
 30 31  2  0
 31 32  1  0
 32 33  2  0
 33 34  1  0
 34 35  2  0
 22  5  1  0
 28 23  1  0
 35 30  1  0
 17  6  1  0
 15 10  1  0
  3 36  1  0
  4 37  1  0
  4 38  1  0
  7 39  1  0
  7 40  1  0
  8 41  1  0
  8 42  1  0
 11 43  1  0
 12 44  1  0
 13 45  1  0
 14 46  1  0
 15 47  1  0
 16 48  1  0
 16 49  1  0
 17 50  1  0
 17 51  1  0
 18 52  1  0
 18 53  1  0
 19 54  1  0
 19 55  1  0
 21 56  1  0
 21 57  1  0
 22 58  1  0
 22 59  1  0
 24 60  1  0
 25 61  1  0
 26 62  1  0
 31 63  1  0
 32 64  1  0
 33 65  1  0
 34 66  1  0
 35 67  1  0
M  END
$$$$
