
     RDKit          3D

 55 58  0  0  0  0  0  0  0  0999 V2000
    7.1043   -1.3864   -1.9567 C   0  0  0  0  0  0  0  0  0  0  0  0
    7.0106   -1.7925   -0.4953 C   0  0  0  0  0  0  0  0  0  0  0  0
    5.6693   -2.1262   -0.1433 O   0  0  0  0  0  0  0  0  0  0  0  0
    4.8267   -1.1330    0.2697 C   0  0  0  0  0  0  0  0  0  0  0  0
    5.1170    0.2281    0.3362 C   0  0  0  0  0  0  0  0  0  0  0  0
    4.1470    1.1366    0.7783 C   0  0  0  0  0  0  0  0  0  0  0  0
    2.8707    0.7000    1.1579 C   0  0  0  0  0  0  0  0  0  0  0  0
    1.8239    1.6866    1.6251 C   0  0  0  0  0  0  0  0  0  0  0  0
    0.7762    2.0148    0.5823 C   0  0  0  0  0  0  0  0  0  0  0  0
   -0.3952    1.2305    0.5302 C   0  0  0  0  0  0  0  0  0  0  0  0
   -1.4072    1.4614   -0.4198 C   0  0  0  0  0  0  0  0  0  0  0  0
   -2.6495    0.5915   -0.4759 C   0  0  2  0  0  0  0  0  0  0  0  0
   -3.8065    1.3583   -0.8964 O   0  0  0  0  0  0  0  0  0  0  0  0
   -4.8332    1.0767    0.0642 C   0  0  0  0  0  0  0  0  0  0  0  0
   -4.3622   -0.1844    0.7627 C   0  0  2  0  0  0  0  0  0  0  0  0
   -4.9448   -0.3151    2.1709 C   0  0  0  0  0  0  0  0  0  0  0  0
   -4.2896   -1.3574    2.8930 O   0  0  0  0  0  0  0  0  0  0  0  0
   -2.9488    0.0795    0.8486 O   0  0  0  0  0  0  0  0  0  0  0  0
   -4.5395   -1.4737   -0.0822 C   0  0  1  0  0  0  0  0  0  0  0  0
   -5.9154   -1.8358   -0.2581 O   0  0  0  0  0  0  0  0  0  0  0  0
   -3.8675   -1.3604   -1.4667 C   0  0  2  0  0  0  0  0  0  0  0  0
   -3.7047   -2.6605   -2.0572 O   0  0  0  0  0  0  0  0  0  0  0  0
   -2.5040   -0.6520   -1.4040 C   0  0  1  0  0  0  0  0  0  0  0  0
   -2.1190   -0.3330   -2.7515 O   0  0  0  0  0  0  0  0  0  0  0  0
   -1.2188    2.4977   -1.3438 C   0  0  0  0  0  0  0  0  0  0  0  0
   -0.0674    3.2859   -1.3087 C   0  0  0  0  0  0  0  0  0  0  0  0
    0.9239    3.0489   -0.3532 C   0  0  0  0  0  0  0  0  0  0  0  0
    2.3060    4.0847   -0.3752 Cl  0  0  0  0  0  0  0  0  0  0  0  0
    2.5851   -0.6694    1.0864 C   0  0  0  0  0  0  0  0  0  0  0  0
    3.5554   -1.5732    0.6456 C   0  0  0  0  0  0  0  0  0  0  0  0
    6.6901   -2.1708   -2.5998 H   0  0  0  0  0  0  0  0  0  0  0  0
    6.5310   -0.4765   -2.1580 H   0  0  0  0  0  0  0  0  0  0  0  0
    8.1454   -1.2105   -2.2427 H   0  0  0  0  0  0  0  0  0  0  0  0
    7.6017   -2.7047   -0.3538 H   0  0  0  0  0  0  0  0  0  0  0  0
    7.4487   -1.0458    0.1766 H   0  0  0  0  0  0  0  0  0  0  0  0
    6.0832    0.6258    0.0453 H   0  0  0  0  0  0  0  0  0  0  0  0
    4.4011    2.1942    0.8200 H   0  0  0  0  0  0  0  0  0  0  0  0
    2.2999    2.6040    1.9928 H   0  0  0  0  0  0  0  0  0  0  0  0
    1.3320    1.2750    2.5177 H   0  0  0  0  0  0  0  0  0  0  0  0
   -0.5178    0.4194    1.2470 H   0  0  0  0  0  0  0  0  0  0  0  0
   -5.8005    0.9780   -0.4352 H   0  0  0  0  0  0  0  0  0  0  0  0
   -4.8749    1.9352    0.7436 H   0  0  0  0  0  0  0  0  0  0  0  0
   -6.0175   -0.5304    2.1467 H   0  0  0  0  0  0  0  0  0  0  0  0
   -4.7936    0.6056    2.7453 H   0  0  0  0  0  0  0  0  0  0  0  0
   -3.3369   -1.1471    2.8725 H   0  0  0  0  0  0  0  0  0  0  0  0
   -4.0697   -2.3136    0.4452 H   0  0  0  0  0  0  0  0  0  0  0  0
   -6.3206   -1.2586   -0.9294 H   0  0  0  0  0  0  0  0  0  0  0  0
   -4.5286   -0.8246   -2.1597 H   0  0  0  0  0  0  0  0  0  0  0  0
   -4.5214   -3.1611   -1.8627 H   0  0  0  0  0  0  0  0  0  0  0  0
   -1.7420   -1.3345   -1.0070 H   0  0  0  0  0  0  0  0  0  0  0  0
   -2.1581   -1.1781   -3.2397 H   0  0  0  0  0  0  0  0  0  0  0  0
   -1.9696    2.6891   -2.1093 H   0  0  0  0  0  0  0  0  0  0  0  0
    0.0517    4.0830   -2.0385 H   0  0  0  0  0  0  0  0  0  0  0  0
    1.6064   -1.0476    1.3712 H   0  0  0  0  0  0  0  0  0  0  0  0
    3.3174   -2.6332    0.5929 H   0  0  0  0  0  0  0  0  0  0  0  0
  1  2  1  0
  2  3  1  0
  3  4  1  0
  4  5  2  0
  5  6  1  0
  6  7  2  0
  7  8  1  0
  8  9  1  0
  9 10  2  0
 10 11  1  0
 12 11  1  1
 12 13  1  0
 13 14  1  0
 14 15  1  0
 15 16  1  1
 16 17  1  0
 15 18  1  0
 15 19  1  0
 19 20  1  0
 19 21  1  0
 21 22  1  0
 21 23  1  0
 23 24  1  0
 11 25  2  0
 25 26  1  0
 26 27  2  0
 27 28  1  0
  7 29  1  0
 29 30  2  0
 30  4  1  0
 27  9  1  0
 18 12  1  0
 23 12  1  0
  1 31  1  0
  1 32  1  0
  1 33  1  0
  2 34  1  0
  2 35  1  0
  5 36  1  0
  6 37  1  0
  8 38  1  0
  8 39  1  0
 10 40  1  0
 14 41  1  0
 14 42  1  0
 16 43  1  0
 16 44  1  0
 17 45  1  0
 19 46  1  1
 20 47  1  0
 21 48  1  6
 22 49  1  0
 23 50  1  1
 24 51  1  0
 25 52  1  0
 26 53  1  0
 29 54  1  0
 30 55  1  0
M  END
$$$$
