
     RDKit          3D

 40 40  0  0  0  0  0  0  0  0999 V2000
   -4.7822    2.9574   -0.6254 C   0  0  0  0  0  0  0  0  0  0  0  0
   -3.6993    1.9585   -0.9815 C   0  0  0  0  0  0  0  0  0  0  0  0
   -3.6377    0.9804    0.0459 O   0  0  0  0  0  0  0  0  0  0  0  0
   -2.3162    0.0355    0.1744 P   0  0  0  0  0  5  0  0  0  0  0  0
   -2.6283   -1.4076    1.4403 S   0  0  0  0  0  0  0  0  0  0  0  0
   -2.0904   -0.3261   -1.3866 O   0  0  0  0  0  0  0  0  0  0  0  0
   -1.1853   -1.3456   -1.7729 C   0  0  0  0  0  0  0  0  0  0  0  0
   -1.8703   -2.2393   -2.7914 C   0  0  0  0  0  0  0  0  0  0  0  0
   -1.2131    1.1647    0.5078 O   0  0  0  0  0  0  0  0  0  0  0  0
    0.1061    0.8903    0.7325 C   0  0  0  0  0  0  0  0  0  0  0  0
    0.8907    1.9232    1.1892 C   0  0  0  0  0  0  0  0  0  0  0  0
    2.2158    1.6201    1.4130 C   0  0  0  0  0  0  0  0  0  0  0  0
    3.1571    2.6602    1.9424 C   0  0  0  0  0  0  0  0  0  0  0  0
    2.7121    0.3838    1.2036 N   0  0  0  0  0  0  0  0  0  0  0  0
    1.8598   -0.5595    0.7568 C   0  0  0  0  0  0  0  0  0  0  0  0
    2.3788   -1.9672    0.5686 C   0  0  0  0  0  0  0  0  0  0  0  0
    2.7844   -2.5745    1.9114 C   0  0  0  0  0  0  0  0  0  0  0  0
    3.5367   -2.0037   -0.4272 C   0  0  0  0  0  0  0  0  0  0  0  0
    0.5578   -0.3446    0.4944 N   0  0  0  0  0  0  0  0  0  0  0  0
   -4.8849    3.7191   -1.4064 H   0  0  0  0  0  0  0  0  0  0  0  0
   -4.5494    3.4570    0.3249 H   0  0  0  0  0  0  0  0  0  0  0  0
   -5.7451    2.4509   -0.4924 H   0  0  0  0  0  0  0  0  0  0  0  0
   -3.9413    1.4649   -1.9290 H   0  0  0  0  0  0  0  0  0  0  0  0
   -2.7375    2.4724   -1.0835 H   0  0  0  0  0  0  0  0  0  0  0  0
   -0.2989   -0.8755   -2.2162 H   0  0  0  0  0  0  0  0  0  0  0  0
   -0.8708   -1.9537   -0.9192 H   0  0  0  0  0  0  0  0  0  0  0  0
   -2.1499   -1.6707   -3.6829 H   0  0  0  0  0  0  0  0  0  0  0  0
   -1.2132   -3.0641   -3.0925 H   0  0  0  0  0  0  0  0  0  0  0  0
   -2.7961   -2.6553   -2.3733 H   0  0  0  0  0  0  0  0  0  0  0  0
    0.4867    2.9104    1.3682 H   0  0  0  0  0  0  0  0  0  0  0  0
    3.1231    3.5618    1.3224 H   0  0  0  0  0  0  0  0  0  0  0  0
    4.1885    2.2892    1.9444 H   0  0  0  0  0  0  0  0  0  0  0  0
    2.8839    2.9191    2.9708 H   0  0  0  0  0  0  0  0  0  0  0  0
    1.5678   -2.5797    0.1567 H   0  0  0  0  0  0  0  0  0  0  0  0
    3.1426   -3.6013    1.7781 H   0  0  0  0  0  0  0  0  0  0  0  0
    3.5847   -1.9992    2.3937 H   0  0  0  0  0  0  0  0  0  0  0  0
    1.9327   -2.6034    2.5985 H   0  0  0  0  0  0  0  0  0  0  0  0
    3.2402   -1.5719   -1.3893 H   0  0  0  0  0  0  0  0  0  0  0  0
    4.4050   -1.4425   -0.0616 H   0  0  0  0  0  0  0  0  0  0  0  0
    3.8552   -3.0334   -0.6064 H   0  0  0  0  0  0  0  0  0  0  0  0
  1  2  1  0
  2  3  1  0
  3  4  1  0
  4  5  2  0
  4  6  1  0
  6  7  1  0
  7  8  1  0
  4  9  1  0
  9 10  1  0
 10 11  2  0
 11 12  1  0
 12 13  1  0
 12 14  2  0
 14 15  1  0
 15 16  1  0
 16 17  1  0
 16 18  1  0
 15 19  2  0
 19 10  1  0
  1 20  1  0
  1 21  1  0
  1 22  1  0
  2 23  1  0
  2 24  1  0
  7 25  1  0
  7 26  1  0
  8 27  1  0
  8 28  1  0
  8 29  1  0
 11 30  1  0
 13 31  1  0
 13 32  1  0
 13 33  1  0
 16 34  1  0
 17 35  1  0
 17 36  1  0
 17 37  1  0
 18 38  1  0
 18 39  1  0
 18 40  1  0
M  END
$$$$
