
     RDKit          3D

 49 52  0  0  0  0  0  0  0  0999 V2000
   -2.6331   -0.0728   -1.9594 C   0  0  0  0  0  0  0  0  0  0  0  0
   -2.5158   -1.2537   -0.9847 C   0  0  1  0  0  0  0  0  0  0  0  0
   -1.3896   -2.1499   -1.1399 O   0  0  0  0  0  0  0  0  0  0  0  0
   -0.2655   -1.5760   -1.6608 C   0  0  0  0  0  0  0  0  0  0  0  0
    0.5958   -0.9033   -0.8079 C   0  0  0  0  0  0  0  0  0  0  0  0
    1.6553   -0.1710   -1.3316 C   0  0  0  0  0  0  0  0  0  0  0  0
    1.8650   -0.2553   -2.7034 C   0  0  0  0  0  0  0  0  0  0  0  0
    1.1053   -0.9999   -3.5470 N   0  0  0  0  0  0  0  0  0  0  0  0
    0.0499   -1.6492   -3.0195 C   0  0  0  0  0  0  0  0  0  0  0  0
   -0.6820   -2.4379   -3.9030 N   0  0  0  0  0  0  0  0  0  0  0  0
    2.4532    0.6763   -0.4680 C   0  0  0  0  0  0  0  0  0  0  0  0
    2.0487    1.7173    0.4287 C   0  0  0  0  0  0  0  0  0  0  0  0
    3.1029    2.2279    1.0858 N   0  0  0  0  0  0  0  0  0  0  0  0
    4.1578    1.5393    0.6137 N   0  0  0  0  0  0  0  0  0  0  0  0
    5.4808    1.8406    1.1144 C   0  0  0  0  0  0  0  0  0  0  0  0
    3.8237    0.5886   -0.3097 C   0  0  0  0  0  0  0  0  0  0  0  0
    4.7583   -0.2886   -0.9207 C   0  0  0  0  0  0  0  0  0  0  0  0
    5.5525   -0.9794   -1.4060 N   0  0  0  0  0  0  0  0  0  0  0  0
    0.6683    2.2681    0.6926 C   0  0  0  0  0  0  0  0  0  0  0  0
   -0.2269    1.2534    1.2609 N   0  0  0  0  0  0  0  0  0  0  0  0
    0.1879    0.6259    2.5164 C   0  0  0  0  0  0  0  0  0  0  0  0
   -1.5338    1.2048    0.7614 C   0  0  0  0  0  0  0  0  0  0  0  0
   -1.9788    2.0038   -0.0563 O   0  0  0  0  0  0  0  0  0  0  0  0
   -2.4468    0.1456    1.2524 C   0  0  0  0  0  0  0  0  0  0  0  0
   -2.9502    0.3373    2.5567 C   0  0  0  0  0  0  0  0  0  0  0  0
   -3.7593   -0.6250    3.1544 C   0  0  0  0  0  0  0  0  0  0  0  0
   -4.0728   -1.7728    2.4465 C   0  0  0  0  0  0  0  0  0  0  0  0
   -4.8373   -2.7122    3.0170 F   0  0  0  0  0  0  0  0  0  0  0  0
   -3.6230   -1.9551    1.1411 C   0  0  0  0  0  0  0  0  0  0  0  0
   -2.8286   -0.9821    0.4891 C   0  0  0  0  0  0  0  0  0  0  0  0
   -3.5213    0.5306   -1.7443 H   0  0  0  0  0  0  0  0  0  0  0  0
   -1.7566    0.5786   -1.9555 H   0  0  0  0  0  0  0  0  0  0  0  0
   -2.7282   -0.4392   -2.9876 H   0  0  0  0  0  0  0  0  0  0  0  0
   -3.3528   -1.8854   -1.3195 H   0  0  0  0  0  0  0  0  0  0  0  0
    0.4119   -0.9454    0.2571 H   0  0  0  0  0  0  0  0  0  0  0  0
    2.6690    0.2888   -3.1925 H   0  0  0  0  0  0  0  0  0  0  0  0
   -0.3208   -2.2750   -4.8381 H   0  0  0  0  0  0  0  0  0  0  0  0
   -1.6783   -2.2905   -3.8223 H   0  0  0  0  0  0  0  0  0  0  0  0
    5.8543    0.9633    1.6482 H   0  0  0  0  0  0  0  0  0  0  0  0
    6.1256    2.0845    0.2665 H   0  0  0  0  0  0  0  0  0  0  0  0
    5.4274    2.6950    1.7943 H   0  0  0  0  0  0  0  0  0  0  0  0
    0.7069    3.1034    1.4019 H   0  0  0  0  0  0  0  0  0  0  0  0
    0.2699    2.6588   -0.2503 H   0  0  0  0  0  0  0  0  0  0  0  0
   -0.3599   -0.2992    2.7036 H   0  0  0  0  0  0  0  0  0  0  0  0
   -0.0011    1.3302    3.3318 H   0  0  0  0  0  0  0  0  0  0  0  0
    1.2505    0.3740    2.4943 H   0  0  0  0  0  0  0  0  0  0  0  0
   -2.6986    1.2396    3.1114 H   0  0  0  0  0  0  0  0  0  0  0  0
   -4.1389   -0.4901    4.1620 H   0  0  0  0  0  0  0  0  0  0  0  0
   -3.9211   -2.8664    0.6256 H   0  0  0  0  0  0  0  0  0  0  0  0
  1  2  1  0
  2  3  1  0
  3  4  1  0
  4  5  1  0
  5  6  2  0
  6  7  1  0
  7  8  2  0
  8  9  1  0
  9 10  1  0
  6 11  1  0
 11 12  1  0
 12 13  2  0
 13 14  1  0
 14 15  1  0
 14 16  1  0
 16 17  1  0
 17 18  3  0
 12 19  1  0
 19 20  1  0
 20 21  1  0
 20 22  1  0
 22 23  2  0
 22 24  1  0
 24 25  2  0
 25 26  1  0
 26 27  2  0
 27 28  1  0
 27 29  1  0
 29 30  2  0
 30  2  1  0
  9  4  2  0
 16 11  2  0
 30 24  1  0
  1 31  1  0
  1 32  1  0
  1 33  1  0
  2 34  1  6
  5 35  1  0
  7 36  1  0
 10 37  1  0
 10 38  1  0
 15 39  1  0
 15 40  1  0
 15 41  1  0
 19 42  1  0
 19 43  1  0
 21 44  1  0
 21 45  1  0
 21 46  1  0
 25 47  1  0
 26 48  1  0
 29 49  1  0
M  END
$$$$
