
     RDKit          3D

 47 50  0  0  0  0  0  0  0  0999 V2000
   -2.7543    3.1605   -0.5515 N   0  0  0  0  0  0  0  0  0  0  0  0
   -1.8854    2.1654   -0.0089 C   0  0  0  0  0  0  0  0  0  0  0  0
   -0.5683    2.5104    0.3250 C   0  0  0  0  0  0  0  0  0  0  0  0
   -0.0650    4.2154    0.2907 S   0  0  0  0  0  6  0  0  0  0  0  0
    0.9859    4.3896    1.2691 O   0  0  0  0  0  0  0  0  0  0  0  0
    0.1118    4.5529   -1.1056 O   0  0  0  0  0  0  0  0  0  0  0  0
   -1.3671    5.0144    0.8239 O   0  0  0  0  0  0  0  0  0  0  0  0
    0.3561    1.5510    0.7461 C   0  0  0  0  0  0  0  0  0  0  0  0
    0.0028    0.1984    0.8189 C   0  0  0  0  0  0  0  0  0  0  0  0
    0.9547   -0.7630    1.2261 N   0  0  0  0  0  0  0  0  0  0  0  0
    2.3439   -0.8656    1.0159 C   0  0  0  0  0  0  0  0  0  0  0  0
    3.0781   -1.7220    1.8532 C   0  0  0  0  0  0  0  0  0  0  0  0
    4.4658   -1.8446    1.7353 C   0  0  0  0  0  0  0  0  0  0  0  0
    5.1466   -1.1092    0.7707 C   0  0  0  0  0  0  0  0  0  0  0  0
    4.4257   -0.2631   -0.0735 C   0  0  0  0  0  0  0  0  0  0  0  0
    5.2845    0.6869   -1.2905 S   0  0  0  0  0  6  0  0  0  0  0  0
    5.3755   -0.3945   -2.5728 N   0  0  0  0  0  0  0  0  0  0  0  0
    4.4347    1.7616   -1.7465 O   0  0  0  0  0  0  0  0  0  0  0  0
    6.6447    0.9009   -0.8555 O   0  0  0  0  0  0  0  0  0  0  0  0
    3.0375   -0.1272    0.0541 C   0  0  0  0  0  0  0  0  0  0  0  0
   -1.3244   -0.1720    0.4798 C   0  0  0  0  0  0  0  0  0  0  0  0
   -2.2494    0.7965    0.0471 C   0  0  0  0  0  0  0  0  0  0  0  0
   -3.6235    0.3760   -0.3358 C   0  0  0  0  0  0  0  0  0  0  0  0
   -4.4564    1.2109   -0.6781 O   0  0  0  0  0  0  0  0  0  0  0  0
   -3.9985   -1.0465   -0.3100 C   0  0  0  0  0  0  0  0  0  0  0  0
   -5.2778   -1.4383   -0.7284 C   0  0  0  0  0  0  0  0  0  0  0  0
   -5.6413   -2.7855   -0.7011 C   0  0  0  0  0  0  0  0  0  0  0  0
   -4.7319   -3.7426   -0.2551 C   0  0  0  0  0  0  0  0  0  0  0  0
   -3.4589   -3.3526    0.1636 C   0  0  0  0  0  0  0  0  0  0  0  0
   -3.0922   -1.9999    0.1342 C   0  0  0  0  0  0  0  0  0  0  0  0
   -1.7500   -1.5950    0.5829 C   0  0  0  0  0  0  0  0  0  0  0  0
   -0.9971   -2.4448    1.0503 O   0  0  0  0  0  0  0  0  0  0  0  0
   -2.5328    3.3072   -1.5451 H   0  0  0  0  0  0  0  0  0  0  0  0
   -3.7276    2.7983   -0.5523 H   0  0  0  0  0  0  0  0  0  0  0  0
   -2.1548    4.6596    0.3400 H   0  0  0  0  0  0  0  0  0  0  0  0
    1.3543    1.8687    1.0468 H   0  0  0  0  0  0  0  0  0  0  0  0
    0.5311   -1.6812    1.4178 H   0  0  0  0  0  0  0  0  0  0  0  0
    2.5653   -2.2944    2.6241 H   0  0  0  0  0  0  0  0  0  0  0  0
    5.0107   -2.5073    2.4031 H   0  0  0  0  0  0  0  0  0  0  0  0
    6.2270   -1.1973    0.6829 H   0  0  0  0  0  0  0  0  0  0  0  0
    4.8631   -0.0197   -3.3717 H   0  0  0  0  0  0  0  0  0  0  0  0
    6.3535   -0.6041   -2.7746 H   0  0  0  0  0  0  0  0  0  0  0  0
    2.5059    0.5328   -0.6249 H   0  0  0  0  0  0  0  0  0  0  0  0
   -5.9971   -0.6983   -1.0756 H   0  0  0  0  0  0  0  0  0  0  0  0
   -6.6348   -3.0876   -1.0258 H   0  0  0  0  0  0  0  0  0  0  0  0
   -5.0139   -4.7932   -0.2312 H   0  0  0  0  0  0  0  0  0  0  0  0
   -2.7566   -4.1080    0.5128 H   0  0  0  0  0  0  0  0  0  0  0  0
  1  2  1  0
  2  3  2  0
  3  4  1  0
  4  5  2  0
  4  6  2  0
  4  7  1  0
  3  8  1  0
  8  9  2  0
  9 10  1  0
 10 11  1  0
 11 12  2  0
 12 13  1  0
 13 14  2  0
 14 15  1  0
 15 16  1  0
 16 17  1  0
 16 18  2  0
 16 19  2  0
 15 20  2  0
  9 21  1  0
 21 22  2  0
 22 23  1  0
 23 24  2  0
 23 25  1  0
 25 26  2  0
 26 27  1  0
 27 28  2  0
 28 29  1  0
 29 30  2  0
 30 31  1  0
 31 32  2  0
 22  2  1  0
 30 25  1  0
 20 11  1  0
 31 21  1  0
  1 33  1  0
  1 34  1  0
  7 35  1  0
  8 36  1  0
 10 37  1  0
 12 38  1  0
 13 39  1  0
 14 40  1  0
 17 41  1  0
 17 42  1  0
 20 43  1  0
 26 44  1  0
 27 45  1  0
 28 46  1  0
 29 47  1  0
M  END
$$$$
