
     RDKit          3D

 55 58  0  0  0  0  0  0  0  0999 V2000
   -8.3115    3.9264    0.7332 C   0  0  0  0  0  0  0  0  0  0  0  0
   -7.7448    2.8285    0.0297 O   0  0  0  0  0  0  0  0  0  0  0  0
   -7.3199    1.7668    0.7806 C   0  0  0  0  0  0  0  0  0  0  0  0
   -7.4036    1.6560    2.1684 C   0  0  0  0  0  0  0  0  0  0  0  0
   -6.9263    0.5100    2.8104 C   0  0  0  0  0  0  0  0  0  0  0  0
   -6.3678   -0.5313    2.0694 C   0  0  0  0  0  0  0  0  0  0  0  0
   -6.2860   -0.4401    0.6745 C   0  0  0  0  0  0  0  0  0  0  0  0
   -5.6627   -1.5447   -0.1315 C   0  0  0  0  0  0  0  0  0  0  0  0
   -4.2347   -1.3819   -0.2115 N   0  0  0  0  0  0  0  0  0  0  0  0
   -3.4727   -2.1483   -1.0525 C   0  0  0  0  0  0  0  0  0  0  0  0
   -3.8804   -2.9400   -1.8902 O   0  0  0  0  0  0  0  0  0  0  0  0
   -1.9703   -1.9719   -0.8762 C   0  0  0  0  0  0  0  0  0  0  0  0
   -1.4986   -1.2616    0.1048 N   0  0  0  0  0  0  0  0  0  0  0  0
   -0.1396   -1.2163    0.1401 C   0  0  0  0  0  0  0  0  0  0  0  0
    0.6901   -0.3657    1.3611 S   0  0  0  0  0  0  0  0  0  0  0  0
    2.2118   -0.8203    0.7292 C   0  0  0  0  0  0  0  0  0  0  0  0
    2.1160   -1.5929   -0.4166 C   0  0  0  0  0  0  0  0  0  0  0  0
    3.2785   -2.1442   -1.1950 C   0  0  0  0  0  0  0  0  0  0  0  0
    4.5257   -1.5572   -0.8149 O   0  0  0  0  0  0  0  0  0  0  0  0
    4.8296   -0.3920   -1.5770 C   0  0  0  0  0  0  0  0  0  0  0  0
    6.0091    0.2935   -0.9378 C   0  0  0  0  0  0  0  0  0  0  0  0
    5.8471    1.5007   -0.2441 C   0  0  0  0  0  0  0  0  0  0  0  0
    6.9441    2.1241    0.3572 C   0  0  0  0  0  0  0  0  0  0  0  0
    8.2158    1.5447    0.2768 C   0  0  0  0  0  0  0  0  0  0  0  0
    9.3486    2.2414    0.9322 C   0  0  0  0  0  0  0  0  0  0  0  0
    9.2849    3.2967    1.5358 O   0  0  0  0  0  0  0  0  0  0  0  0
   10.5149    1.5854    0.8013 O   0  0  0  0  0  0  0  0  0  0  0  0
    8.3832    0.3354   -0.4076 C   0  0  0  0  0  0  0  0  0  0  0  0
    7.2849   -0.2856   -1.0088 C   0  0  0  0  0  0  0  0  0  0  0  0
    0.7338   -1.8258   -0.7403 C   0  0  0  0  0  0  0  0  0  0  0  0
    0.1617   -2.6039   -1.8241 C   0  0  0  0  0  0  0  0  0  0  0  0
    0.8293   -3.1969   -2.6636 O   0  0  0  0  0  0  0  0  0  0  0  0
   -1.2094   -2.6235   -1.8239 N   0  0  0  0  0  0  0  0  0  0  0  0
   -6.7573    0.7205    0.0430 C   0  0  0  0  0  0  0  0  0  0  0  0
   -7.5801    4.3806    1.4101 H   0  0  0  0  0  0  0  0  0  0  0  0
   -8.5978    4.6829   -0.0040 H   0  0  0  0  0  0  0  0  0  0  0  0
   -9.2170    3.6265    1.2719 H   0  0  0  0  0  0  0  0  0  0  0  0
   -7.8316    2.4423    2.7806 H   0  0  0  0  0  0  0  0  0  0  0  0
   -6.9897    0.4307    3.8929 H   0  0  0  0  0  0  0  0  0  0  0  0
   -5.9974   -1.4138    2.5870 H   0  0  0  0  0  0  0  0  0  0  0  0
   -6.0809   -1.5781   -1.1448 H   0  0  0  0  0  0  0  0  0  0  0  0
   -5.8708   -2.5194    0.3264 H   0  0  0  0  0  0  0  0  0  0  0  0
   -3.7457   -0.8528    0.5059 H   0  0  0  0  0  0  0  0  0  0  0  0
    3.1172   -0.4991    1.2291 H   0  0  0  0  0  0  0  0  0  0  0  0
    3.3551   -3.2163   -0.9797 H   0  0  0  0  0  0  0  0  0  0  0  0
    3.1252   -2.0347   -2.2746 H   0  0  0  0  0  0  0  0  0  0  0  0
    3.9693    0.2854   -1.6148 H   0  0  0  0  0  0  0  0  0  0  0  0
    5.0808   -0.6786   -2.6051 H   0  0  0  0  0  0  0  0  0  0  0  0
    4.8651    1.9620   -0.1621 H   0  0  0  0  0  0  0  0  0  0  0  0
    6.8022    3.0601    0.8933 H   0  0  0  0  0  0  0  0  0  0  0  0
   11.1553    2.1544    1.2780 H   0  0  0  0  0  0  0  0  0  0  0  0
    9.3613   -0.1356   -0.4741 H   0  0  0  0  0  0  0  0  0  0  0  0
    7.4233   -1.2330   -1.5266 H   0  0  0  0  0  0  0  0  0  0  0  0
   -1.6793   -3.1674   -2.5378 H   0  0  0  0  0  0  0  0  0  0  0  0
   -6.6880    0.8179   -1.0390 H   0  0  0  0  0  0  0  0  0  0  0  0
  1  2  1  0
  2  3  1  0
  3  4  2  0
  4  5  1  0
  5  6  2  0
  6  7  1  0
  7  8  1  0
  8  9  1  0
  9 10  1  0
 10 11  2  0
 10 12  1  0
 12 13  2  0
 13 14  1  0
 14 15  1  0
 15 16  1  0
 16 17  2  0
 17 18  1  0
 18 19  1  0
 19 20  1  0
 20 21  1  0
 21 22  2  0
 22 23  1  0
 23 24  2  0
 24 25  1  0
 25 26  2  0
 25 27  1  0
 24 28  1  0
 28 29  2  0
 17 30  1  0
 30 31  1  0
 31 32  2  0
 31 33  1  0
  7 34  2  0
 34  3  1  0
 33 12  1  0
 30 14  2  0
 29 21  1  0
  1 35  1  0
  1 36  1  0
  1 37  1  0
  4 38  1  0
  5 39  1  0
  6 40  1  0
  8 41  1  0
  8 42  1  0
  9 43  1  0
 16 44  1  0
 18 45  1  0
 18 46  1  0
 20 47  1  0
 20 48  1  0
 22 49  1  0
 23 50  1  0
 27 51  1  0
 28 52  1  0
 29 53  1  0
 33 54  1  0
 34 55  1  0
M  END
$$$$
