
     RDKit          3D

 26 26  0  0  0  0  0  0  0  0999 V2000
    2.3233    1.1871   -0.2911 C   0  0  0  0  0  0  0  0  0  0  0  0
    1.6598    0.6853    0.9806 C   0  0  0  0  0  0  0  0  0  0  0  0
    0.5375   -0.3570    0.8327 C   0  0  0  0  0  0  0  0  0  0  0  0
    0.9120   -1.7558    0.2766 C   0  0  0  0  0  0  0  0  0  0  0  0
    2.2104   -2.1636    0.3976 N   0  0  0  0  0  0  0  0  0  0  0  0
    0.0787   -2.5557   -0.1501 O   0  0  0  0  0  0  0  0  0  0  0  0
   -0.6764    0.1536    0.1885 N   0  0  0  0  0  0  0  0  0  0  0  0
   -1.9772   -0.0688    0.7707 C   0  0  0  0  0  0  0  0  0  0  0  0
   -2.9040    0.6889   -0.1558 C   0  0  0  0  0  0  0  0  0  0  0  0
   -2.2496    0.5218   -1.5193 C   0  0  0  0  0  0  0  0  0  0  0  0
   -0.7854    0.3591   -1.1853 C   0  0  0  0  0  0  0  0  0  0  0  0
    0.1159    0.3491   -2.0072 O   0  0  0  0  0  0  0  0  0  0  0  0
    3.2297    1.7477   -0.0381 H   0  0  0  0  0  0  0  0  0  0  0  0
    2.6132    0.3699   -0.9566 H   0  0  0  0  0  0  0  0  0  0  0  0
    1.6693    1.8762   -0.8322 H   0  0  0  0  0  0  0  0  0  0  0  0
    2.4427    0.2678    1.6262 H   0  0  0  0  0  0  0  0  0  0  0  0
    1.2624    1.5557    1.5189 H   0  0  0  0  0  0  0  0  0  0  0  0
    0.2375   -0.5746    1.8692 H   0  0  0  0  0  0  0  0  0  0  0  0
    2.9616   -1.4887    0.3660 H   0  0  0  0  0  0  0  0  0  0  0  0
    2.4038   -3.0468   -0.0601 H   0  0  0  0  0  0  0  0  0  0  0  0
   -2.0110    0.3128    1.7949 H   0  0  0  0  0  0  0  0  0  0  0  0
   -2.1928   -1.1426    0.7630 H   0  0  0  0  0  0  0  0  0  0  0  0
   -2.9182    1.7518    0.1158 H   0  0  0  0  0  0  0  0  0  0  0  0
   -3.9327    0.3192   -0.1269 H   0  0  0  0  0  0  0  0  0  0  0  0
   -2.4116    1.3939   -2.1570 H   0  0  0  0  0  0  0  0  0  0  0  0
   -2.5987   -0.3861   -2.0207 H   0  0  0  0  0  0  0  0  0  0  0  0
  1  2  1  0
  2  3  1  0
  3  4  1  0
  4  5  1  0
  4  6  2  0
  3  7  1  0
  7  8  1  0
  8  9  1  0
  9 10  1  0
 10 11  1  0
 11 12  2  0
 11  7  1  0
  1 13  1  0
  1 14  1  0
  1 15  1  0
  2 16  1  0
  2 17  1  0
  3 18  1  0
  5 19  1  0
  5 20  1  0
  8 21  1  0
  8 22  1  0
  9 23  1  0
  9 24  1  0
 10 25  1  0
 10 26  1  0
M  END
$$$$
