
     RDKit          3D

 77 80  0  0  0  0  0  0  0  0999 V2000
   -0.6796   -2.8795    0.6692 C   0  0  0  0  0  0  0  0  0  0  0  0
   -1.6998   -2.0651    1.4488 C   0  0  0  0  0  0  0  0  0  0  0  0
   -3.0148   -2.0758    0.8038 N   0  0  0  0  0  0  0  0  0  0  0  0
   -3.9192   -3.1643    1.1791 C   0  0  0  0  0  0  0  0  0  0  0  0
   -4.8846   -2.7474    2.2755 C   0  0  0  0  0  0  0  0  0  0  0  0
   -3.2928   -1.0741   -0.1308 C   0  0  0  0  0  0  0  0  0  0  0  0
   -2.4406   -0.2179   -0.3930 O   0  0  0  0  0  0  0  0  0  0  0  0
   -4.6870   -1.0539   -0.7655 C   0  0  0  0  0  0  0  0  0  0  0  0
   -4.7225   -0.2396   -2.3952 S   0  0  0  0  0  0  0  0  0  0  0  0
   -4.1978    1.3631   -1.9197 C   0  0  0  0  0  0  0  0  0  0  0  0
   -4.8325    1.9042   -0.9304 N   0  0  0  0  0  0  0  0  0  0  0  0
   -4.4384    3.1713   -0.4982 C   0  0  0  0  0  0  0  0  0  0  0  0
   -5.1321    3.7627    0.5633 C   0  0  0  0  0  0  0  0  0  0  0  0
   -4.7288    5.0108    0.9909 C   0  0  0  0  0  0  0  0  0  0  0  0
   -3.6721    5.6707    0.4075 C   0  0  0  0  0  0  0  0  0  0  0  0
   -2.9643    5.1217   -0.6378 C   0  0  0  0  0  0  0  0  0  0  0  0
   -3.3660    3.8559   -1.0881 C   0  0  0  0  0  0  0  0  0  0  0  0
   -2.6769    3.2044   -2.2147 C   0  0  0  0  0  0  0  0  0  0  0  0
   -1.7178    3.7774   -2.7297 O   0  0  0  0  0  0  0  0  0  0  0  0
   -3.1636    1.9636   -2.6235 N   0  0  0  0  0  0  0  0  0  0  0  0
   -2.5064    1.3565   -3.7917 C   0  0  0  0  0  0  0  0  0  0  0  0
   -1.4262    0.3221   -3.4569 C   0  0  0  0  0  0  0  0  0  0  0  0
   -0.2633    0.8917   -2.6494 C   0  0  0  0  0  0  0  0  0  0  0  0
    0.7732   -0.1676   -2.3263 C   0  0  0  0  0  0  0  0  0  0  0  0
    0.7670   -1.2987   -2.8003 O   0  0  0  0  0  0  0  0  0  0  0  0
    1.7527    0.2933   -1.4666 N   0  0  0  0  0  0  0  0  0  0  0  0
    2.7526   -0.6113   -0.9318 C   0  0  0  0  0  0  0  0  0  0  0  0
    4.0059    0.1385   -0.4823 C   0  0  0  0  0  0  0  0  0  0  0  0
    5.0627   -0.7950    0.0527 C   0  0  0  0  0  0  0  0  0  0  0  0
    5.9190   -1.4642   -0.8271 C   0  0  0  0  0  0  0  0  0  0  0  0
    6.8885   -2.3451   -0.3422 C   0  0  0  0  0  0  0  0  0  0  0  0
    7.0162   -2.5707    1.0319 C   0  0  0  0  0  0  0  0  0  0  0  0
    7.9377   -3.4185    1.5965 O   0  0  0  0  0  0  0  0  0  0  0  0
    8.8822   -4.0326    0.7293 C   0  0  0  0  0  0  0  0  0  0  0  0
    6.1553   -1.9051    1.9274 C   0  0  0  0  0  0  0  0  0  0  0  0
    6.3401   -2.1861    3.2591 O   0  0  0  0  0  0  0  0  0  0  0  0
    5.5801   -1.4444    4.2002 C   0  0  0  0  0  0  0  0  0  0  0  0
    5.1830   -1.0263    1.4313 C   0  0  0  0  0  0  0  0  0  0  0  0
   -3.4385    6.8821    0.9776 O   0  0  0  0  0  0  0  0  0  0  0  0
   -4.4755    6.9171    1.9805 C   0  0  0  0  0  0  0  0  0  0  0  0
   -5.2915    5.7266    2.0011 O   0  0  0  0  0  0  0  0  0  0  0  0
   -0.9840   -3.9291    0.6032 H   0  0  0  0  0  0  0  0  0  0  0  0
    0.2976   -2.8374    1.1612 H   0  0  0  0  0  0  0  0  0  0  0  0
   -0.5664   -2.5008   -0.3516 H   0  0  0  0  0  0  0  0  0  0  0  0
   -1.3396   -1.0339    1.5406 H   0  0  0  0  0  0  0  0  0  0  0  0
   -1.8025   -2.4552    2.4680 H   0  0  0  0  0  0  0  0  0  0  0  0
   -3.3194   -4.0155    1.5201 H   0  0  0  0  0  0  0  0  0  0  0  0
   -4.4720   -3.5133    0.3051 H   0  0  0  0  0  0  0  0  0  0  0  0
   -5.5121   -1.9087    1.9608 H   0  0  0  0  0  0  0  0  0  0  0  0
   -5.5402   -3.5827    2.5389 H   0  0  0  0  0  0  0  0  0  0  0  0
   -4.3446   -2.4402    3.1769 H   0  0  0  0  0  0  0  0  0  0  0  0
   -5.3831   -0.5616   -0.0801 H   0  0  0  0  0  0  0  0  0  0  0  0
   -5.0438   -2.0658   -0.9528 H   0  0  0  0  0  0  0  0  0  0  0  0
   -5.9653    3.2531    1.0361 H   0  0  0  0  0  0  0  0  0  0  0  0
   -2.1356    5.6528   -1.0943 H   0  0  0  0  0  0  0  0  0  0  0  0
   -2.0606    2.1444   -4.4096 H   0  0  0  0  0  0  0  0  0  0  0  0
   -3.2693    0.8904   -4.4247 H   0  0  0  0  0  0  0  0  0  0  0  0
   -1.8598   -0.5286   -2.9216 H   0  0  0  0  0  0  0  0  0  0  0  0
   -1.0397   -0.0872   -4.3992 H   0  0  0  0  0  0  0  0  0  0  0  0
    0.2314    1.6900   -3.2144 H   0  0  0  0  0  0  0  0  0  0  0  0
   -0.6225    1.3105   -1.7040 H   0  0  0  0  0  0  0  0  0  0  0  0
    1.5343    1.1308   -0.9394 H   0  0  0  0  0  0  0  0  0  0  0  0
    2.2913   -1.1405   -0.0899 H   0  0  0  0  0  0  0  0  0  0  0  0
    3.0004   -1.3643   -1.6897 H   0  0  0  0  0  0  0  0  0  0  0  0
    3.7466    0.8827    0.2830 H   0  0  0  0  0  0  0  0  0  0  0  0
    4.4222    0.7146   -1.3195 H   0  0  0  0  0  0  0  0  0  0  0  0
    5.8361   -1.3081   -1.9017 H   0  0  0  0  0  0  0  0  0  0  0  0
    7.5252   -2.8431   -1.0656 H   0  0  0  0  0  0  0  0  0  0  0  0
    9.5610   -4.6335    1.3434 H   0  0  0  0  0  0  0  0  0  0  0  0
    8.3889   -4.7091    0.0239 H   0  0  0  0  0  0  0  0  0  0  0  0
    9.4881   -3.2823    0.2071 H   0  0  0  0  0  0  0  0  0  0  0  0
    4.5127   -1.6700    4.1103 H   0  0  0  0  0  0  0  0  0  0  0  0
    5.8991   -1.7503    5.2004 H   0  0  0  0  0  0  0  0  0  0  0  0
    5.7682   -0.3699    4.1030 H   0  0  0  0  0  0  0  0  0  0  0  0
    4.5034   -0.5102    2.1016 H   0  0  0  0  0  0  0  0  0  0  0  0
   -5.1208    7.7823    1.7853 H   0  0  0  0  0  0  0  0  0  0  0  0
   -4.0085    7.0394    2.9641 H   0  0  0  0  0  0  0  0  0  0  0  0
  1  2  1  0
  2  3  1  0
  3  4  1  0
  4  5  1  0
  3  6  1  0
  6  7  2  0
  6  8  1  0
  8  9  1  0
  9 10  1  0
 10 11  2  0
 11 12  1  0
 12 13  2  0
 13 14  1  0
 14 15  2  0
 15 16  1  0
 16 17  2  0
 17 18  1  0
 18 19  2  0
 18 20  1  0
 20 21  1  0
 21 22  1  0
 22 23  1  0
 23 24  1  0
 24 25  2  0
 24 26  1  0
 26 27  1  0
 27 28  1  0
 28 29  1  0
 29 30  2  0
 30 31  1  0
 31 32  2  0
 32 33  1  0
 33 34  1  0
 32 35  1  0
 35 36  1  0
 36 37  1  0
 35 38  2  0
 15 39  1  0
 39 40  1  0
 40 41  1  0
 20 10  1  0
 38 29  1  0
 17 12  1  0
 41 14  1  0
  1 42  1  0
  1 43  1  0
  1 44  1  0
  2 45  1  0
  2 46  1  0
  4 47  1  0
  4 48  1  0
  5 49  1  0
  5 50  1  0
  5 51  1  0
  8 52  1  0
  8 53  1  0
 13 54  1  0
 16 55  1  0
 21 56  1  0
 21 57  1  0
 22 58  1  0
 22 59  1  0
 23 60  1  0
 23 61  1  0
 26 62  1  0
 27 63  1  0
 27 64  1  0
 28 65  1  0
 28 66  1  0
 30 67  1  0
 31 68  1  0
 34 69  1  0
 34 70  1  0
 34 71  1  0
 37 72  1  0
 37 73  1  0
 37 74  1  0
 38 75  1  0
 40 76  1  0
 40 77  1  0
M  END
$$$$
