
     RDKit          3D

 46 48  0  0  0  0  0  0  0  0999 V2000
   -5.8102   -1.4369   -1.9571 C   0  0  0  0  0  0  0  0  0  0  0  0
   -5.6532   -1.0771   -0.4826 C   0  0  0  0  0  0  0  0  0  0  0  0
   -6.7845   -1.6930    0.3355 C   0  0  0  0  0  0  0  0  0  0  0  0
   -4.4276   -1.6190    0.0244 O   0  0  0  0  0  0  0  0  0  0  0  0
   -3.3273   -0.8797   -0.1229 C   0  0  0  0  0  0  0  0  0  0  0  0
   -3.0203    0.3383   -0.6879 C   0  0  0  0  0  0  0  0  0  0  0  0
   -1.6285    0.5245   -0.4800 C   0  0  0  0  0  0  0  0  0  0  0  0
   -0.9922    1.6277   -0.9342 N   0  0  0  0  0  0  0  0  0  0  0  0
    0.2831    2.1249   -0.5692 C   0  0  0  0  0  0  0  0  0  0  0  0
    0.8945    1.6626    0.5400 N   0  0  0  0  0  0  0  0  0  0  0  0
    2.1328    2.0814    0.8158 C   0  0  0  0  0  0  0  0  0  0  0  0
    2.7052    1.5011    1.9366 N   0  0  0  0  0  0  0  0  0  0  0  0
    4.0610    0.9906    1.7218 C   0  0  1  0  0  0  0  0  0  0  0  0
    4.5883    0.4739    3.0642 C   0  0  0  0  0  0  0  0  0  0  0  0
    4.1834   -0.1250    0.6766 C   0  0  0  0  0  0  0  0  0  0  0  0
    3.1492   -1.0347    0.4227 C   0  0  0  0  0  0  0  0  0  0  0  0
    3.3333   -2.0324   -0.5348 C   0  0  0  0  0  0  0  0  0  0  0  0
    4.5429   -2.1071   -1.2015 C   0  0  0  0  0  0  0  0  0  0  0  0
    4.7512   -3.0532   -2.1252 F   0  0  0  0  0  0  0  0  0  0  0  0
    5.5287   -1.1906   -0.8937 C   0  0  0  0  0  0  0  0  0  0  0  0
    5.3805   -0.2100    0.0297 N   0  0  0  0  0  0  0  0  0  0  0  0
    2.8092    2.9648    0.0760 N   0  0  0  0  0  0  0  0  0  0  0  0
    2.1793    3.4362   -1.0167 C   0  0  0  0  0  0  0  0  0  0  0  0
    0.9143    3.0486   -1.3930 C   0  0  0  0  0  0  0  0  0  0  0  0
    0.1849    3.6992   -2.8084 Cl  0  0  0  0  0  0  0  0  0  0  0  0
   -1.0979   -0.5279    0.1487 N   0  0  0  0  0  0  0  0  0  0  0  0
   -2.1395   -1.3435    0.3660 N   0  0  0  0  0  0  0  0  0  0  0  0
   -5.0087   -0.9936   -2.5568 H   0  0  0  0  0  0  0  0  0  0  0  0
   -6.7681   -1.0831   -2.3509 H   0  0  0  0  0  0  0  0  0  0  0  0
   -5.7485   -2.5209   -2.1042 H   0  0  0  0  0  0  0  0  0  0  0  0
   -5.6941    0.0106   -0.3448 H   0  0  0  0  0  0  0  0  0  0  0  0
   -7.7609   -1.3265    0.0041 H   0  0  0  0  0  0  0  0  0  0  0  0
   -6.7750   -2.7862    0.2609 H   0  0  0  0  0  0  0  0  0  0  0  0
   -6.6626   -1.4494    1.3966 H   0  0  0  0  0  0  0  0  0  0  0  0
   -3.7017    1.0118   -1.1844 H   0  0  0  0  0  0  0  0  0  0  0  0
   -1.5360    2.3460   -1.3972 H   0  0  0  0  0  0  0  0  0  0  0  0
    2.0376    0.7977    2.2343 H   0  0  0  0  0  0  0  0  0  0  0  0
    4.7154    1.8181    1.4155 H   0  0  0  0  0  0  0  0  0  0  0  0
    4.5582    1.2639    3.8230 H   0  0  0  0  0  0  0  0  0  0  0  0
    3.9869   -0.3641    3.4365 H   0  0  0  0  0  0  0  0  0  0  0  0
    5.6245    0.1286    2.9777 H   0  0  0  0  0  0  0  0  0  0  0  0
    2.1951   -0.9728    0.9377 H   0  0  0  0  0  0  0  0  0  0  0  0
    2.5400   -2.7365   -0.7615 H   0  0  0  0  0  0  0  0  0  0  0  0
    6.4896   -1.2228   -1.3959 H   0  0  0  0  0  0  0  0  0  0  0  0
    2.7501    4.1533   -1.5988 H   0  0  0  0  0  0  0  0  0  0  0  0
   -1.9822   -2.2178    0.8519 H   0  0  0  0  0  0  0  0  0  0  0  0
  1  2  1  0
  2  3  1  0
  2  4  1  0
  4  5  1  0
  5  6  2  0
  6  7  1  0
  7  8  1  0
  8  9  1  0
  9 10  2  0
 10 11  1  0
 11 12  1  0
 12 13  1  0
 13 14  1  0
 13 15  1  0
 15 16  2  0
 16 17  1  0
 17 18  2  0
 18 19  1  0
 18 20  1  0
 20 21  2  0
 11 22  2  0
 22 23  1  0
 23 24  2  0
 24 25  1  0
  7 26  2  0
 26 27  1  0
 27  5  1  0
 24  9  1  0
 21 15  1  0
  1 28  1  0
  1 29  1  0
  1 30  1  0
  2 31  1  0
  3 32  1  0
  3 33  1  0
  3 34  1  0
  6 35  1  0
  8 36  1  0
 12 37  1  0
 13 38  1  6
 14 39  1  0
 14 40  1  0
 14 41  1  0
 16 42  1  0
 17 43  1  0
 20 44  1  0
 23 45  1  0
 27 46  1  0
M  END
$$$$
