
     RDKit          3D

 45 47  0  0  0  0  0  0  0  0999 V2000
   -1.3317    1.6088   -0.2792 C   0  0  0  0  0  0  0  0  0  0  0  0
   -2.5139    1.2792    0.5400 N   0  0  0  0  0  0  0  0  0  0  0  0
   -3.3502    2.4800    0.7774 C   0  0  0  0  0  0  0  0  0  0  0  0
   -3.4275   -0.0624    0.0294 S   0  0  0  0  0  6  0  0  0  0  0  0
   -4.5771   -0.1518    0.9010 O   0  0  0  0  0  0  0  0  0  0  0  0
   -3.5771    0.0189   -1.4047 O   0  0  0  0  0  0  0  0  0  0  0  0
   -2.4223   -1.3281    0.4098 N   0  0  0  0  0  0  0  0  0  0  0  0
   -1.5325   -1.9076   -0.6193 C   0  0  0  0  0  0  0  0  0  0  0  0
   -0.6648   -3.0386   -0.0336 C   0  0  0  0  0  0  0  0  0  0  0  0
    0.1220   -2.6713    1.1521 N   0  0  0  0  0  0  0  0  0  0  0  0
    1.5555   -2.4911    0.9103 C   0  0  0  0  0  0  0  0  0  0  0  0
    1.8672   -1.3830    0.0058 N   0  0  0  0  0  0  0  0  0  0  0  0
    1.7475   -1.6347   -1.3518 N   0  0  0  0  0  0  0  0  0  0  0  0
    2.0565   -0.6935   -2.1856 C   0  0  0  0  0  0  0  0  0  0  0  0
    2.5249    0.6261   -1.7902 C   0  0  0  0  0  0  0  0  0  0  0  0
    2.7990    1.6073   -2.7443 C   0  0  0  0  0  0  0  0  0  0  0  0
    3.2413    2.8614   -2.3211 C   0  0  0  0  0  0  0  0  0  0  0  0
    3.4081    3.1234   -0.9587 C   0  0  0  0  0  0  0  0  0  0  0  0
    3.1328    2.1317   -0.0142 C   0  0  0  0  0  0  0  0  0  0  0  0
    2.6867    0.8753   -0.4368 C   0  0  0  0  0  0  0  0  0  0  0  0
    2.3709   -0.1913    0.5315 C   0  0  0  0  0  0  0  0  0  0  0  0
    2.5455    0.0269    1.7279 O   0  0  0  0  0  0  0  0  0  0  0  0
   -0.4831   -1.5837    1.9370 C   0  0  0  0  0  0  0  0  0  0  0  0
   -2.0175   -1.5315    1.8194 C   0  0  0  0  0  0  0  0  0  0  0  0
   -1.6050    1.7986   -1.3211 H   0  0  0  0  0  0  0  0  0  0  0  0
   -0.8422    2.5082    0.1099 H   0  0  0  0  0  0  0  0  0  0  0  0
   -0.5887    0.8138   -0.2283 H   0  0  0  0  0  0  0  0  0  0  0  0
   -4.1075    2.2802    1.5405 H   0  0  0  0  0  0  0  0  0  0  0  0
   -3.8336    2.8091   -0.1475 H   0  0  0  0  0  0  0  0  0  0  0  0
   -2.7320    3.3005    1.1567 H   0  0  0  0  0  0  0  0  0  0  0  0
   -2.1508   -2.3286   -1.4202 H   0  0  0  0  0  0  0  0  0  0  0  0
   -0.8987   -1.1349   -1.0568 H   0  0  0  0  0  0  0  0  0  0  0  0
   -0.0447   -3.4880   -0.8176 H   0  0  0  0  0  0  0  0  0  0  0  0
   -1.3416   -3.8456    0.2795 H   0  0  0  0  0  0  0  0  0  0  0  0
    2.0720   -2.3505    1.8672 H   0  0  0  0  0  0  0  0  0  0  0  0
    1.9786   -3.4064    0.4771 H   0  0  0  0  0  0  0  0  0  0  0  0
    1.9546   -0.9020   -3.2637 H   0  0  0  0  0  0  0  0  0  0  0  0
    2.6723    1.4102   -3.8056 H   0  0  0  0  0  0  0  0  0  0  0  0
    3.4584    3.6377   -3.0520 H   0  0  0  0  0  0  0  0  0  0  0  0
    3.7548    4.1015   -0.6315 H   0  0  0  0  0  0  0  0  0  0  0  0
    3.2650    2.3403    1.0460 H   0  0  0  0  0  0  0  0  0  0  0  0
   -0.2086   -1.7132    2.9899 H   0  0  0  0  0  0  0  0  0  0  0  0
   -0.1021   -0.6069    1.6233 H   0  0  0  0  0  0  0  0  0  0  0  0
   -2.4646   -2.4654    2.1817 H   0  0  0  0  0  0  0  0  0  0  0  0
   -2.3959   -0.7288    2.4616 H   0  0  0  0  0  0  0  0  0  0  0  0
  1  2  1  0
  2  3  1  0
  2  4  1  0
  4  5  2  0
  4  6  2  0
  4  7  1  0
  7  8  1  0
  8  9  1  0
  9 10  1  0
 10 11  1  0
 11 12  1  0
 12 13  1  0
 13 14  2  0
 14 15  1  0
 15 16  2  0
 16 17  1  0
 17 18  2  0
 18 19  1  0
 19 20  2  0
 20 21  1  0
 21 22  2  0
 10 23  1  0
 23 24  1  0
 24  7  1  0
 21 12  1  0
 20 15  1  0
  1 25  1  0
  1 26  1  0
  1 27  1  0
  3 28  1  0
  3 29  1  0
  3 30  1  0
  8 31  1  0
  8 32  1  0
  9 33  1  0
  9 34  1  0
 11 35  1  0
 11 36  1  0
 14 37  1  0
 16 38  1  0
 17 39  1  0
 18 40  1  0
 19 41  1  0
 23 42  1  0
 23 43  1  0
 24 44  1  0
 24 45  1  0
M  END
$$$$
