
     RDKit          3D

 45 48  0  0  0  0  0  0  0  0999 V2000
   -3.5238   -4.4511    1.2648 C   0  0  0  0  0  0  0  0  0  0  0  0
   -3.4423   -3.1729    0.5317 C   0  0  0  0  0  0  0  0  0  0  0  0
   -4.5238   -2.5138    0.1037 N   0  0  0  0  0  0  0  0  0  0  0  0
   -3.9691   -1.4393   -0.4798 N   0  0  0  0  0  0  0  0  0  0  0  0
   -2.6031   -1.4708   -0.3995 C   0  0  0  0  0  0  0  0  0  0  0  0
   -1.7419   -0.4094   -1.0054 C   0  0  2  0  0  0  0  0  0  0  0  0
   -0.2543   -0.7797   -0.9454 C   0  0  0  0  0  0  0  0  0  0  0  0
    0.4354    0.5774   -0.8687 C   0  0  2  0  0  0  0  0  0  0  0  0
    1.7924    0.4931   -0.3644 N   0  0  0  0  0  0  0  0  0  0  0  0
    2.8272    0.1378   -1.2088 C   0  0  0  0  0  0  0  0  0  0  0  0
    2.6850   -0.0147   -2.4164 O   0  0  0  0  0  0  0  0  0  0  0  0
    4.1505   -0.1002   -0.5690 C   0  0  0  0  0  0  0  0  0  0  0  0
    4.5287    0.5439    0.6166 C   0  0  0  0  0  0  0  0  0  0  0  0
    5.7813    0.2890    1.1802 C   0  0  0  0  0  0  0  0  0  0  0  0
    6.6598   -0.5999    0.5605 C   0  0  0  0  0  0  0  0  0  0  0  0
    6.2936   -1.2311   -0.6278 C   0  0  0  0  0  0  0  0  0  0  0  0
    5.0436   -0.9784   -1.1951 C   0  0  0  0  0  0  0  0  0  0  0  0
   -0.5107    1.3799    0.0279 C   0  0  0  0  0  0  0  0  0  0  0  0
   -1.8379    0.8571   -0.2736 N   0  0  0  0  0  0  0  0  0  0  0  0
   -3.0066    1.6083   -0.2748 C   0  0  0  0  0  0  0  0  0  0  0  0
   -3.9940    1.2244   -0.9085 O   0  0  0  0  0  0  0  0  0  0  0  0
   -3.0568    2.8523    0.5150 C   0  0  0  0  0  0  0  0  0  0  0  0
   -4.1153    3.7443    0.4306 C   0  0  0  0  0  0  0  0  0  0  0  0
   -3.8837    5.0662    1.4945 S   0  0  0  0  0  0  0  0  0  0  0  0
   -2.4108    4.3642    2.0107 C   0  0  0  0  0  0  0  0  0  0  0  0
   -2.0802    3.2258    1.4427 N   0  0  0  0  0  0  0  0  0  0  0  0
   -2.2473   -2.5654    0.2450 N   0  0  0  0  0  0  0  0  0  0  0  0
   -3.6297   -4.2661    2.3385 H   0  0  0  0  0  0  0  0  0  0  0  0
   -2.6189   -5.0466    1.1058 H   0  0  0  0  0  0  0  0  0  0  0  0
   -4.3811   -5.0443    0.9294 H   0  0  0  0  0  0  0  0  0  0  0  0
   -4.5536   -0.7059   -0.8758 H   0  0  0  0  0  0  0  0  0  0  0  0
   -2.0422   -0.2228   -2.0444 H   0  0  0  0  0  0  0  0  0  0  0  0
    0.0606   -1.3673   -1.8143 H   0  0  0  0  0  0  0  0  0  0  0  0
   -0.0099   -1.3675   -0.0506 H   0  0  0  0  0  0  0  0  0  0  0  0
    0.4536    1.0266   -1.8707 H   0  0  0  0  0  0  0  0  0  0  0  0
    1.9154    0.3156    0.6250 H   0  0  0  0  0  0  0  0  0  0  0  0
    3.8756    1.2659    1.0973 H   0  0  0  0  0  0  0  0  0  0  0  0
    6.0779    0.7907    2.0981 H   0  0  0  0  0  0  0  0  0  0  0  0
    7.6356   -0.7947    0.9991 H   0  0  0  0  0  0  0  0  0  0  0  0
    6.9820   -1.9163   -1.1163 H   0  0  0  0  0  0  0  0  0  0  0  0
    4.7652   -1.4693   -2.1258 H   0  0  0  0  0  0  0  0  0  0  0  0
   -0.3124    1.2036    1.0910 H   0  0  0  0  0  0  0  0  0  0  0  0
   -0.4281    2.4482   -0.1910 H   0  0  0  0  0  0  0  0  0  0  0  0
   -4.9940    3.6753   -0.1958 H   0  0  0  0  0  0  0  0  0  0  0  0
   -1.7920    4.8377    2.7623 H   0  0  0  0  0  0  0  0  0  0  0  0
  1  2  1  0
  2  3  2  0
  3  4  1  0
  4  5  1  0
  5  6  1  0
  6  7  1  0
  7  8  1  0
  8  9  1  0
  9 10  1  0
 10 11  2  0
 10 12  1  0
 12 13  2  0
 13 14  1  0
 14 15  2  0
 15 16  1  0
 16 17  2  0
  8 18  1  0
 18 19  1  0
 19 20  1  0
 20 21  2  0
 20 22  1  0
 22 23  2  0
 23 24  1  0
 24 25  1  0
 25 26  2  0
  5 27  2  0
 27  2  1  0
 19  6  1  0
 26 22  1  0
 17 12  1  0
  1 28  1  0
  1 29  1  0
  1 30  1  0
  4 31  1  0
  6 32  1  6
  7 33  1  0
  7 34  1  0
  8 35  1  6
  9 36  1  0
 13 37  1  0
 14 38  1  0
 15 39  1  0
 16 40  1  0
 17 41  1  0
 18 42  1  0
 18 43  1  0
 23 44  1  0
 25 45  1  0
M  END
$$$$
