
     RDKit          3D

 58 62  0  0  0  0  0  0  0  0999 V2000
   -6.9413    6.2137    0.7285 N   0  0  0  0  0  0  0  0  0  0  0  0
   -6.4729    5.1707    0.5312 C   0  0  0  0  0  0  0  0  0  0  0  0
   -5.8910    3.8868    0.2818 C   0  0  0  0  0  0  0  0  0  0  0  0
   -6.7015    2.7921    0.0120 C   0  0  0  0  0  0  0  0  0  0  0  0
   -6.0789    1.5832   -0.2127 C   0  0  0  0  0  0  0  0  0  0  0  0
   -4.7403    1.4160   -0.1877 N   0  0  0  0  0  0  0  0  0  0  0  0
   -3.9480    2.4752    0.0684 C   0  0  0  0  0  0  0  0  0  0  0  0
   -2.5371    2.3746    0.1340 N   0  0  0  0  0  0  0  0  0  0  0  0
   -1.7435    1.2036    0.0489 C   0  0  0  0  0  0  0  0  0  0  0  0
   -0.3581    1.3674    0.0707 C   0  0  0  0  0  0  0  0  0  0  0  0
    0.4807    0.2514    0.0418 C   0  0  0  0  0  0  0  0  0  0  0  0
    1.9856    0.4244    0.0722 C   0  0  0  0  0  0  0  0  0  0  0  0
    2.6440    0.0079   -1.2582 C   0  0  0  0  0  0  0  0  0  0  0  0
    4.0721   -0.5196   -1.0719 C   0  0  0  0  0  0  0  0  0  0  0  0
    4.7585    0.2440   -0.0251 N   0  0  0  0  0  0  0  0  0  0  0  0
    6.1925   -0.1144    0.0064 C   0  0  0  0  0  0  0  0  0  0  0  0
    6.9529    0.5454   -1.1597 C   0  0  0  0  0  0  0  0  0  0  0  0
    7.9297    1.1038   -0.2369 O   0  0  0  0  0  0  0  0  0  0  0  0
    6.9993    0.8828    0.8599 C   0  0  0  0  0  0  0  0  0  0  0  0
    4.1531   -0.0128    1.2973 C   0  0  0  0  0  0  0  0  0  0  0  0
    2.6464   -0.3074    1.2463 C   0  0  0  0  0  0  0  0  0  0  0  0
   -0.1216   -1.0085   -0.0075 C   0  0  0  0  0  0  0  0  0  0  0  0
   -1.5094   -1.1231   -0.0195 C   0  0  0  0  0  0  0  0  0  0  0  0
   -2.1204   -2.3700   -0.0364 N   0  0  0  0  0  0  0  0  0  0  0  0
   -3.5865   -2.3707   -0.1114 C   0  0  0  0  0  0  0  0  0  0  0  0
   -3.9168   -3.8276   -0.4056 C   0  0  0  0  0  0  0  0  0  0  0  0
   -2.8343   -4.1915   -1.3967 C   0  0  0  0  0  0  0  0  0  0  0  0
   -3.1982   -3.8127   -2.6460 F   0  0  0  0  0  0  0  0  0  0  0  0
   -2.6208   -5.5236   -1.4257 F   0  0  0  0  0  0  0  0  0  0  0  0
   -1.5961   -3.4150   -0.9333 C   0  0  0  0  0  0  0  0  0  0  0  0
   -2.2887   -0.0253    0.0351 N   0  0  0  0  0  0  0  0  0  0  0  0
   -4.5040    3.7302    0.3120 C   0  0  0  0  0  0  0  0  0  0  0  0
   -7.7830    2.8697   -0.0190 H   0  0  0  0  0  0  0  0  0  0  0  0
   -6.6499    0.6838   -0.4249 H   0  0  0  0  0  0  0  0  0  0  0  0
   -2.1311    3.0908   -0.4558 H   0  0  0  0  0  0  0  0  0  0  0  0
    0.0661    2.3653    0.1255 H   0  0  0  0  0  0  0  0  0  0  0  0
    2.1956    1.4949    0.2148 H   0  0  0  0  0  0  0  0  0  0  0  0
    2.0622   -0.7626   -1.7790 H   0  0  0  0  0  0  0  0  0  0  0  0
    2.6552    0.8792   -1.9267 H   0  0  0  0  0  0  0  0  0  0  0  0
    4.5886   -0.4296   -2.0351 H   0  0  0  0  0  0  0  0  0  0  0  0
    4.0538   -1.5901   -0.8271 H   0  0  0  0  0  0  0  0  0  0  0  0
    6.4347   -1.1692    0.1761 H   0  0  0  0  0  0  0  0  0  0  0  0
    7.4158   -0.1532   -1.8623 H   0  0  0  0  0  0  0  0  0  0  0  0
    6.4453    1.3431   -1.7129 H   0  0  0  0  0  0  0  0  0  0  0  0
    7.4982    0.4465    1.7299 H   0  0  0  0  0  0  0  0  0  0  0  0
    6.5137    1.8220    1.1459 H   0  0  0  0  0  0  0  0  0  0  0  0
    4.3158    0.8737    1.9221 H   0  0  0  0  0  0  0  0  0  0  0  0
    4.6394   -0.8538    1.8092 H   0  0  0  0  0  0  0  0  0  0  0  0
    2.4991   -1.3910    1.1497 H   0  0  0  0  0  0  0  0  0  0  0  0
    2.1844   -0.0141    2.1971 H   0  0  0  0  0  0  0  0  0  0  0  0
    0.4899   -1.9040   -0.0135 H   0  0  0  0  0  0  0  0  0  0  0  0
   -3.9508   -1.7390   -0.9324 H   0  0  0  0  0  0  0  0  0  0  0  0
   -4.0434   -2.0440    0.8288 H   0  0  0  0  0  0  0  0  0  0  0  0
   -3.8311   -4.4398    0.4995 H   0  0  0  0  0  0  0  0  0  0  0  0
   -4.9238   -3.9439   -0.8153 H   0  0  0  0  0  0  0  0  0  0  0  0
   -0.9132   -4.0647   -0.3763 H   0  0  0  0  0  0  0  0  0  0  0  0
   -1.0754   -2.9968   -1.8024 H   0  0  0  0  0  0  0  0  0  0  0  0
   -3.8614    4.5757    0.5403 H   0  0  0  0  0  0  0  0  0  0  0  0
  1  2  3  0
  2  3  1  0
  3  4  2  0
  4  5  1  0
  5  6  2  0
  6  7  1  0
  7  8  1  0
  8  9  1  0
  9 10  2  0
 10 11  1  0
 11 12  1  0
 12 13  1  0
 13 14  1  0
 14 15  1  0
 15 16  1  0
 16 17  1  0
 17 18  1  0
 18 19  1  0
 15 20  1  0
 20 21  1  0
 11 22  2  0
 22 23  1  0
 23 24  1  0
 24 25  1  0
 25 26  1  0
 26 27  1  0
 27 28  1  0
 27 29  1  0
 27 30  1  0
 23 31  2  0
  7 32  2  0
 32  3  1  0
 31  9  1  0
 21 12  1  0
 30 24  1  0
 19 16  1  0
  4 33  1  0
  5 34  1  0
  8 35  1  0
 10 36  1  0
 12 37  1  0
 13 38  1  0
 13 39  1  0
 14 40  1  0
 14 41  1  0
 16 42  1  0
 17 43  1  0
 17 44  1  0
 19 45  1  0
 19 46  1  0
 20 47  1  0
 20 48  1  0
 21 49  1  0
 21 50  1  0
 22 51  1  0
 25 52  1  0
 25 53  1  0
 26 54  1  0
 26 55  1  0
 30 56  1  0
 30 57  1  0
 32 58  1  0
M  END
$$$$
