
     RDKit          3D

 56 57  0  0  0  0  0  0  0  0999 V2000
    0.4730    1.6192   -2.6257 C   0  0  0  0  0  0  0  0  0  0  0  0
   -0.1026    1.9513   -1.2490 C   0  0  0  0  0  0  0  0  0  0  0  0
   -0.4995    3.4238   -1.1177 C   0  0  0  0  0  0  0  0  0  0  0  0
   -1.1798    1.0282   -0.8544 N   0  0  0  0  0  0  0  0  0  0  0  0
   -1.0997    0.0976    0.1772 C   0  0  0  0  0  0  0  0  0  0  0  0
    0.1075   -0.0683    0.9033 C   0  0  0  0  0  0  0  0  0  0  0  0
    1.1044   -0.8032    0.3853 C   0  0  0  0  0  0  0  0  0  0  0  0
    2.4491   -0.9448    1.0342 C   0  0  1  0  0  0  0  0  0  0  0  0
    2.6956   -2.3392    1.2229 O   0  0  0  0  0  0  0  0  0  0  0  0
    3.5375   -0.3197    0.1534 C   0  0  0  0  0  0  0  0  0  0  0  0
    4.9105   -0.3212    0.8445 C   0  0  1  0  0  0  0  0  0  0  0  0
    5.3627   -1.6809    0.9754 O   0  0  0  0  0  0  0  0  0  0  0  0
    5.9521    0.4455    0.0437 C   0  0  0  0  0  0  0  0  0  0  0  0
    5.6541    1.9404   -0.0500 C   0  0  0  0  0  0  0  0  0  0  0  0
    6.1739    2.5203   -1.0450 O   0  0  0  0  0  0  0  0  0  0  0  0
    4.9172    2.4225    0.8557 O   0  0  0  0  0  1  0  0  0  0  0  0
   -2.3475   -0.4867    0.3199 C   0  0  0  0  0  0  0  0  0  0  0  0
   -2.6756   -1.4614    1.3500 C   0  0  0  0  0  0  0  0  0  0  0  0
   -3.7042   -1.1874    2.2631 C   0  0  0  0  0  0  0  0  0  0  0  0
   -4.0354   -2.1185    3.2493 C   0  0  0  0  0  0  0  0  0  0  0  0
   -3.3384   -3.3194    3.3190 C   0  0  0  0  0  0  0  0  0  0  0  0
   -3.6589   -4.2127    4.2648 F   0  0  0  0  0  0  0  0  0  0  0  0
   -2.3164   -3.6079    2.4223 C   0  0  0  0  0  0  0  0  0  0  0  0
   -1.9854   -2.6786    1.4341 C   0  0  0  0  0  0  0  0  0  0  0  0
   -3.1907    0.0354   -0.7052 C   0  0  0  0  0  0  0  0  0  0  0  0
   -4.5308   -0.2142   -1.0798 C   0  0  0  0  0  0  0  0  0  0  0  0
   -5.0898    0.4578   -2.1687 C   0  0  0  0  0  0  0  0  0  0  0  0
   -4.3319    1.3702   -2.8895 C   0  0  0  0  0  0  0  0  0  0  0  0
   -3.0039    1.6354   -2.5401 C   0  0  0  0  0  0  0  0  0  0  0  0
   -2.4418    0.9621   -1.4388 C   0  0  0  0  0  0  0  0  0  0  0  0
    0.0000    0.0000    0.0000 Na  0  0  0  0  0 15  0  0  0  0  0  0
    0.7701    0.5663   -2.6816 H   0  0  0  0  0  0  0  0  0  0  0  0
   -0.2413    1.8049   -3.4322 H   0  0  0  0  0  0  0  0  0  0  0  0
    1.3609    2.2287   -2.8257 H   0  0  0  0  0  0  0  0  0  0  0  0
    0.7148    1.8160   -0.5340 H   0  0  0  0  0  0  0  0  0  0  0  0
   -1.2290    3.7336   -1.8698 H   0  0  0  0  0  0  0  0  0  0  0  0
   -0.9293    3.6256   -0.1304 H   0  0  0  0  0  0  0  0  0  0  0  0
    0.3804    4.0655   -1.2375 H   0  0  0  0  0  0  0  0  0  0  0  0
    0.2077    0.4240    1.8672 H   0  0  0  0  0  0  0  0  0  0  0  0
    0.9751   -1.2861   -0.5802 H   0  0  0  0  0  0  0  0  0  0  0  0
    2.4530   -0.4764    2.0249 H   0  0  0  0  0  0  0  0  0  0  0  0
    2.8518   -2.7142    0.3379 H   0  0  0  0  0  0  0  0  0  0  0  0
    3.6176   -0.8891   -0.7826 H   0  0  0  0  0  0  0  0  0  0  0  0
    3.2394    0.7020   -0.1068 H   0  0  0  0  0  0  0  0  0  0  0  0
    4.8319    0.0898    1.8578 H   0  0  0  0  0  0  0  0  0  0  0  0
    4.6966   -2.1279    1.5330 H   0  0  0  0  0  0  0  0  0  0  0  0
    6.9382    0.3259    0.5096 H   0  0  0  0  0  0  0  0  0  0  0  0
    6.0396    0.0188   -0.9636 H   0  0  0  0  0  0  0  0  0  0  0  0
   -4.2416   -0.2431    2.2138 H   0  0  0  0  0  0  0  0  0  0  0  0
   -4.8259   -1.9119    3.9626 H   0  0  0  0  0  0  0  0  0  0  0  0
   -1.7804   -4.5482    2.4965 H   0  0  0  0  0  0  0  0  0  0  0  0
   -1.1860   -2.9058    0.7326 H   0  0  0  0  0  0  0  0  0  0  0  0
   -5.1236   -0.9374   -0.5273 H   0  0  0  0  0  0  0  0  0  0  0  0
   -6.1190    0.2592   -2.4539 H   0  0  0  0  0  0  0  0  0  0  0  0
   -4.7724    1.8859   -3.7393 H   0  0  0  0  0  0  0  0  0  0  0  0
   -2.4343    2.3484   -3.1251 H   0  0  0  0  0  0  0  0  0  0  0  0
  1  2  1  0
  2  3  1  0
  2  4  1  0
  4  5  1  0
  5  6  1  0
  6  7  2  0
  7  8  1  0
  8  9  1  0
  8 10  1  0
 10 11  1  0
 11 12  1  0
 11 13  1  0
 13 14  1  0
 14 15  2  0
 14 16  1  0
  5 17  2  0
 17 18  1  0
 18 19  2  0
 19 20  1  0
 20 21  2  0
 21 22  1  0
 21 23  1  0
 23 24  2  0
 17 25  1  0
 25 26  2  0
 26 27  1  0
 27 28  2  0
 28 29  1  0
 29 30  2  0
 30  4  1  0
 24 18  1  0
 30 25  1  0
  1 32  1  0
  1 33  1  0
  1 34  1  0
  2 35  1  0
  3 36  1  0
  3 37  1  0
  3 38  1  0
  6 39  1  0
  7 40  1  0
  8 41  1  1
  9 42  1  0
 10 43  1  0
 10 44  1  0
 11 45  1  1
 12 46  1  0
 13 47  1  0
 13 48  1  0
 19 49  1  0
 20 50  1  0
 23 51  1  0
 24 52  1  0
 26 53  1  0
 27 54  1  0
 28 55  1  0
 29 56  1  0
M  CHG  2  16  -1  31   1
M  END
$$$$
