
     RDKit          3D

 22 22  0  0  0  0  0  0  0  0999 V2000
   -3.2360    1.0475   -0.7918 N   0  0  0  0  0  0  0  0  0  0  0  0
   -2.8895   -0.5688   -0.4960 S   0  0  0  0  0  6  0  0  0  0  0  0
   -3.8301   -0.9936    0.5135 O   0  0  0  0  0  0  0  0  0  0  0  0
   -2.7429   -1.2423   -1.7620 O   0  0  0  0  0  0  0  0  0  0  0  0
   -1.2838   -0.4652    0.2540 C   0  0  0  0  0  0  0  0  0  0  0  0
   -1.1565   -0.5492    1.6387 C   0  0  0  0  0  0  0  0  0  0  0  0
    0.1156   -0.4993    2.2192 C   0  0  0  0  0  0  0  0  0  0  0  0
    0.1806   -0.5969    3.9475 Cl  0  0  0  0  0  0  0  0  0  0  0  0
    1.2717   -0.3710    1.4249 C   0  0  0  0  0  0  0  0  0  0  0  0
    2.8262   -0.3043    2.1923 Cl  0  0  0  0  0  0  0  0  0  0  0  0
    1.1218   -0.2931    0.0321 C   0  0  0  0  0  0  0  0  0  0  0  0
    2.5157   -0.1445   -1.0460 S   0  0  0  0  0  6  0  0  0  0  0  0
    3.2148    1.3043   -0.5699 N   0  0  0  0  0  0  0  0  0  0  0  0
    2.0339    0.1125   -2.3841 O   0  0  0  0  0  0  0  0  0  0  0  0
    3.4544   -1.2001   -0.7606 O   0  0  0  0  0  0  0  0  0  0  0  0
   -0.1535   -0.3479   -0.5563 C   0  0  0  0  0  0  0  0  0  0  0  0
   -4.0584    1.3226   -0.2509 H   0  0  0  0  0  0  0  0  0  0  0  0
   -2.4538    1.6855   -0.6602 H   0  0  0  0  0  0  0  0  0  0  0  0
   -2.0380   -0.6623    2.2685 H   0  0  0  0  0  0  0  0  0  0  0  0
    4.1364    1.1263   -0.1641 H   0  0  0  0  0  0  0  0  0  0  0  0
    3.2394    1.9524   -1.3589 H   0  0  0  0  0  0  0  0  0  0  0  0
   -0.2681   -0.3126   -1.6408 H   0  0  0  0  0  0  0  0  0  0  0  0
  1  2  1  0
  2  3  2  0
  2  4  2  0
  2  5  1  0
  5  6  2  0
  6  7  1  0
  7  8  1  0
  7  9  2  0
  9 10  1  0
  9 11  1  0
 11 12  1  0
 12 13  1  0
 12 14  2  0
 12 15  2  0
 11 16  2  0
 16  5  1  0
  1 17  1  0
  1 18  1  0
  6 19  1  0
 13 20  1  0
 13 21  1  0
 16 22  1  0
M  END
$$$$
