
     RDKit          3D

 47 50  0  0  0  0  0  0  0  0999 V2000
   -2.4307   -5.0885    1.2335 C   0  0  0  0  0  0  0  0  0  0  0  0
   -1.9147   -4.4616   -0.0641 C   0  0  0  0  0  0  0  0  0  0  0  0
   -2.8139   -4.8342   -1.2455 C   0  0  0  0  0  0  0  0  0  0  0  0
   -1.7600   -2.9565    0.0676 C   0  0  0  0  0  0  0  0  0  0  0  0
   -2.8546   -2.1229    0.3147 C   0  0  0  0  0  0  0  0  0  0  0  0
   -2.6956   -0.7367    0.4205 C   0  0  0  0  0  0  0  0  0  0  0  0
   -1.4371   -0.1432    0.2872 C   0  0  0  0  0  0  0  0  0  0  0  0
   -1.2481    1.2604    0.3542 N   0  0  0  0  0  0  0  0  0  0  0  0
   -2.1833    2.2661    0.5348 C   0  0  0  0  0  0  0  0  0  0  0  0
   -3.3867    2.0680    0.6756 O   0  0  0  0  0  0  0  0  0  0  0  0
   -1.6017    3.6114    0.5362 C   0  0  0  0  0  0  0  0  0  0  0  0
   -0.2982    4.0254    0.7611 C   0  0  0  0  0  0  0  0  0  0  0  0
   -0.1438    5.4402    0.6652 C   0  0  0  0  0  0  0  0  0  0  0  0
   -1.3337    6.0687    0.3813 C   0  0  0  0  0  0  0  0  0  0  0  0
   -2.6256    4.9605    0.2394 S   0  0  0  0  0  0  0  0  0  0  0  0
   -0.3153   -0.9812    0.0767 C   0  0  0  0  0  0  0  0  0  0  0  0
    1.0645   -0.4050   -0.0318 C   0  0  0  0  0  0  0  0  0  0  0  0
    1.2155    0.7681   -0.5918 N   0  0  0  0  0  0  0  0  0  0  0  0
    2.5086    1.3016   -0.7229 C   0  0  0  0  0  0  0  0  0  0  0  0
    2.6638    2.5380   -1.3518 C   0  0  0  0  0  0  0  0  0  0  0  0
    3.9323    3.1044   -1.4981 C   0  0  0  0  0  0  0  0  0  0  0  0
    5.0571    2.4338   -1.0165 C   0  0  0  0  0  0  0  0  0  0  0  0
    4.9173    1.1951   -0.3900 C   0  0  0  0  0  0  0  0  0  0  0  0
    3.6466    0.6373   -0.2494 C   0  0  0  0  0  0  0  0  0  0  0  0
    3.4944   -0.5990    0.3774 N   0  0  0  0  0  0  0  0  0  0  0  0
    2.2632   -1.1800    0.5527 C   0  0  0  0  0  0  0  0  0  0  0  0
    2.1311   -2.2336    1.1564 O   0  0  0  0  0  0  0  0  0  0  0  0
   -0.4924   -2.3699   -0.0541 C   0  0  0  0  0  0  0  0  0  0  0  0
   -1.7800   -4.8332    2.0773 H   0  0  0  0  0  0  0  0  0  0  0  0
   -3.4432   -4.7494    1.4783 H   0  0  0  0  0  0  0  0  0  0  0  0
   -2.4573   -6.1804    1.1493 H   0  0  0  0  0  0  0  0  0  0  0  0
   -0.9270   -4.8988   -0.2620 H   0  0  0  0  0  0  0  0  0  0  0  0
   -3.8430   -4.4868   -1.1033 H   0  0  0  0  0  0  0  0  0  0  0  0
   -2.8456   -5.9213   -1.3768 H   0  0  0  0  0  0  0  0  0  0  0  0
   -2.4388   -4.3949   -2.1766 H   0  0  0  0  0  0  0  0  0  0  0  0
   -3.8548   -2.5390    0.4212 H   0  0  0  0  0  0  0  0  0  0  0  0
   -3.5908   -0.1493    0.5998 H   0  0  0  0  0  0  0  0  0  0  0  0
   -0.3037    1.5570    0.1158 H   0  0  0  0  0  0  0  0  0  0  0  0
    0.5192    3.3559    1.0001 H   0  0  0  0  0  0  0  0  0  0  0  0
    0.7912    5.9687    0.8064 H   0  0  0  0  0  0  0  0  0  0  0  0
   -1.5122    7.1282    0.2578 H   0  0  0  0  0  0  0  0  0  0  0  0
    1.7914    3.0608   -1.7361 H   0  0  0  0  0  0  0  0  0  0  0  0
    4.0418    4.0671   -1.9919 H   0  0  0  0  0  0  0  0  0  0  0  0
    6.0437    2.8764   -1.1334 H   0  0  0  0  0  0  0  0  0  0  0  0
    5.7998    0.6804   -0.0212 H   0  0  0  0  0  0  0  0  0  0  0  0
    4.2900   -1.0942    0.7550 H   0  0  0  0  0  0  0  0  0  0  0  0
    0.3602   -3.0141   -0.2586 H   0  0  0  0  0  0  0  0  0  0  0  0
  1  2  1  0
  2  3  1  0
  2  4  1  0
  4  5  2  0
  5  6  1  0
  6  7  2  0
  7  8  1  0
  8  9  1  0
  9 10  2  0
  9 11  1  0
 11 12  2  0
 12 13  1  0
 13 14  2  0
 14 15  1  0
  7 16  1  0
 16 17  1  0
 17 18  2  0
 18 19  1  0
 19 20  2  0
 20 21  1  0
 21 22  2  0
 22 23  1  0
 23 24  2  0
 24 25  1  0
 25 26  1  0
 26 27  2  0
 16 28  2  0
 28  4  1  0
 15 11  1  0
 26 17  1  0
 24 19  1  0
  1 29  1  0
  1 30  1  0
  1 31  1  0
  2 32  1  0
  3 33  1  0
  3 34  1  0
  3 35  1  0
  5 36  1  0
  6 37  1  0
  8 38  1  0
 12 39  1  0
 13 40  1  0
 14 41  1  0
 20 42  1  0
 21 43  1  0
 22 44  1  0
 23 45  1  0
 25 46  1  0
 28 47  1  0
M  END
$$$$
