
     RDKit          3D

 19 21  0  0  0  0  0  0  0  0999 V2000
    1.6746    2.7737   -0.2671 O   0  0  0  0  0  0  0  0  0  0  0  0
    2.0489    1.6151   -0.1601 C   0  0  0  0  0  0  0  0  0  0  0  0
    3.3873    1.2537   -0.1318 O   0  0  0  0  0  0  0  0  0  0  0  0
    3.4295   -0.1727    0.0017 N   0  0  0  0  0  0  0  0  0  0  0  0
    2.1876   -0.5062    0.0382 C   0  0  0  0  0  0  0  0  0  0  0  0
    1.6647   -1.8888    0.1701 C   0  0  0  0  0  0  0  0  0  0  0  0
    0.3943   -2.1449    0.1994 N   0  0  0  0  0  0  0  0  0  0  0  0
   -0.5054   -1.0569    0.1012 C   0  0  0  0  0  0  0  0  0  0  0  0
   -1.8742   -1.3292    0.1325 C   0  0  0  0  0  0  0  0  0  0  0  0
   -2.8049   -0.2934    0.0393 C   0  0  0  0  0  0  0  0  0  0  0  0
   -2.3715    1.0259   -0.0862 C   0  0  0  0  0  0  0  0  0  0  0  0
   -1.0063    1.3180   -0.1193 C   0  0  0  0  0  0  0  0  0  0  0  0
   -0.0721    0.2827   -0.0262 C   0  0  0  0  0  0  0  0  0  0  0  0
    1.3095    0.4946   -0.0519 N   0  0  0  0  0  0  0  0  0  0  0  0
    2.4210   -2.6851    0.2415 H   0  0  0  0  0  0  0  0  0  0  0  0
   -2.2146   -2.3571    0.2303 H   0  0  0  0  0  0  0  0  0  0  0  0
   -3.8689   -0.5171    0.0648 H   0  0  0  0  0  0  0  0  0  0  0  0
   -3.0992    1.8314   -0.1586 H   0  0  0  0  0  0  0  0  0  0  0  0
   -0.7003    2.3563   -0.2180 H   0  0  0  0  0  0  0  0  0  0  0  0
  1  2  2  0
  2  3  1  0
  3  4  1  0
  4  5  2  0
  5  6  1  0
  6  7  2  0
  7  8  1  0
  8  9  2  0
  9 10  1  0
 10 11  2  0
 11 12  1  0
 12 13  2  0
 13 14  1  0
 14  2  1  0
 14  5  1  0
 13  8  1  0
  6 15  1  0
  9 16  1  0
 10 17  1  0
 11 18  1  0
 12 19  1  0
M  END
$$$$
