
     RDKit          3D

 44 46  0  0  0  0  0  0  0  0999 V2000
   -3.2570   -2.2143   -0.8438 C   0  0  0  0  0  0  0  0  0  0  0  0
   -3.1807   -0.8208   -0.3939 N   0  0  0  0  0  0  0  0  0  0  0  0
   -2.2813    0.0134   -1.2216 C   0  0  0  0  0  0  0  0  0  0  0  0
   -1.8901    1.3263   -0.5236 C   0  0  0  0  0  0  0  0  0  0  0  0
   -0.6848    1.8678   -1.0792 O   0  0  0  0  0  0  0  0  0  0  0  0
    0.5109    1.4606   -0.5561 C   0  0  0  0  0  0  0  0  0  0  0  0
    1.6249    2.1301   -1.0667 C   0  0  0  0  0  0  0  0  0  0  0  0
    2.9134    1.8143   -0.6290 C   0  0  0  0  0  0  0  0  0  0  0  0
    3.1074    0.8146    0.3294 C   0  0  0  0  0  0  0  0  0  0  0  0
    4.4963    0.4561    0.8019 C   0  0  0  0  0  0  0  0  0  0  0  0
    5.0486   -0.8168    0.1571 C   0  0  0  0  0  0  0  0  0  0  0  0
    5.5302   -0.5946   -1.5932 S   0  0  0  0  0  0  0  0  0  0  0  0
    7.1568   -1.1573   -1.3239 C   0  0  0  0  0  0  0  0  0  0  0  0
    8.0172   -1.1952   -2.1860 O   0  0  0  0  0  0  0  0  0  0  0  0
    7.3275   -1.5088   -0.0294 N   0  0  0  0  0  0  0  0  0  0  0  0
    6.3216   -1.2545    0.8519 C   0  0  0  0  0  0  0  0  0  0  0  0
    6.4524   -1.3795    2.0628 O   0  0  0  0  0  0  0  0  0  0  0  0
    1.9893    0.1399    0.8366 C   0  0  0  0  0  0  0  0  0  0  0  0
    0.6998    0.4598    0.3960 C   0  0  0  0  0  0  0  0  0  0  0  0
   -4.4764   -0.2754   -0.2395 C   0  0  0  0  0  0  0  0  0  0  0  0
   -5.3075   -0.7695    0.7694 C   0  0  0  0  0  0  0  0  0  0  0  0
   -6.5848   -0.2393    0.9433 C   0  0  0  0  0  0  0  0  0  0  0  0
   -7.0106    0.7817    0.1091 C   0  0  0  0  0  0  0  0  0  0  0  0
   -6.1320    1.2294   -0.8589 C   0  0  0  0  0  0  0  0  0  0  0  0
   -4.8892    0.7286   -1.0421 N   0  0  0  0  0  0  0  0  0  0  0  0
   -3.7476   -2.2933   -1.8214 H   0  0  0  0  0  0  0  0  0  0  0  0
   -3.7881   -2.8506   -0.1276 H   0  0  0  0  0  0  0  0  0  0  0  0
   -2.2486   -2.6334   -0.9377 H   0  0  0  0  0  0  0  0  0  0  0  0
   -2.7008    0.2132   -2.2170 H   0  0  0  0  0  0  0  0  0  0  0  0
   -1.3662   -0.5598   -1.4175 H   0  0  0  0  0  0  0  0  0  0  0  0
   -2.6668    2.0782   -0.7014 H   0  0  0  0  0  0  0  0  0  0  0  0
   -1.8251    1.2294    0.5668 H   0  0  0  0  0  0  0  0  0  0  0  0
    1.4875    2.9082   -1.8139 H   0  0  0  0  0  0  0  0  0  0  0  0
    3.7590    2.3549   -1.0482 H   0  0  0  0  0  0  0  0  0  0  0  0
    4.4524    0.3342    1.8931 H   0  0  0  0  0  0  0  0  0  0  0  0
    5.1798    1.3020    0.6457 H   0  0  0  0  0  0  0  0  0  0  0  0
    4.3357   -1.6466    0.2155 H   0  0  0  0  0  0  0  0  0  0  0  0
    8.2411   -1.7790    0.2984 H   0  0  0  0  0  0  0  0  0  0  0  0
    2.1091   -0.6408    1.5851 H   0  0  0  0  0  0  0  0  0  0  0  0
   -0.1317   -0.0980    0.8150 H   0  0  0  0  0  0  0  0  0  0  0  0
   -4.9550   -1.5505    1.4347 H   0  0  0  0  0  0  0  0  0  0  0  0
   -7.2323   -0.6180    1.7283 H   0  0  0  0  0  0  0  0  0  0  0  0
   -7.9953    1.2218    0.2135 H   0  0  0  0  0  0  0  0  0  0  0  0
   -6.4087    2.0313   -1.5373 H   0  0  0  0  0  0  0  0  0  0  0  0
  1  2  1  0
  2  3  1  0
  3  4  1  0
  4  5  1  0
  5  6  1  0
  6  7  2  0
  7  8  1  0
  8  9  2  0
  9 10  1  0
 10 11  1  0
 11 12  1  0
 12 13  1  0
 13 14  2  0
 13 15  1  0
 15 16  1  0
 16 17  2  0
  9 18  1  0
 18 19  2  0
  2 20  1  0
 20 21  2  0
 21 22  1  0
 22 23  2  0
 23 24  1  0
 24 25  2  0
 19  6  1  0
 25 20  1  0
 16 11  1  0
  1 26  1  0
  1 27  1  0
  1 28  1  0
  3 29  1  0
  3 30  1  0
  4 31  1  0
  4 32  1  0
  7 33  1  0
  8 34  1  0
 10 35  1  0
 10 36  1  0
 11 37  1  0
 15 38  1  0
 18 39  1  0
 19 40  1  0
 21 41  1  0
 22 42  1  0
 23 43  1  0
 24 44  1  0
M  END
$$$$
