
     RDKit          3D

 49 52  0  0  0  0  0  0  0  0999 V2000
   -1.8763   -1.9483   -1.8825 O   0  0  0  0  0  0  0  0  0  0  0  0
   -1.4859   -0.8617   -1.4674 C   0  0  0  0  0  0  0  0  0  0  0  0
   -2.3222    0.1384   -1.0227 N   0  0  0  0  0  0  0  0  0  0  0  0
   -3.7509   -0.0209   -0.8942 C   0  0  0  0  0  0  0  0  0  0  0  0
   -4.1495   -0.7484    0.4044 C   0  0  0  0  0  0  0  0  0  0  0  0
   -3.7576    0.0335    1.6712 C   0  0  0  0  0  0  0  0  0  0  0  0
   -4.6165    1.2765    1.8965 C   0  0  0  0  0  0  0  0  0  0  0  0
   -6.1046    0.9400    1.8979 C   0  0  0  0  0  0  0  0  0  0  0  0
   -6.5193    0.1806    0.6414 C   0  0  0  0  0  0  0  0  0  0  0  0
   -5.6555   -1.0603    0.4215 C   0  0  0  0  0  0  0  0  0  0  0  0
   -0.0616   -0.4984   -1.3847 C   0  0  0  0  0  0  0  0  0  0  0  0
    1.0547   -1.3122   -1.7772 C   0  0  0  0  0  0  0  0  0  0  0  0
    2.1450   -0.5358   -1.5091 C   0  0  0  0  0  0  0  0  0  0  0  0
    1.6674    0.6111   -0.9822 N   0  0  0  0  0  0  0  0  0  0  0  0
    0.3449    0.7092   -0.9060 N   0  0  0  0  0  0  0  0  0  0  0  0
    2.6727    1.6059   -0.6626 C   0  0  0  0  0  0  0  0  0  0  0  0
    3.9771    0.7745   -0.7607 C   0  0  1  0  0  0  0  0  0  0  0  0
    4.3575    0.4127    0.5765 O   0  0  0  0  0  0  0  0  0  0  0  0
    5.6516    0.0425    0.8125 C   0  0  0  0  0  0  0  0  0  0  0  0
    6.6467   -0.1377   -0.1413 C   0  0  0  0  0  0  0  0  0  0  0  0
    7.9070   -0.5213    0.2934 C   0  0  0  0  0  0  0  0  0  0  0  0
    8.2284   -0.7323    1.5865 N   0  0  0  0  0  0  0  0  0  0  0  0
    7.2422   -0.5580    2.4897 C   0  0  0  0  0  0  0  0  0  0  0  0
    5.9548   -0.1773    2.1538 C   0  0  0  0  0  0  0  0  0  0  0  0
    3.6163   -0.5005   -1.5945 C   0  0  0  0  0  0  0  0  0  0  0  0
   -1.8499    0.9554   -0.6429 H   0  0  0  0  0  0  0  0  0  0  0  0
   -4.1063   -0.5907   -1.7608 H   0  0  0  0  0  0  0  0  0  0  0  0
   -4.1891    0.9796   -0.9545 H   0  0  0  0  0  0  0  0  0  0  0  0
   -3.6125   -1.7062    0.4290 H   0  0  0  0  0  0  0  0  0  0  0  0
   -3.8708   -0.6298    2.5389 H   0  0  0  0  0  0  0  0  0  0  0  0
   -2.6998    0.3180    1.6418 H   0  0  0  0  0  0  0  0  0  0  0  0
   -4.3466    1.7374    2.8538 H   0  0  0  0  0  0  0  0  0  0  0  0
   -4.4079    2.0221    1.1207 H   0  0  0  0  0  0  0  0  0  0  0  0
   -6.6913    1.8616    1.9829 H   0  0  0  0  0  0  0  0  0  0  0  0
   -6.3375    0.3324    2.7812 H   0  0  0  0  0  0  0  0  0  0  0  0
   -6.4500    0.8437   -0.2288 H   0  0  0  0  0  0  0  0  0  0  0  0
   -7.5708   -0.1171    0.7255 H   0  0  0  0  0  0  0  0  0  0  0  0
   -5.8578   -1.7760    1.2291 H   0  0  0  0  0  0  0  0  0  0  0  0
   -5.9521   -1.5547   -0.5111 H   0  0  0  0  0  0  0  0  0  0  0  0
    1.0188   -2.3078   -2.1972 H   0  0  0  0  0  0  0  0  0  0  0  0
    2.4718    2.0079    0.3333 H   0  0  0  0  0  0  0  0  0  0  0  0
    2.6138    2.3765   -1.4366 H   0  0  0  0  0  0  0  0  0  0  0  0
    4.7583    1.3859   -1.2269 H   0  0  0  0  0  0  0  0  0  0  0  0
    6.4855   -0.0022   -1.2019 H   0  0  0  0  0  0  0  0  0  0  0  0
    8.7183   -0.6762   -0.4128 H   0  0  0  0  0  0  0  0  0  0  0  0
    7.5210   -0.7384    3.5238 H   0  0  0  0  0  0  0  0  0  0  0  0
    5.2006   -0.0541    2.9232 H   0  0  0  0  0  0  0  0  0  0  0  0
    4.0661   -1.4117   -1.1911 H   0  0  0  0  0  0  0  0  0  0  0  0
    3.9218   -0.3674   -2.6376 H   0  0  0  0  0  0  0  0  0  0  0  0
  1  2  2  0
  2  3  1  0
  3  4  1  0
  4  5  1  0
  5  6  1  0
  6  7  1  0
  7  8  1  0
  8  9  1  0
  9 10  1  0
  2 11  1  0
 11 12  1  0
 12 13  2  0
 13 14  1  0
 14 15  1  0
 14 16  1  0
 16 17  1  0
 17 18  1  0
 18 19  1  0
 19 20  2  0
 20 21  1  0
 21 22  2  0
 22 23  1  0
 23 24  2  0
 17 25  1  0
 10  5  1  0
 15 11  2  0
 24 19  1  0
 25 13  1  0
  3 26  1  0
  4 27  1  0
  4 28  1  0
  5 29  1  0
  6 30  1  0
  6 31  1  0
  7 32  1  0
  7 33  1  0
  8 34  1  0
  8 35  1  0
  9 36  1  0
  9 37  1  0
 10 38  1  0
 10 39  1  0
 12 40  1  0
 16 41  1  0
 16 42  1  0
 17 43  1  6
 20 44  1  0
 21 45  1  0
 23 46  1  0
 24 47  1  0
 25 48  1  0
 25 49  1  0
M  END
$$$$
