
     RDKit          3D

 59 61  0  0  0  0  0  0  0  0999 V2000
   -7.5451   -3.6743   -0.2723 C   0  0  0  0  0  0  0  0  0  0  0  0
   -7.6711   -2.2612   -0.2037 O   0  0  0  0  0  0  0  0  0  0  0  0
   -6.6803   -1.5707    0.4517 C   0  0  0  0  0  0  0  0  0  0  0  0
   -5.6857   -2.1689    1.2362 C   0  0  0  0  0  0  0  0  0  0  0  0
   -4.7124   -1.3889    1.8684 C   0  0  0  0  0  0  0  0  0  0  0  0
   -4.7211    0.0005    1.7305 C   0  0  0  0  0  0  0  0  0  0  0  0
   -3.6342    0.8440    2.3594 C   0  0  0  0  0  0  0  0  0  0  0  0
   -2.4564    0.8883    1.5264 N   0  0  0  0  0  0  0  0  0  0  0  0
   -2.2756    1.7547    0.4898 C   0  0  0  0  0  0  0  0  0  0  0  0
   -3.0308    2.6314    0.1033 O   0  0  0  0  0  0  0  0  0  0  0  0
   -1.0592    1.4859   -0.0966 N   0  0  0  0  0  0  0  0  0  0  0  0
   -0.3692    0.3981    0.5531 C   0  0  1  0  0  0  0  0  0  0  0  0
    0.9583    0.8293    1.1621 C   0  0  0  0  0  0  0  0  0  0  0  0
    2.0454    0.9829    0.0953 C   0  0  0  0  0  0  0  0  0  0  0  0
    3.3309    1.5356    0.6774 C   0  0  0  0  0  0  0  0  0  0  0  0
    3.4052    2.0536    1.7812 O   0  0  0  0  0  0  0  0  0  0  0  0
    4.4049    1.4282   -0.1802 N   0  0  0  0  0  0  0  0  0  0  0  0
    5.7320    1.8120    0.2809 C   0  0  0  0  0  0  0  0  0  0  0  0
    6.7865    1.7656   -0.8277 C   0  0  0  0  0  0  0  0  0  0  0  0
    6.9855    0.3820   -1.4038 C   0  0  0  0  0  0  0  0  0  0  0  0
    6.6664    0.1193   -2.7462 C   0  0  0  0  0  0  0  0  0  0  0  0
    6.8375   -1.1617   -3.2759 C   0  0  0  0  0  0  0  0  0  0  0  0
    7.3304   -2.1816   -2.4698 C   0  0  0  0  0  0  0  0  0  0  0  0
    7.4881   -3.4157   -3.0246 O   0  0  0  0  0  0  0  0  0  0  0  0
    7.6605   -1.9423   -1.1383 C   0  0  0  0  0  0  0  0  0  0  0  0
    7.4905   -0.6603   -0.6077 C   0  0  0  0  0  0  0  0  0  0  0  0
   -1.3908    0.0423    1.6393 C   0  0  0  0  0  0  0  0  0  0  0  0
   -1.2583   -0.8449    2.4733 O   0  0  0  0  0  0  0  0  0  0  0  0
   -5.7165    0.6004    0.9385 C   0  0  0  0  0  0  0  0  0  0  0  0
   -6.7002   -0.1722    0.3069 C   0  0  0  0  0  0  0  0  0  0  0  0
   -7.6966    0.3404   -0.4947 O   0  0  0  0  0  0  0  0  0  0  0  0
   -7.7607    1.7549   -0.6365 C   0  0  0  0  0  0  0  0  0  0  0  0
   -7.6501   -4.1293    0.7164 H   0  0  0  0  0  0  0  0  0  0  0  0
   -8.3548   -4.0504   -0.8971 H   0  0  0  0  0  0  0  0  0  0  0  0
   -6.6007   -3.9674   -0.7439 H   0  0  0  0  0  0  0  0  0  0  0  0
   -5.6363   -3.2412    1.3687 H   0  0  0  0  0  0  0  0  0  0  0  0
   -3.9369   -1.8756    2.4578 H   0  0  0  0  0  0  0  0  0  0  0  0
   -3.9964    1.8668    2.5148 H   0  0  0  0  0  0  0  0  0  0  0  0
   -3.3747    0.4384    3.3457 H   0  0  0  0  0  0  0  0  0  0  0  0
   -0.7583    2.0139   -0.9134 H   0  0  0  0  0  0  0  0  0  0  0  0
   -0.2762   -0.4370   -0.1510 H   0  0  0  0  0  0  0  0  0  0  0  0
    0.8288    1.7720    1.7170 H   0  0  0  0  0  0  0  0  0  0  0  0
    1.2922    0.0835    1.8989 H   0  0  0  0  0  0  0  0  0  0  0  0
    2.2514    0.0084   -0.3643 H   0  0  0  0  0  0  0  0  0  0  0  0
    1.7188    1.6739   -0.6927 H   0  0  0  0  0  0  0  0  0  0  0  0
    4.3567    0.7139   -0.8963 H   0  0  0  0  0  0  0  0  0  0  0  0
    5.9997    1.1510    1.1170 H   0  0  0  0  0  0  0  0  0  0  0  0
    5.6663    2.8326    0.6831 H   0  0  0  0  0  0  0  0  0  0  0  0
    7.7481    2.1158   -0.4347 H   0  0  0  0  0  0  0  0  0  0  0  0
    6.5047    2.4647   -1.6243 H   0  0  0  0  0  0  0  0  0  0  0  0
    6.2865    0.9114   -3.3908 H   0  0  0  0  0  0  0  0  0  0  0  0
    6.5898   -1.3618   -4.3175 H   0  0  0  0  0  0  0  0  0  0  0  0
    7.8495   -4.0142   -2.3502 H   0  0  0  0  0  0  0  0  0  0  0  0
    8.0526   -2.7322   -0.5026 H   0  0  0  0  0  0  0  0  0  0  0  0
    7.7603   -0.4825    0.4335 H   0  0  0  0  0  0  0  0  0  0  0  0
   -5.6864    1.6796    0.8073 H   0  0  0  0  0  0  0  0  0  0  0  0
   -6.8500    2.1416   -1.1011 H   0  0  0  0  0  0  0  0  0  0  0  0
   -8.5921    1.9896   -1.3029 H   0  0  0  0  0  0  0  0  0  0  0  0
   -7.9502    2.2400    0.3266 H   0  0  0  0  0  0  0  0  0  0  0  0
  1  2  1  0
  2  3  1  0
  3  4  2  0
  4  5  1  0
  5  6  2  0
  6  7  1  0
  7  8  1  0
  8  9  1  0
  9 10  2  0
  9 11  1  0
 11 12  1  0
 12 13  1  0
 13 14  1  0
 14 15  1  0
 15 16  2  0
 15 17  1  0
 17 18  1  0
 18 19  1  0
 19 20  1  0
 20 21  2  0
 21 22  1  0
 22 23  2  0
 23 24  1  0
 23 25  1  0
 25 26  2  0
 12 27  1  0
 27 28  2  0
  6 29  1  0
 29 30  2  0
 30 31  1  0
 31 32  1  0
 30  3  1  0
 27  8  1  0
 26 20  1  0
  1 33  1  0
  1 34  1  0
  1 35  1  0
  4 36  1  0
  5 37  1  0
  7 38  1  0
  7 39  1  0
 11 40  1  0
 12 41  1  6
 13 42  1  0
 13 43  1  0
 14 44  1  0
 14 45  1  0
 17 46  1  0
 18 47  1  0
 18 48  1  0
 19 49  1  0
 19 50  1  0
 21 51  1  0
 22 52  1  0
 24 53  1  0
 25 54  1  0
 26 55  1  0
 29 56  1  0
 32 57  1  0
 32 58  1  0
 32 59  1  0
M  END
$$$$
