
     RDKit          3D

 38 38  0  0  0  0  0  0  0  0999 V2000
    0.1933    3.9915    0.8669 C   0  0  0  0  0  0  0  0  0  0  0  0
   -0.0755    2.6346    0.5862 O   0  0  0  0  0  0  0  0  0  0  0  0
    0.9223    1.6969    0.4069 C   0  0  0  0  0  0  0  0  0  0  0  0
    2.2329    2.0530    0.4949 C   0  0  0  0  0  0  0  0  0  0  0  0
    3.2063    1.1098    0.3149 C   0  0  0  0  0  0  0  0  0  0  0  0
    2.8427   -0.1927    0.0475 C   0  0  0  0  0  0  0  0  0  0  0  0
    3.8813   -1.0883   -0.0901 C   0  0  0  0  0  0  0  0  0  0  0  0
    3.5981   -2.4073   -0.3228 C   0  0  0  0  0  0  0  0  0  0  0  0
    2.2776   -2.7839   -0.4088 C   0  0  0  0  0  0  0  0  0  0  0  0
    1.2362   -1.8507   -0.2658 C   0  0  0  0  0  0  0  0  0  0  0  0
    1.4966   -0.5383   -0.0379 C   0  0  0  0  0  0  0  0  0  0  0  0
    0.4820    0.3741    0.1322 C   0  0  0  0  0  0  0  0  0  0  0  0
   -0.9610    0.1448    0.1005 C   0  0  0  0  0  0  0  0  0  0  0  0
   -1.4174   -1.1062   -0.2998 N   0  0  0  0  0  0  0  0  0  0  0  0
   -2.8433   -1.3260   -0.0807 C   0  0  0  0  0  0  0  0  0  0  0  0
   -3.2347   -1.2885    1.3502 C   0  0  0  0  0  0  0  0  0  0  0  0
   -3.7180   -0.3865   -0.8660 C   0  0  0  0  0  0  0  0  0  0  0  0
    0.6856    0.0000    0.0000 Cl  0  0  0  0  0  0  0  0  0  0  0  0
   -0.7709    4.4573    1.1681 H   0  0  0  0  0  0  0  0  0  0  0  0
    0.5647    4.4653   -0.0680 H   0  0  0  0  0  0  0  0  0  0  0  0
    0.9323    4.0377    1.6749 H   0  0  0  0  0  0  0  0  0  0  0  0
    2.5358    3.0924    0.7102 H   0  0  0  0  0  0  0  0  0  0  0  0
    4.2589    1.4005    0.3862 H   0  0  0  0  0  0  0  0  0  0  0  0
    4.9291   -0.7530   -0.0117 H   0  0  0  0  0  0  0  0  0  0  0  0
    4.4231   -3.0911   -0.4261 H   0  0  0  0  0  0  0  0  0  0  0  0
    2.0566   -3.8270   -0.5902 H   0  0  0  0  0  0  0  0  0  0  0  0
    0.2608   -2.2584   -0.3158 H   0  0  0  0  0  0  0  0  0  0  0  0
   -1.3667    0.8905   -0.6854 H   0  0  0  0  0  0  0  0  0  0  0  0
   -1.4624    0.5400    1.0335 H   0  0  0  0  0  0  0  0  0  0  0  0
   -1.2825   -1.2314   -1.3872 H   0  0  0  0  0  0  0  0  0  0  0  0
   -3.0251   -2.3546   -0.4733 H   0  0  0  0  0  0  0  0  0  0  0  0
   -2.5536   -1.8520    2.0220 H   0  0  0  0  0  0  0  0  0  0  0  0
   -4.2239   -1.8318    1.4342 H   0  0  0  0  0  0  0  0  0  0  0  0
   -3.4381   -0.2568    1.7016 H   0  0  0  0  0  0  0  0  0  0  0  0
   -4.7808   -0.4101   -0.4835 H   0  0  0  0  0  0  0  0  0  0  0  0
   -3.3566    0.6526   -0.8656 H   0  0  0  0  0  0  0  0  0  0  0  0
   -3.8201   -0.7063   -1.9323 H   0  0  0  0  0  0  0  0  0  0  0  0
   -0.6856    0.0000    0.0000 H   0  0  0  0  0  0  0  0  0  0  0  0
  1  2  1  0
  2  3  1  0
  3  4  2  0
  4  5  1  0
  5  6  2  0
  6  7  1  0
  7  8  2  0
  8  9  1  0
  9 10  2  0
 10 11  1  0
 11 12  2  0
 12 13  1  0
 13 14  1  0
 14 15  1  0
 15 16  1  0
 15 17  1  0
 12  3  1  0
 11  6  1  0
  1 19  1  0
  1 20  1  0
  1 21  1  0
  4 22  1  0
  5 23  1  0
  7 24  1  0
  8 25  1  0
  9 26  1  0
 10 27  1  0
 13 28  1  0
 13 29  1  0
 14 30  1  0
 15 31  1  0
 16 32  1  0
 16 33  1  0
 16 34  1  0
 17 35  1  0
 17 36  1  0
 17 37  1  0
 18 38  1  0
M  END
$$$$
