
     RDKit          3D

 49 52  0  0  0  0  0  0  0  0999 V2000
    8.0417    1.5559    0.3818 C   0  0  0  0  0  0  0  0  0  0  0  0
    7.4953    0.6883   -1.1163 S   0  0  0  0  0  0  0  0  0  0  0  0
    6.3767   -0.4759   -0.3579 C   0  0  0  0  0  0  0  0  0  0  0  0
    6.8712   -1.6453    0.2240 C   0  0  0  0  0  0  0  0  0  0  0  0
    5.9943   -2.5559    0.8086 C   0  0  0  0  0  0  0  0  0  0  0  0
    4.6216   -2.2992    0.8085 C   0  0  0  0  0  0  0  0  0  0  0  0
    4.1105   -1.1324    0.2233 C   0  0  0  0  0  0  0  0  0  0  0  0
    2.7101   -0.9573    0.2626 N   0  0  0  0  0  0  0  0  0  0  0  0
    1.9787    0.1147   -0.2245 C   0  0  0  0  0  0  0  0  0  0  0  0
    2.4230    1.1225   -0.7603 O   0  0  0  0  0  0  0  0  0  0  0  0
    0.4870   -0.0925   -0.0210 C   0  0  0  0  0  0  0  0  0  0  0  0
   -0.3282    1.0871   -0.5550 C   0  0  0  0  0  0  0  0  0  0  0  0
   -1.8108    0.8504   -0.4164 C   0  0  0  0  0  0  0  0  0  0  0  0
   -2.5786    0.2291   -1.5713 C   0  0  0  0  0  0  0  0  0  0  0  0
   -1.8265   -0.1373   -2.8339 C   0  0  0  0  0  0  0  0  0  0  0  0
   -3.8571   -0.0129   -1.5758 N   0  0  0  0  0  0  0  0  0  0  0  0
   -4.5549    0.3269   -0.4544 C   0  0  0  0  0  0  0  0  0  0  0  0
   -5.8798    0.2207   -0.1190 C   0  0  0  0  0  0  0  0  0  0  0  0
   -6.8840   -0.3020   -0.9238 C   0  0  0  0  0  0  0  0  0  0  0  0
   -8.1077   -0.2498   -0.2462 C   0  0  0  0  0  0  0  0  0  0  0  0
   -8.2033    0.2762    1.0657 C   0  0  0  0  0  0  0  0  0  0  0  0
   -7.1941    0.7857    1.8382 N   0  0  0  0  0  0  0  0  0  0  0  0
   -5.9978    0.7456    1.1952 C   0  0  0  0  0  0  0  0  0  0  0  0
   -4.8262    1.1626    1.6680 N   0  0  0  0  0  0  0  0  0  0  0  0
   -3.9418    0.9137    0.6611 N   0  0  0  0  0  0  0  0  0  0  0  0
   -2.5578    1.1757    0.6669 C   0  0  0  0  0  0  0  0  0  0  0  0
   -2.0192    1.8034    1.9261 C   0  0  0  0  0  0  0  0  0  0  0  0
    4.9979   -0.2259   -0.3624 C   0  0  0  0  0  0  0  0  0  0  0  0
    8.7203    2.3657    0.0996 H   0  0  0  0  0  0  0  0  0  0  0  0
    7.1855    1.9879    0.9141 H   0  0  0  0  0  0  0  0  0  0  0  0
    8.5774    0.8719    1.0498 H   0  0  0  0  0  0  0  0  0  0  0  0
    7.9379   -1.8559    0.2195 H   0  0  0  0  0  0  0  0  0  0  0  0
    6.3791   -3.4672    1.2596 H   0  0  0  0  0  0  0  0  0  0  0  0
    3.9603   -3.0282    1.2702 H   0  0  0  0  0  0  0  0  0  0  0  0
    2.1868   -1.7038    0.7030 H   0  0  0  0  0  0  0  0  0  0  0  0
    0.3026   -0.2232    1.0527 H   0  0  0  0  0  0  0  0  0  0  0  0
    0.1993   -1.0202   -0.5303 H   0  0  0  0  0  0  0  0  0  0  0  0
   -0.0378    2.0061   -0.0304 H   0  0  0  0  0  0  0  0  0  0  0  0
   -0.0657    1.2914   -1.5991 H   0  0  0  0  0  0  0  0  0  0  0  0
   -0.9570   -0.7556   -2.6000 H   0  0  0  0  0  0  0  0  0  0  0  0
   -1.5107    0.7741   -3.3488 H   0  0  0  0  0  0  0  0  0  0  0  0
   -2.4740   -0.7058   -3.5096 H   0  0  0  0  0  0  0  0  0  0  0  0
   -6.7506   -0.6903   -1.9227 H   0  0  0  0  0  0  0  0  0  0  0  0
   -9.0073   -0.6200   -0.7329 H   0  0  0  0  0  0  0  0  0  0  0  0
   -9.1765    0.2969    1.5559 H   0  0  0  0  0  0  0  0  0  0  0  0
   -2.2682    1.1878    2.7987 H   0  0  0  0  0  0  0  0  0  0  0  0
   -0.9320    1.9155    1.9256 H   0  0  0  0  0  0  0  0  0  0  0  0
   -2.4520    2.8006    2.0681 H   0  0  0  0  0  0  0  0  0  0  0  0
    4.6422    0.6848   -0.8349 H   0  0  0  0  0  0  0  0  0  0  0  0
  1  2  1  0
  2  3  1  0
  3  4  2  0
  4  5  1  0
  5  6  2  0
  6  7  1  0
  7  8  1  0
  8  9  1  0
  9 10  2  0
  9 11  1  0
 11 12  1  0
 12 13  1  0
 13 14  1  0
 14 15  1  0
 14 16  2  0
 16 17  1  0
 17 18  2  0
 18 19  1  0
 19 20  2  0
 20 21  1  0
 21 22  2  0
 22 23  1  0
 23 24  2  0
 24 25  1  0
 25 26  1  0
 26 27  1  0
  7 28  2  0
 28  3  1  0
 26 13  2  0
 25 17  1  0
 23 18  1  0
  1 29  1  0
  1 30  1  0
  1 31  1  0
  4 32  1  0
  5 33  1  0
  6 34  1  0
  8 35  1  0
 11 36  1  0
 11 37  1  0
 12 38  1  0
 12 39  1  0
 15 40  1  0
 15 41  1  0
 15 42  1  0
 19 43  1  0
 20 44  1  0
 21 45  1  0
 27 46  1  0
 27 47  1  0
 27 48  1  0
 28 49  1  0
M  END
$$$$
