
     RDKit          3D

 18 19  0  0  0  0  0  0  0  0999 V2000
   -3.5720   -1.0888    0.0776 O   0  0  0  0  0  0  0  0  0  0  0  0
   -2.4688   -0.5554    0.0361 C   0  0  0  0  0  0  0  0  0  0  0  0
   -2.3422    0.9172   -0.0942 C   0  0  0  0  0  0  0  0  0  0  0  0
   -1.1431    1.5130   -0.1408 C   0  0  0  0  0  0  0  0  0  0  0  0
    0.0769    0.7087   -0.0626 C   0  0  0  0  0  0  0  0  0  0  0  0
    1.3439    1.2956   -0.1080 C   0  0  0  0  0  0  0  0  0  0  0  0
    2.4866    0.4952   -0.0306 C   0  0  0  0  0  0  0  0  0  0  0  0
    2.3678   -0.8906    0.0920 C   0  0  0  0  0  0  0  0  0  0  0  0
    1.1059   -1.4848    0.1381 C   0  0  0  0  0  0  0  0  0  0  0  0
   -0.0329   -0.6840    0.0607 C   0  0  0  0  0  0  0  0  0  0  0  0
   -1.3044   -1.2710    0.1060 N   0  0  0  0  0  0  0  0  0  0  0  0
   -3.2692    1.4736   -0.1487 H   0  0  0  0  0  0  0  0  0  0  0  0
   -1.0575    2.5892   -0.2361 H   0  0  0  0  0  0  0  0  0  0  0  0
    1.4543    2.3727   -0.2033 H   0  0  0  0  0  0  0  0  0  0  0  0
    3.4723    0.9534   -0.0661 H   0  0  0  0  0  0  0  0  0  0  0  0
    3.2609   -1.5080    0.1518 H   0  0  0  0  0  0  0  0  0  0  0  0
    1.0253   -2.5635    0.2336 H   0  0  0  0  0  0  0  0  0  0  0  0
   -1.4039   -2.2725    0.1946 H   0  0  0  0  0  0  0  0  0  0  0  0
  1  2  2  0
  2  3  1  0
  3  4  2  0
  4  5  1  0
  5  6  2  0
  6  7  1  0
  7  8  2  0
  8  9  1  0
  9 10  2  0
 10 11  1  0
 11  2  1  0
 10  5  1  0
  3 12  1  0
  4 13  1  0
  6 14  1  0
  7 15  1  0
  8 16  1  0
  9 17  1  0
 11 18  1  0
M  END
$$$$
