
     RDKit          3D

 38 37  0  0  0  0  0  0  0  0999 V2000
    3.8125   -0.8834   -0.4034 C   0  0  0  0  0  0  0  0  0  0  0  0
    3.5355    0.4983    0.1066 C   0  0  0  0  0  0  0  0  0  0  0  0
    2.1403    0.5763    0.6623 C   0  0  0  0  0  0  0  0  0  0  0  0
    1.1186    0.2505   -0.3820 C   0  0  0  0  0  0  0  0  0  0  0  0
   -0.1825    0.3193    0.1148 N   0  0  0  0  0  0  0  0  0  0  0  0
   -0.7333    1.5558    0.4774 C   0  0  0  0  0  0  0  0  0  0  0  0
   -2.0250    1.7458   -0.2901 C   0  0  2  0  0  0  0  0  0  0  0  0
   -2.9683    2.3377    0.5146 O   0  0  0  0  0  0  0  0  0  0  0  0
   -2.5482    0.4799   -0.8745 C   0  0  1  0  0  0  0  0  0  0  0  0
   -2.0950    0.2445   -2.1620 O   0  0  0  0  0  0  0  0  0  0  0  0
   -2.2914   -0.7492   -0.0468 C   0  0  2  0  0  0  0  0  0  0  0  0
   -3.2297   -0.8024    0.9990 O   0  0  0  0  0  0  0  0  0  0  0  0
   -0.8776   -0.8264    0.4772 C   0  0  1  0  0  0  0  0  0  0  0  0
   -0.2743   -2.1237    0.0177 C   0  0  0  0  0  0  0  0  0  0  0  0
   -1.1131   -3.1529    0.4751 O   0  0  0  0  0  0  0  0  0  0  0  0
    0.6925    0.0000    0.0000 Cl  0  0  0  0  0  0  0  0  0  0  0  0
    4.9128   -0.9700   -0.5777 H   0  0  0  0  0  0  0  0  0  0  0  0
    3.4987   -1.6209    0.3710 H   0  0  0  0  0  0  0  0  0  0  0  0
    3.2595   -1.0959   -1.3361 H   0  0  0  0  0  0  0  0  0  0  0  0
    3.6687    1.2163   -0.7435 H   0  0  0  0  0  0  0  0  0  0  0  0
    4.2886    0.7274    0.8865 H   0  0  0  0  0  0  0  0  0  0  0  0
    1.9837    1.6100    1.0275 H   0  0  0  0  0  0  0  0  0  0  0  0
    2.0719   -0.1353    1.5161 H   0  0  0  0  0  0  0  0  0  0  0  0
    1.3263   -0.7323   -0.8386 H   0  0  0  0  0  0  0  0  0  0  0  0
    1.2292    1.0005   -1.2105 H   0  0  0  0  0  0  0  0  0  0  0  0
   -0.9757    1.6389    1.5721 H   0  0  0  0  0  0  0  0  0  0  0  0
   -0.0124    2.3701    0.2396 H   0  0  0  0  0  0  0  0  0  0  0  0
   -1.7935    2.4325   -1.1482 H   0  0  0  0  0  0  0  0  0  0  0  0
   -3.0424    3.2973    0.2979 H   0  0  0  0  0  0  0  0  0  0  0  0
   -3.6661    0.5874   -0.9414 H   0  0  0  0  0  0  0  0  0  0  0  0
   -1.7290    1.0625   -2.5647 H   0  0  0  0  0  0  0  0  0  0  0  0
   -2.5304   -1.6253   -0.6996 H   0  0  0  0  0  0  0  0  0  0  0  0
   -3.5262    0.1372    1.1803 H   0  0  0  0  0  0  0  0  0  0  0  0
   -0.9443   -0.8829    1.6059 H   0  0  0  0  0  0  0  0  0  0  0  0
    0.7179   -2.3026    0.4917 H   0  0  0  0  0  0  0  0  0  0  0  0
   -0.2427   -2.1604   -1.0789 H   0  0  0  0  0  0  0  0  0  0  0  0
   -0.7632   -4.0246    0.2002 H   0  0  0  0  0  0  0  0  0  0  0  0
   -0.6925    0.0000    0.0000 H   0  0  0  0  0  0  0  0  0  0  0  0
  1  2  1  0
  2  3  1  0
  3  4  1  0
  4  5  1  0
  5  6  1  0
  6  7  1  0
  7  8  1  0
  7  9  1  0
  9 10  1  0
  9 11  1  0
 11 12  1  0
 11 13  1  0
 13 14  1  0
 14 15  1  0
 13  5  1  0
  1 17  1  0
  1 18  1  0
  1 19  1  0
  2 20  1  0
  2 21  1  0
  3 22  1  0
  3 23  1  0
  4 24  1  0
  4 25  1  0
  6 26  1  0
  6 27  1  0
  7 28  1  6
  8 29  1  0
  9 30  1  6
 10 31  1  0
 11 32  1  6
 12 33  1  0
 13 34  1  1
 14 35  1  0
 14 36  1  0
 15 37  1  0
 16 38  1  0
M  END
$$$$
