
     RDKit          3D

 50 53  0  0  0  0  0  0  0  0999 V2000
    6.1854    1.5651   -0.5822 C   0  0  0  0  0  0  0  0  0  0  0  0
    5.2453    1.6779    0.5067 N   0  0  0  0  0  0  0  0  0  0  0  0
    5.4681    2.2480    1.7209 C   0  0  0  0  0  0  0  0  0  0  0  0
    4.2875    2.1221    2.4105 C   0  0  0  0  0  0  0  0  0  0  0  0
    3.3900    1.4475    1.5316 C   0  0  0  0  0  0  0  0  0  0  0  0
    1.9844    1.1125    1.8565 C   0  0  0  0  0  0  0  0  0  0  0  0
    1.4775    1.5256    2.9033 O   0  0  0  0  0  0  0  0  0  0  0  0
    1.2331    0.3367    0.9821 N   0  0  0  0  0  0  0  0  0  0  0  0
    1.6616   -0.3095   -0.2378 C   0  0  0  0  0  0  0  0  0  0  0  0
    0.5037   -1.2318   -0.6484 C   0  0  1  0  0  0  0  0  0  0  0  0
    0.6966   -2.6629   -0.1446 C   0  0  0  0  0  0  0  0  0  0  0  0
   -0.1799   -3.6618   -0.8990 C   0  0  0  0  0  0  0  0  0  0  0  0
   -1.4395   -3.0763   -1.5194 C   0  0  0  0  0  0  0  0  0  0  0  0
   -2.3754   -2.4744   -0.5032 C   0  0  0  0  0  0  0  0  0  0  0  0
   -3.4810   -2.9984   -0.3423 O   0  0  0  0  0  0  0  0  0  0  0  0
   -1.9663   -1.3552    0.2142 N   0  0  0  0  0  0  0  0  0  0  0  0
   -3.0077   -0.7337    1.0550 C   0  0  0  0  0  0  0  0  0  0  0  0
   -3.6605    0.4654    0.4008 C   0  0  0  0  0  0  0  0  0  0  0  0
   -3.4993    1.7515    0.9371 C   0  0  0  0  0  0  0  0  0  0  0  0
   -4.0973    2.8558    0.3266 C   0  0  0  0  0  0  0  0  0  0  0  0
   -4.8687    2.6872   -0.8212 C   0  0  0  0  0  0  0  0  0  0  0  0
   -5.0473    1.4140   -1.3573 C   0  0  0  0  0  0  0  0  0  0  0  0
   -4.4492    0.3093   -0.7489 C   0  0  0  0  0  0  0  0  0  0  0  0
   -0.7450   -0.5463   -0.0419 C   0  0  1  0  0  0  0  0  0  0  0  0
   -0.1623    0.0777    1.2474 C   0  0  0  0  0  0  0  0  0  0  0  0
    4.0021    1.1884    0.3581 N   0  0  0  0  0  0  0  0  0  0  0  0
    6.3231    0.5050   -0.8097 H   0  0  0  0  0  0  0  0  0  0  0  0
    5.7765    2.0944   -1.4465 H   0  0  0  0  0  0  0  0  0  0  0  0
    7.1389    2.0107   -0.2882 H   0  0  0  0  0  0  0  0  0  0  0  0
    6.4177    2.6888    1.9899 H   0  0  0  0  0  0  0  0  0  0  0  0
    4.0748    2.4640    3.4145 H   0  0  0  0  0  0  0  0  0  0  0  0
    1.8071    0.4712   -0.9931 H   0  0  0  0  0  0  0  0  0  0  0  0
    2.5987   -0.8530   -0.0897 H   0  0  0  0  0  0  0  0  0  0  0  0
    0.4708   -1.2366   -1.7439 H   0  0  0  0  0  0  0  0  0  0  0  0
    1.7416   -2.9759   -0.2595 H   0  0  0  0  0  0  0  0  0  0  0  0
    0.4812   -2.7249    0.9293 H   0  0  0  0  0  0  0  0  0  0  0  0
   -0.4394   -4.4859   -0.2232 H   0  0  0  0  0  0  0  0  0  0  0  0
    0.4153   -4.1057   -1.7072 H   0  0  0  0  0  0  0  0  0  0  0  0
   -1.9790   -3.8884   -2.0246 H   0  0  0  0  0  0  0  0  0  0  0  0
   -1.2348   -2.3410   -2.3033 H   0  0  0  0  0  0  0  0  0  0  0  0
   -2.5589   -0.4561    2.0147 H   0  0  0  0  0  0  0  0  0  0  0  0
   -3.7936   -1.4536    1.3124 H   0  0  0  0  0  0  0  0  0  0  0  0
   -2.9101    1.9067    1.8382 H   0  0  0  0  0  0  0  0  0  0  0  0
   -3.9643    3.8481    0.7502 H   0  0  0  0  0  0  0  0  0  0  0  0
   -5.3366    3.5467   -1.2938 H   0  0  0  0  0  0  0  0  0  0  0  0
   -5.6568    1.2779   -2.2469 H   0  0  0  0  0  0  0  0  0  0  0  0
   -4.6087   -0.6805   -1.1731 H   0  0  0  0  0  0  0  0  0  0  0  0
   -1.0390    0.2620   -0.7252 H   0  0  0  0  0  0  0  0  0  0  0  0
   -0.2134   -0.6150    2.0961 H   0  0  0  0  0  0  0  0  0  0  0  0
   -0.6670    1.0065    1.5281 H   0  0  0  0  0  0  0  0  0  0  0  0
  1  2  1  0
  2  3  1  0
  3  4  2  0
  4  5  1  0
  5  6  1  0
  6  7  2  0
  6  8  1  0
  8  9  1  0
  9 10  1  0
 10 11  1  0
 11 12  1  0
 12 13  1  0
 13 14  1  0
 14 15  2  0
 14 16  1  0
 16 17  1  0
 17 18  1  0
 18 19  2  0
 19 20  1  0
 20 21  2  0
 21 22  1  0
 22 23  2  0
 16 24  1  0
 24 25  1  0
  5 26  2  0
 26  2  1  0
 25  8  1  0
 24 10  1  0
 23 18  1  0
  1 27  1  0
  1 28  1  0
  1 29  1  0
  3 30  1  0
  4 31  1  0
  9 32  1  0
  9 33  1  0
 10 34  1  6
 11 35  1  0
 11 36  1  0
 12 37  1  0
 12 38  1  0
 13 39  1  0
 13 40  1  0
 17 41  1  0
 17 42  1  0
 19 43  1  0
 20 44  1  0
 21 45  1  0
 22 46  1  0
 23 47  1  0
 24 48  1  6
 25 49  1  0
 25 50  1  0
M  END
$$$$
