
     RDKit          3D

 36 38  0  0  0  0  0  0  0  0999 V2000
   -2.1933   -2.7162   -0.9359 C   0  0  0  0  0  0  0  0  0  0  0  0
   -1.1326   -1.8526   -0.3363 C   0  0  0  0  0  0  0  0  0  0  0  0
    0.3141   -1.5739   -1.2080 S   0  0  0  0  0  0  0  0  0  0  0  0
    0.9951   -0.6037    0.0351 C   0  0  0  0  0  0  0  0  0  0  0  0
    2.3318   -0.0360   -0.1309 C   0  0  0  0  0  0  0  0  0  0  0  0
    3.0432    0.4410    1.0809 C   0  0  0  0  0  0  0  0  0  0  0  0
    4.2503    0.9839    0.9175 C   0  0  0  0  0  0  0  0  0  0  0  0
    4.8560    1.1014   -0.4233 C   0  0  0  0  0  0  0  0  0  0  0  0
    5.9579    1.6319   -0.5298 O   0  0  0  0  0  0  0  0  0  0  0  0
    4.1060    0.5828   -1.4676 N   0  0  0  0  0  0  0  0  0  0  0  0
    4.6038    0.6501   -2.8289 C   0  0  0  0  0  0  0  0  0  0  0  0
    2.8489    0.0359   -1.3217 N   0  0  0  0  0  0  0  0  0  0  0  0
    0.1134   -0.4889    1.0947 C   0  0  0  0  0  0  0  0  0  0  0  0
   -1.1089   -1.2048    0.8842 C   0  0  0  0  0  0  0  0  0  0  0  0
   -2.4118   -1.2072    2.0423 S   0  0  0  0  0  6  0  0  0  0  0  0
   -1.8680   -0.5422    3.2057 O   0  0  0  0  0  0  0  0  0  0  0  0
   -2.8609   -2.5805    2.0686 O   0  0  0  0  0  0  0  0  0  0  0  0
   -3.6696   -0.2746    1.4107 N   0  0  0  0  0  0  0  0  0  0  0  0
   -3.3421    1.1019    1.0425 C   0  0  0  0  0  0  0  0  0  0  0  0
   -3.0115    1.4817   -0.3719 C   0  0  0  0  0  0  0  0  0  0  0  0
   -4.3109    1.9212    0.2377 C   0  0  0  0  0  0  0  0  0  0  0  0
   -2.2115   -3.6919   -0.4399 H   0  0  0  0  0  0  0  0  0  0  0  0
   -3.1784   -2.2524   -0.8279 H   0  0  0  0  0  0  0  0  0  0  0  0
   -2.0321   -2.8866   -2.0057 H   0  0  0  0  0  0  0  0  0  0  0  0
    2.6007    0.3334    2.0602 H   0  0  0  0  0  0  0  0  0  0  0  0
    4.8402    1.3534    1.7463 H   0  0  0  0  0  0  0  0  0  0  0  0
    5.6543    0.9507   -2.8588 H   0  0  0  0  0  0  0  0  0  0  0  0
    4.0065    1.3813   -3.3813 H   0  0  0  0  0  0  0  0  0  0  0  0
    4.5005   -0.3343   -3.2950 H   0  0  0  0  0  0  0  0  0  0  0  0
    0.3126    0.0892    1.9899 H   0  0  0  0  0  0  0  0  0  0  0  0
   -4.2387   -0.8012    0.7496 H   0  0  0  0  0  0  0  0  0  0  0  0
   -2.8273    1.6331    1.8416 H   0  0  0  0  0  0  0  0  0  0  0  0
   -3.0473    0.7225   -1.1438 H   0  0  0  0  0  0  0  0  0  0  0  0
   -2.2433    2.2311   -0.5272 H   0  0  0  0  0  0  0  0  0  0  0  0
   -5.2237    1.4529   -0.1101 H   0  0  0  0  0  0  0  0  0  0  0  0
   -4.4236    2.9676    0.4982 H   0  0  0  0  0  0  0  0  0  0  0  0
  1  2  1  0
  2  3  1  0
  3  4  1  0
  4  5  1  0
  5  6  1  0
  6  7  2  0
  7  8  1  0
  8  9  2  0
  8 10  1  0
 10 11  1  0
 10 12  1  0
  4 13  2  0
 13 14  1  0
 14 15  1  0
 15 16  2  0
 15 17  2  0
 15 18  1  0
 18 19  1  0
 19 20  1  0
 20 21  1  0
 14  2  2  0
 21 19  1  0
 12  5  2  0
  1 22  1  0
  1 23  1  0
  1 24  1  0
  6 25  1  0
  7 26  1  0
 11 27  1  0
 11 28  1  0
 11 29  1  0
 13 30  1  0
 18 31  1  0
 19 32  1  0
 20 33  1  0
 20 34  1  0
 21 35  1  0
 21 36  1  0
M  END
$$$$
