
     RDKit          3D

 71 76  0  0  0  0  0  0  0  0999 V2000
    6.9372    3.6113   -0.0283 C   0  0  0  0  0  0  0  0  0  0  0  0
    5.8989    2.8254    0.7120 C   0  0  0  0  0  0  0  0  0  0  0  0
    5.9492    2.5536    1.9041 O   0  0  0  0  0  0  0  0  0  0  0  0
    4.8917    2.4643   -0.1232 O   0  0  0  0  0  0  0  0  0  0  0  0
    3.8754    1.6881    0.5092 C   0  0  0  0  0  0  0  0  0  0  0  0
    2.6989    1.4642   -0.4339 C   0  0  0  0  0  0  0  0  0  0  0  0
    2.5703    2.1319   -1.4660 O   0  0  0  0  0  0  0  0  0  0  0  0
    1.6593    0.3888   -0.0605 C   0  0  1  0  0  0  0  0  0  0  0  0
    1.7827   -0.6814   -1.0060 O   0  0  0  0  0  0  0  0  0  0  0  0
    2.4742   -1.7362   -0.3551 C   0  0  0  0  0  0  0  0  0  0  0  0
    3.8656   -1.9300   -0.9471 C   0  0  0  0  0  0  0  0  0  0  0  0
    4.2380   -3.3416   -0.5204 C   0  0  0  0  0  0  0  0  0  0  0  0
    2.9261   -4.1214   -0.5394 C   0  0  0  0  0  0  0  0  0  0  0  0
    1.8044   -3.0836   -0.6146 C   0  0  0  0  0  0  0  0  0  0  0  0
    2.5719   -1.4817    1.0470 O   0  0  0  0  0  0  0  0  0  0  0  0
    1.8183   -0.3014    1.2991 C   0  0  2  0  0  0  0  0  0  0  0  0
    0.3969   -0.6346    1.8107 C   0  0  0  0  0  0  0  0  0  0  0  0
   -0.5143   -0.2802    0.6364 C   0  0  1  0  0  0  0  0  0  0  0  0
   -2.0108   -0.0465    0.8895 C   0  0  2  0  0  0  0  0  0  0  0  0
   -2.6319   -1.2580    1.6098 C   0  0  0  0  0  0  0  0  0  0  0  0
   -4.1434   -1.1258    1.7699 C   0  0  0  0  0  0  0  0  0  0  0  0
   -4.7955   -0.8613    0.4368 C   0  0  0  0  0  0  0  0  0  0  0  0
   -5.7193   -1.7085   -0.0492 C   0  0  0  0  0  0  0  0  0  0  0  0
   -6.3335   -1.5203   -1.3793 C   0  0  0  0  0  0  0  0  0  0  0  0
   -7.1885   -2.2890   -1.8040 O   0  0  0  0  0  0  0  0  0  0  0  0
   -5.8775   -0.3663   -2.1769 C   0  0  0  0  0  0  0  0  0  0  0  0
   -4.9559    0.4798   -1.6993 C   0  0  0  0  0  0  0  0  0  0  0  0
   -4.2824    0.3713   -0.3303 C   0  0  1  0  0  0  0  0  0  0  0  0
   -4.7118    1.6313    0.4535 C   0  0  0  0  0  0  0  0  0  0  0  0
   -2.7151    0.2149   -0.4861 C   0  0  2  0  0  0  0  0  0  0  0  0
   -2.5173   -0.9421   -1.2294 F   0  0  0  0  0  0  0  0  0  0  0  0
   -2.0037    1.3373   -1.3062 C   0  0  1  0  0  0  0  0  0  0  0  0
   -2.2846    2.6408   -0.8024 O   0  0  0  0  0  0  0  0  0  0  0  0
   -0.4730    1.1492   -1.3980 C   0  0  0  0  0  0  0  0  0  0  0  0
    0.1957    0.9266   -0.0250 C   0  0  2  0  0  0  0  0  0  0  0  0
    0.1440    2.2188    0.8355 C   0  0  0  0  0  0  0  0  0  0  0  0
    7.3891    2.9938   -0.8080 H   0  0  0  0  0  0  0  0  0  0  0  0
    6.4873    4.5085   -0.4543 H   0  0  0  0  0  0  0  0  0  0  0  0
    7.7192    3.9238    0.6727 H   0  0  0  0  0  0  0  0  0  0  0  0
    3.4891    2.2204    1.3869 H   0  0  0  0  0  0  0  0  0  0  0  0
    4.3052    0.7210    0.7946 H   0  0  0  0  0  0  0  0  0  0  0  0
    3.8417   -1.8498   -2.0421 H   0  0  0  0  0  0  0  0  0  0  0  0
    4.5916   -1.2028   -0.5742 H   0  0  0  0  0  0  0  0  0  0  0  0
    4.6496   -3.3335    0.4947 H   0  0  0  0  0  0  0  0  0  0  0  0
    4.9889   -3.7838   -1.1800 H   0  0  0  0  0  0  0  0  0  0  0  0
    2.8829   -4.7839   -1.4121 H   0  0  0  0  0  0  0  0  0  0  0  0
    2.8356   -4.7468    0.3566 H   0  0  0  0  0  0  0  0  0  0  0  0
    1.3470   -3.1007   -1.6124 H   0  0  0  0  0  0  0  0  0  0  0  0
    1.0157   -3.3066    0.1121 H   0  0  0  0  0  0  0  0  0  0  0  0
    2.3359    0.2835    2.0651 H   0  0  0  0  0  0  0  0  0  0  0  0
    0.2952   -1.6826    2.1088 H   0  0  0  0  0  0  0  0  0  0  0  0
    0.1568   -0.0076    2.6779 H   0  0  0  0  0  0  0  0  0  0  0  0
   -0.4611   -1.1388   -0.0509 H   0  0  0  0  0  0  0  0  0  0  0  0
   -2.1376    0.8228    1.5426 H   0  0  0  0  0  0  0  0  0  0  0  0
   -2.4067   -2.1772    1.0542 H   0  0  0  0  0  0  0  0  0  0  0  0
   -2.1827   -1.3718    2.6029 H   0  0  0  0  0  0  0  0  0  0  0  0
   -4.3780   -0.3122    2.4667 H   0  0  0  0  0  0  0  0  0  0  0  0
   -4.5334   -2.0419    2.2301 H   0  0  0  0  0  0  0  0  0  0  0  0
   -6.0540   -2.5862    0.4898 H   0  0  0  0  0  0  0  0  0  0  0  0
   -6.3301   -0.2497   -3.1548 H   0  0  0  0  0  0  0  0  0  0  0  0
   -4.6721    1.3218   -2.3287 H   0  0  0  0  0  0  0  0  0  0  0  0
   -4.6324    2.5426   -0.1494 H   0  0  0  0  0  0  0  0  0  0  0  0
   -5.7616    1.5639    0.7661 H   0  0  0  0  0  0  0  0  0  0  0  0
   -4.1186    1.7889    1.3593 H   0  0  0  0  0  0  0  0  0  0  0  0
   -2.3816    1.3078   -2.3356 H   0  0  0  0  0  0  0  0  0  0  0  0
   -1.9315    3.2801   -1.4488 H   0  0  0  0  0  0  0  0  0  0  0  0
   -0.2779    0.2899   -2.0523 H   0  0  0  0  0  0  0  0  0  0  0  0
   -0.0271    2.0236   -1.8874 H   0  0  0  0  0  0  0  0  0  0  0  0
   -0.8658    2.4913    1.1462 H   0  0  0  0  0  0  0  0  0  0  0  0
    0.7343    2.1330    1.7541 H   0  0  0  0  0  0  0  0  0  0  0  0
    0.5469    3.0717    0.2766 H   0  0  0  0  0  0  0  0  0  0  0  0
  1  2  1  0
  2  3  2  0
  2  4  1  0
  4  5  1  0
  5  6  1  0
  6  7  2  0
  8  6  1  6
  8  9  1  0
  9 10  1  0
 10 11  1  0
 11 12  1  0
 12 13  1  0
 13 14  1  0
 10 15  1  0
 15 16  1  0
 16 17  1  0
 17 18  1  0
 18 19  1  0
 19 20  1  0
 20 21  1  0
 21 22  1  0
 22 23  2  0
 23 24  1  0
 24 25  2  0
 24 26  1  0
 26 27  2  0
 27 28  1  0
 28 29  1  1
 28 30  1  0
 30 31  1  6
 30 32  1  0
 32 33  1  0
 32 34  1  0
 34 35  1  0
 35 36  1  1
 16  8  1  0
 35 18  1  0
 35  8  1  0
 14 10  1  0
 30 19  1  0
 28 22  1  0
  1 37  1  0
  1 38  1  0
  1 39  1  0
  5 40  1  0
  5 41  1  0
 11 42  1  0
 11 43  1  0
 12 44  1  0
 12 45  1  0
 13 46  1  0
 13 47  1  0
 14 48  1  0
 14 49  1  0
 16 50  1  1
 17 51  1  0
 17 52  1  0
 18 53  1  6
 19 54  1  1
 20 55  1  0
 20 56  1  0
 21 57  1  0
 21 58  1  0
 23 59  1  0
 26 60  1  0
 27 61  1  0
 29 62  1  0
 29 63  1  0
 29 64  1  0
 32 65  1  6
 33 66  1  0
 34 67  1  0
 34 68  1  0
 36 69  1  0
 36 70  1  0
 36 71  1  0
M  END
$$$$
