
     RDKit          3D

 40 43  0  0  0  0  0  0  0  0999 V2000
    5.9339    2.0900    2.5463 O   0  0  0  0  0  0  0  0  0  0  0  0
    4.9353    1.6011    2.0358 C   0  0  0  0  0  0  0  0  0  0  0  0
    3.7137    2.0260    2.4246 O   0  0  0  0  0  0  0  0  0  0  0  0
    4.9341    0.5691    1.0143 C   0  0  0  0  0  0  0  0  0  0  0  0
    6.0888    0.0068    0.4943 C   0  0  0  0  0  0  0  0  0  0  0  0
    5.7411   -0.9273   -0.4400 N   0  0  0  0  0  0  0  0  0  0  0  0
    4.3727   -0.9951   -0.5517 C   0  0  0  0  0  0  0  0  0  0  0  0
    3.5799   -1.8028   -1.3751 C   0  0  0  0  0  0  0  0  0  0  0  0
    2.1872   -1.6671   -1.2851 C   0  0  0  0  0  0  0  0  0  0  0  0
    1.2376   -2.6969   -2.3075 Cl  0  0  0  0  0  0  0  0  0  0  0  0
    1.5904   -0.7521   -0.4019 C   0  0  0  0  0  0  0  0  0  0  0  0
    0.1343   -0.5841   -0.2859 C   0  0  0  0  0  0  0  0  0  0  0  0
   -0.5618   -1.0995    0.8124 C   0  0  0  0  0  0  0  0  0  0  0  0
   -1.9469   -0.9303    0.9246 C   0  0  0  0  0  0  0  0  0  0  0  0
   -2.6995   -0.2346   -0.0418 C   0  0  0  0  0  0  0  0  0  0  0  0
   -4.2885   -0.0738    0.1000 C   0  0  0  0  0  0  0  0  0  0  0  0
   -4.9554   -1.3035   -0.2892 O   0  0  0  0  0  0  0  0  0  0  0  0
   -4.8000    0.4931    1.4725 C   0  0  0  0  0  0  0  0  0  0  0  0
   -5.8720    1.2720    0.6920 C   0  0  0  0  0  0  0  0  0  0  0  0
   -4.9389    1.2099   -0.5289 C   0  0  0  0  0  0  0  0  0  0  0  0
   -1.9793    0.2679   -1.1427 C   0  0  0  0  0  0  0  0  0  0  0  0
   -0.5934    0.1047   -1.2624 C   0  0  0  0  0  0  0  0  0  0  0  0
    2.4281    0.0416    0.4123 C   0  0  0  0  0  0  0  0  0  0  0  0
    3.8358   -0.0711    0.3460 C   0  0  0  0  0  0  0  0  0  0  0  0
    3.9254    2.7024    3.0995 H   0  0  0  0  0  0  0  0  0  0  0  0
    7.1293    0.2029    0.7215 H   0  0  0  0  0  0  0  0  0  0  0  0
    6.3914   -1.4888   -0.9737 H   0  0  0  0  0  0  0  0  0  0  0  0
    4.0281   -2.5153   -2.0605 H   0  0  0  0  0  0  0  0  0  0  0  0
   -0.0316   -1.6480    1.5884 H   0  0  0  0  0  0  0  0  0  0  0  0
   -2.4596   -1.3600    1.7845 H   0  0  0  0  0  0  0  0  0  0  0  0
   -4.5555   -1.5348   -1.1452 H   0  0  0  0  0  0  0  0  0  0  0  0
   -4.0813    1.1346    1.9964 H   0  0  0  0  0  0  0  0  0  0  0  0
   -5.1902   -0.2460    2.1782 H   0  0  0  0  0  0  0  0  0  0  0  0
   -6.8096    0.7202    0.5595 H   0  0  0  0  0  0  0  0  0  0  0  0
   -6.0992    2.2732    1.0665 H   0  0  0  0  0  0  0  0  0  0  0  0
   -5.4444    1.0667   -1.4883 H   0  0  0  0  0  0  0  0  0  0  0  0
   -4.2693    2.0743   -0.6093 H   0  0  0  0  0  0  0  0  0  0  0  0
   -2.5062    0.8000   -1.9326 H   0  0  0  0  0  0  0  0  0  0  0  0
   -0.0851    0.5179   -2.1315 H   0  0  0  0  0  0  0  0  0  0  0  0
    1.9806    0.7569    1.0999 H   0  0  0  0  0  0  0  0  0  0  0  0
  1  2  2  0
  2  3  1  0
  2  4  1  0
  4  5  2  0
  5  6  1  0
  6  7  1  0
  7  8  2  0
  8  9  1  0
  9 10  1  0
  9 11  2  0
 11 12  1  0
 12 13  2  0
 13 14  1  0
 14 15  2  0
 15 16  1  0
 16 17  1  0
 16 18  1  0
 18 19  1  0
 19 20  1  0
 15 21  1  0
 21 22  2  0
 11 23  1  0
 23 24  2  0
 24  4  1  0
 24  7  1  0
 22 12  1  0
 20 16  1  0
  3 25  1  0
  5 26  1  0
  6 27  1  0
  8 28  1  0
 13 29  1  0
 14 30  1  0
 17 31  1  0
 18 32  1  0
 18 33  1  0
 19 34  1  0
 19 35  1  0
 20 36  1  0
 20 37  1  0
 21 38  1  0
 22 39  1  0
 23 40  1  0
M  END
$$$$
