
     RDKit          3D

 35 36  0  0  0  0  0  0  0  0999 V2000
    0.7664    0.0000    0.0000 Br  0  0  0  0  0  0  0  0  0  0  0  0
    6.1952    1.0686   -2.1053 N   0  0  0  0  0  0  0  0  0  0  0  0
    5.1675    0.2143   -1.5583 C   0  0  0  0  0  0  0  0  0  0  0  0
    4.0885    0.3424   -1.0229 N   0  0  0  0  0  0  0  0  0  0  0  0
    3.2950   -0.5836   -0.5904 C   0  0  0  0  0  0  0  0  0  0  0  0
    1.9688   -0.3286    0.0640 C   0  0  0  0  0  0  0  0  0  0  0  0
    1.1808   -1.3496    0.4974 C   0  0  0  0  0  0  0  0  0  0  0  0
   -0.0460   -1.1191    1.1030 C   0  0  0  0  0  0  0  0  0  0  0  0
   -0.5125    0.1655    1.2879 C   0  0  0  0  0  0  0  0  0  0  0  0
   -1.8249    0.3824    1.9369 C   0  0  0  0  0  0  0  0  0  0  0  0
   -2.9417    0.4197    0.9665 C   0  0  0  0  0  0  0  0  0  0  0  0
   -3.3277    1.6095    0.3981 C   0  0  0  0  0  0  0  0  0  0  0  0
   -4.3616    1.6748   -0.5064 C   0  0  0  0  0  0  0  0  0  0  0  0
   -5.0347    0.5340   -0.8611 C   0  0  0  0  0  0  0  0  0  0  0  0
   -4.6662   -0.6782   -0.3034 C   0  0  0  0  0  0  0  0  0  0  0  0
   -3.6226   -0.7213    0.6051 C   0  0  0  0  0  0  0  0  0  0  0  0
    0.2909    1.2018    0.8463 C   0  0  0  0  0  0  0  0  0  0  0  0
    1.5118    0.9652    0.2439 C   0  0  0  0  0  0  0  0  0  0  0  0
    3.7174   -1.8863   -0.7526 C   0  0  0  0  0  0  0  0  0  0  0  0
    5.3576   -1.6031   -1.5847 S   0  0  0  0  0  0  0  0  0  0  0  0
   -0.7664    0.0000    0.0000 H   0  0  0  0  0  0  0  0  0  0  0  0
    6.8204    1.5610   -1.4647 H   0  0  0  0  0  0  0  0  0  0  0  0
    6.2579    1.1484   -3.1184 H   0  0  0  0  0  0  0  0  0  0  0  0
    1.5071   -2.3903    0.3734 H   0  0  0  0  0  0  0  0  0  0  0  0
   -0.6550   -1.9471    1.4393 H   0  0  0  0  0  0  0  0  0  0  0  0
   -2.0441   -0.3926    2.7113 H   0  0  0  0  0  0  0  0  0  0  0  0
   -1.8243    1.3542    2.5049 H   0  0  0  0  0  0  0  0  0  0  0  0
   -2.8205    2.5531    0.6487 H   0  0  0  0  0  0  0  0  0  0  0  0
   -4.6675    2.6099   -0.9553 H   0  0  0  0  0  0  0  0  0  0  0  0
   -5.8523    0.5765   -1.5746 H   0  0  0  0  0  0  0  0  0  0  0  0
   -5.2031   -1.5729   -0.5894 H   0  0  0  0  0  0  0  0  0  0  0  0
   -3.3793   -1.6963    1.0079 H   0  0  0  0  0  0  0  0  0  0  0  0
   -0.0679    2.2067    0.9879 H   0  0  0  0  0  0  0  0  0  0  0  0
    2.1571    1.7586   -0.1093 H   0  0  0  0  0  0  0  0  0  0  0  0
    3.3363   -2.8377   -0.5257 H   0  0  0  0  0  0  0  0  0  0  0  0
  2  3  1  0
  3  4  2  0
  4  5  1  0
  5  6  1  0
  6  7  2  0
  7  8  1  0
  8  9  2  0
  9 10  1  0
 10 11  1  0
 11 12  2  0
 12 13  1  0
 13 14  2  0
 14 15  1  0
 15 16  2  0
  9 17  1  0
 17 18  2  0
  5 19  2  0
 19 20  1  0
 20  3  1  0
 18  6  1  0
 16 11  1  0
  1 21  1  0
  2 22  1  0
  2 23  1  0
  7 24  1  0
  8 25  1  0
 10 26  1  0
 10 27  1  0
 12 28  1  0
 13 29  1  0
 14 30  1  0
 15 31  1  0
 16 32  1  0
 17 33  1  0
 18 34  1  0
 19 35  1  0
M  END
$$$$
