
     RDKit          3D

 47 49  0  0  0  0  0  0  0  0999 V2000
    7.6569   -1.0797   -1.1542 C   0  0  0  0  0  0  0  0  0  0  0  0
    7.5547    0.1916   -0.5236 O   0  0  0  0  0  0  0  0  0  0  0  0
    6.3464    0.5102    0.0324 C   0  0  0  0  0  0  0  0  0  0  0  0
    6.3124    1.7449    0.6855 C   0  0  0  0  0  0  0  0  0  0  0  0
    5.1457    2.1917    1.3068 C   0  0  0  0  0  0  0  0  0  0  0  0
    3.9935    1.4068    1.2710 C   0  0  0  0  0  0  0  0  0  0  0  0
    4.0104    0.1761    0.6029 C   0  0  0  0  0  0  0  0  0  0  0  0
    2.8120   -0.7055    0.5311 C   0  0  0  0  0  0  0  0  0  0  0  0
    2.9424   -1.9176    0.3966 O   0  0  0  0  0  0  0  0  0  0  0  0
    1.5836   -0.0920    0.5942 N   0  0  0  0  0  0  0  0  0  0  0  0
    0.3561   -0.8594    0.6590 C   0  0  0  0  0  0  0  0  0  0  0  0
    0.0071   -1.6000   -0.6194 C   0  0  0  0  0  0  0  0  0  0  0  0
   -1.4971   -1.7532   -0.5093 C   0  0  0  0  0  0  0  0  0  0  0  0
   -1.9379   -0.5552    0.1728 N   0  0  0  0  0  0  0  0  0  0  0  0
   -3.2963   -0.1330    0.1870 C   0  0  0  0  0  0  0  0  0  0  0  0
   -4.2967   -0.9234   -0.4037 C   0  0  0  0  0  0  0  0  0  0  0  0
   -5.6431   -0.5236   -0.4169 C   0  0  0  0  0  0  0  0  0  0  0  0
   -6.6898   -1.4051   -1.0330 C   0  0  0  0  0  0  0  0  0  0  0  0
   -6.0048    0.6756    0.2004 C   0  0  0  0  0  0  0  0  0  0  0  0
   -5.0365    1.4747    0.8124 C   0  0  0  0  0  0  0  0  0  0  0  0
   -5.4164    2.7836    1.4412 C   0  0  0  0  0  0  0  0  0  0  0  0
   -3.6912    1.0696    0.7869 C   0  0  0  0  0  0  0  0  0  0  0  0
   -0.8602    0.0514    0.8418 C   0  0  0  0  0  0  0  0  0  0  0  0
   -0.8226    1.0910    1.4865 O   0  0  0  0  0  0  0  0  0  0  0  0
    5.1935   -0.2743   -0.0049 C   0  0  0  0  0  0  0  0  0  0  0  0
    7.4705   -1.8905   -0.4422 H   0  0  0  0  0  0  0  0  0  0  0  0
    8.6818   -1.1886   -1.5217 H   0  0  0  0  0  0  0  0  0  0  0  0
    6.9853   -1.1466   -2.0164 H   0  0  0  0  0  0  0  0  0  0  0  0
    7.2093    2.3598    0.7180 H   0  0  0  0  0  0  0  0  0  0  0  0
    5.1405    3.1473    1.8255 H   0  0  0  0  0  0  0  0  0  0  0  0
    3.1080    1.7598    1.7910 H   0  0  0  0  0  0  0  0  0  0  0  0
    1.4993    0.9096    0.7211 H   0  0  0  0  0  0  0  0  0  0  0  0
    0.4091   -1.5439    1.5142 H   0  0  0  0  0  0  0  0  0  0  0  0
    0.2612   -0.9942   -1.4990 H   0  0  0  0  0  0  0  0  0  0  0  0
    0.5181   -2.5622   -0.7173 H   0  0  0  0  0  0  0  0  0  0  0  0
   -1.9393   -1.8384   -1.5066 H   0  0  0  0  0  0  0  0  0  0  0  0
   -1.7664   -2.6231    0.1001 H   0  0  0  0  0  0  0  0  0  0  0  0
   -4.0541   -1.8775   -0.8622 H   0  0  0  0  0  0  0  0  0  0  0  0
   -7.5357   -0.8131   -1.3980 H   0  0  0  0  0  0  0  0  0  0  0  0
   -7.0549   -2.1246   -0.2937 H   0  0  0  0  0  0  0  0  0  0  0  0
   -6.2834   -1.9520   -1.8903 H   0  0  0  0  0  0  0  0  0  0  0  0
   -7.0469    0.9892    0.2068 H   0  0  0  0  0  0  0  0  0  0  0  0
   -4.7806    2.9993    2.3063 H   0  0  0  0  0  0  0  0  0  0  0  0
   -5.3115    3.5929    0.7121 H   0  0  0  0  0  0  0  0  0  0  0  0
   -6.4516    2.7618    1.7978 H   0  0  0  0  0  0  0  0  0  0  0  0
   -2.9630    1.7294    1.2488 H   0  0  0  0  0  0  0  0  0  0  0  0
    5.1820   -1.2393   -0.5026 H   0  0  0  0  0  0  0  0  0  0  0  0
  1  2  1  0
  2  3  1  0
  3  4  2  0
  4  5  1  0
  5  6  2  0
  6  7  1  0
  7  8  1  0
  8  9  2  0
  8 10  1  0
 10 11  1  0
 11 12  1  0
 12 13  1  0
 13 14  1  0
 14 15  1  0
 15 16  2  0
 16 17  1  0
 17 18  1  0
 17 19  2  0
 19 20  1  0
 20 21  1  0
 20 22  2  0
 14 23  1  0
 23 24  2  0
  7 25  2  0
 25  3  1  0
 23 11  1  0
 22 15  1  0
  1 26  1  0
  1 27  1  0
  1 28  1  0
  4 29  1  0
  5 30  1  0
  6 31  1  0
 10 32  1  0
 11 33  1  0
 12 34  1  0
 12 35  1  0
 13 36  1  0
 13 37  1  0
 16 38  1  0
 18 39  1  0
 18 40  1  0
 18 41  1  0
 19 42  1  0
 21 43  1  0
 21 44  1  0
 21 45  1  0
 22 46  1  0
 25 47  1  0
M  END
$$$$
