
     RDKit          3D

 77 81  0  0  0  0  0  0  0  0999 V2000
   -6.8927    2.6711   -0.7943 C   0  0  0  0  0  0  0  0  0  0  0  0
   -6.2661    2.6928    0.5921 C   0  0  0  0  0  0  0  0  0  0  0  0
   -6.1421    1.2946    1.2325 C   0  0  2  0  0  0  0  0  0  0  0  0
   -5.7365    1.4837    2.7043 C   0  0  0  0  0  0  0  0  0  0  0  0
   -6.5946    1.6300    3.5781 O   0  0  0  0  0  0  0  0  0  0  0  0
   -4.3729    1.5903    2.9573 N   0  0  0  0  0  0  0  0  0  0  0  0
   -3.9194    1.9602    4.2865 C   0  0  0  0  0  0  0  0  0  0  0  0
   -3.4322    1.2025    1.9610 C   0  0  0  0  0  0  0  0  0  0  0  0
   -2.0646    1.2986    2.1233 C   0  0  0  0  0  0  0  0  0  0  0  0
   -1.1596    0.8726    1.2209 N   0  0  0  0  0  0  0  0  0  0  0  0
   -1.6352    0.3139    0.1027 C   0  0  0  0  0  0  0  0  0  0  0  0
   -0.7965   -0.1747   -0.8874 N   0  0  0  0  0  0  0  0  0  0  0  0
    0.5926   -0.2776   -1.0549 C   0  0  0  0  0  0  0  0  0  0  0  0
    1.5181    0.2070   -0.1252 C   0  0  0  0  0  0  0  0  0  0  0  0
    2.8946    0.0714   -0.3364 C   0  0  0  0  0  0  0  0  0  0  0  0
    3.3680   -0.5683   -1.4847 C   0  0  0  0  0  0  0  0  0  0  0  0
    4.8218   -0.7469   -1.7608 C   0  0  0  0  0  0  0  0  0  0  0  0
    5.2140   -0.8699   -2.9165 O   0  0  0  0  0  0  0  0  0  0  0  0
    5.6639   -0.7872   -0.6686 N   0  0  0  0  0  0  0  0  0  0  0  0
    7.1144   -0.8786   -0.8167 C   0  0  0  0  0  0  0  0  0  0  0  0
    7.7437   -1.4729    0.4506 C   0  0  0  0  0  0  0  0  0  0  0  0
    9.1662   -0.9580    0.6440 C   0  0  0  0  0  0  0  0  0  0  0  0
    9.1844    0.4948    0.8618 N   0  0  0  0  0  0  0  0  0  0  0  0
   10.5356    1.0249    0.6903 C   0  0  0  0  0  0  0  0  0  0  0  0
    8.1980    1.2317    0.0585 C   0  0  0  0  0  0  0  0  0  0  0  0
    7.7295    0.4805   -1.1845 C   0  0  0  0  0  0  0  0  0  0  0  0
    2.4563   -1.0418   -2.4370 C   0  0  0  0  0  0  0  0  0  0  0  0
    1.0807   -0.9001   -2.2293 C   0  0  0  0  0  0  0  0  0  0  0  0
    0.1080   -1.3390   -3.1009 O   0  0  0  0  0  0  0  0  0  0  0  0
    0.5458   -1.8706   -4.3459 C   0  0  0  0  0  0  0  0  0  0  0  0
   -2.9462    0.1722   -0.1419 N   0  0  0  0  0  0  0  0  0  0  0  0
   -3.8401    0.6182    0.7650 C   0  0  0  0  0  0  0  0  0  0  0  0
   -5.1987    0.4652    0.4599 N   0  0  0  0  0  0  0  0  0  0  0  0
   -5.5719   -0.8710   -0.0154 C   0  0  0  0  0  0  0  0  0  0  0  0
   -6.8157   -0.8869   -0.9075 C   0  0  0  0  0  0  0  0  0  0  0  0
   -7.2883   -2.3281   -0.8003 C   0  0  0  0  0  0  0  0  0  0  0  0
   -7.1161   -2.6423    0.6784 C   0  0  0  0  0  0  0  0  0  0  0  0
   -5.8820   -1.8557    1.1234 C   0  0  0  0  0  0  0  0  0  0  0  0
   -7.8925    2.2272   -0.7667 H   0  0  0  0  0  0  0  0  0  0  0  0
   -6.2786    2.1068   -1.5022 H   0  0  0  0  0  0  0  0  0  0  0  0
   -6.9892    3.6922   -1.1778 H   0  0  0  0  0  0  0  0  0  0  0  0
   -6.8809    3.3330    1.2374 H   0  0  0  0  0  0  0  0  0  0  0  0
   -5.2849    3.1796    0.5280 H   0  0  0  0  0  0  0  0  0  0  0  0
   -7.1313    0.8227    1.2553 H   0  0  0  0  0  0  0  0  0  0  0  0
   -3.2807    2.8464    4.2185 H   0  0  0  0  0  0  0  0  0  0  0  0
   -3.3647    1.1256    4.7272 H   0  0  0  0  0  0  0  0  0  0  0  0
   -4.7561    2.2015    4.9481 H   0  0  0  0  0  0  0  0  0  0  0  0
   -1.6158    1.7290    3.0119 H   0  0  0  0  0  0  0  0  0  0  0  0
   -1.3367   -0.5661   -1.6502 H   0  0  0  0  0  0  0  0  0  0  0  0
    1.1852    0.7094    0.7780 H   0  0  0  0  0  0  0  0  0  0  0  0
    3.5700    0.4980    0.3983 H   0  0  0  0  0  0  0  0  0  0  0  0
    5.2871   -0.6958    0.2642 H   0  0  0  0  0  0  0  0  0  0  0  0
    7.3037   -1.5611   -1.6556 H   0  0  0  0  0  0  0  0  0  0  0  0
    7.7436   -2.5672    0.3810 H   0  0  0  0  0  0  0  0  0  0  0  0
    7.1491   -1.2270    1.3405 H   0  0  0  0  0  0  0  0  0  0  0  0
    9.7678   -1.2383   -0.2308 H   0  0  0  0  0  0  0  0  0  0  0  0
    9.6123   -1.4536    1.5139 H   0  0  0  0  0  0  0  0  0  0  0  0
   10.5746    2.0818    0.9770 H   0  0  0  0  0  0  0  0  0  0  0  0
   11.2425    0.4990    1.3419 H   0  0  0  0  0  0  0  0  0  0  0  0
   10.8843    0.9338   -0.3447 H   0  0  0  0  0  0  0  0  0  0  0  0
    8.5733    2.2213   -0.2308 H   0  0  0  0  0  0  0  0  0  0  0  0
    7.3277    1.4258    0.6987 H   0  0  0  0  0  0  0  0  0  0  0  0
    8.5925    0.3188   -1.8438 H   0  0  0  0  0  0  0  0  0  0  0  0
    7.0229    1.1001   -1.7488 H   0  0  0  0  0  0  0  0  0  0  0  0
    2.8490   -1.5222   -3.3281 H   0  0  0  0  0  0  0  0  0  0  0  0
   -0.3433   -2.1151   -4.9352 H   0  0  0  0  0  0  0  0  0  0  0  0
    1.1126   -2.7956   -4.2004 H   0  0  0  0  0  0  0  0  0  0  0  0
    1.1256   -1.1331   -4.9110 H   0  0  0  0  0  0  0  0  0  0  0  0
   -4.7672   -1.3086   -0.6230 H   0  0  0  0  0  0  0  0  0  0  0  0
   -6.5832   -0.6053   -1.9394 H   0  0  0  0  0  0  0  0  0  0  0  0
   -7.6062   -0.2197   -0.5528 H   0  0  0  0  0  0  0  0  0  0  0  0
   -6.6499   -2.9842   -1.4044 H   0  0  0  0  0  0  0  0  0  0  0  0
   -8.3224   -2.4546   -1.1338 H   0  0  0  0  0  0  0  0  0  0  0  0
   -7.9940   -2.2950    1.2374 H   0  0  0  0  0  0  0  0  0  0  0  0
   -7.0088   -3.7164    0.8612 H   0  0  0  0  0  0  0  0  0  0  0  0
   -6.0718   -1.3700    2.0860 H   0  0  0  0  0  0  0  0  0  0  0  0
   -5.0299   -2.5296    1.2728 H   0  0  0  0  0  0  0  0  0  0  0  0
  1  2  1  0
  2  3  1  0
  3  4  1  0
  4  5  2  0
  4  6  1  0
  6  7  1  0
  6  8  1  0
  8  9  2  0
  9 10  1  0
 10 11  2  0
 11 12  1  0
 12 13  1  0
 13 14  2  0
 14 15  1  0
 15 16  2  0
 16 17  1  0
 17 18  2  0
 17 19  1  0
 19 20  1  0
 20 21  1  0
 21 22  1  0
 22 23  1  0
 23 24  1  0
 23 25  1  0
 25 26  1  0
 16 27  1  0
 27 28  2  0
 28 29  1  0
 29 30  1  0
 11 31  1  0
 31 32  2  0
 32 33  1  0
 33 34  1  0
 34 35  1  0
 35 36  1  0
 36 37  1  0
 37 38  1  0
 33  3  1  0
 38 34  1  0
 32  8  1  0
 28 13  1  0
 26 20  1  0
  1 39  1  0
  1 40  1  0
  1 41  1  0
  2 42  1  0
  2 43  1  0
  3 44  1  1
  7 45  1  0
  7 46  1  0
  7 47  1  0
  9 48  1  0
 12 49  1  0
 14 50  1  0
 15 51  1  0
 19 52  1  0
 20 53  1  0
 21 54  1  0
 21 55  1  0
 22 56  1  0
 22 57  1  0
 24 58  1  0
 24 59  1  0
 24 60  1  0
 25 61  1  0
 25 62  1  0
 26 63  1  0
 26 64  1  0
 27 65  1  0
 30 66  1  0
 30 67  1  0
 30 68  1  0
 34 69  1  0
 35 70  1  0
 35 71  1  0
 36 72  1  0
 36 73  1  0
 37 74  1  0
 37 75  1  0
 38 76  1  0
 38 77  1  0
M  END
$$$$
