
     RDKit          3D

 37 39  0  0  0  0  0  0  0  0999 V2000
   -3.6133    0.4635    0.7583 C   0  0  0  0  0  0  0  0  0  0  0  0
   -2.6763    0.7611   -0.4284 C   0  0  0  0  0  0  0  0  0  0  0  0
   -2.5798    2.3004   -0.5664 C   0  0  0  0  0  0  0  0  0  0  0  0
   -3.2908    0.2187   -1.7333 C   0  0  0  0  0  0  0  0  0  0  0  0
   -1.3537    0.1498   -0.1977 N   0  0  0  0  0  0  0  0  0  0  0  0
   -0.2443    0.9236   -0.1488 N   0  0  0  0  0  0  0  0  0  0  0  0
    0.7605    0.0692    0.1059 C   0  0  0  0  0  0  0  0  0  0  0  0
    2.1198    0.5769    0.2792 C   0  0  0  0  0  0  0  0  0  0  0  0
    2.9083    0.1679    1.3635 C   0  0  0  0  0  0  0  0  0  0  0  0
    4.2068    0.6622    1.5203 C   0  0  0  0  0  0  0  0  0  0  0  0
    4.7172    1.5748    0.5989 C   0  0  0  0  0  0  0  0  0  0  0  0
    6.3152    2.1813    0.7924 Cl  0  0  0  0  0  0  0  0  0  0  0  0
    3.9399    2.0016   -0.4755 C   0  0  0  0  0  0  0  0  0  0  0  0
    2.6422    1.5064   -0.6321 C   0  0  0  0  0  0  0  0  0  0  0  0
    0.2966   -1.2763    0.1564 C   0  0  0  0  0  0  0  0  0  0  0  0
    0.8231   -2.5645    0.3201 C   0  0  0  0  0  0  0  0  0  0  0  0
    2.1725   -2.8607    0.4576 N   0  0  0  0  0  0  0  0  0  0  0  0
   -0.0211   -3.6162    0.3205 N   0  0  0  0  0  0  0  0  0  0  0  0
   -1.3362   -3.3853    0.1542 C   0  0  0  0  0  0  0  0  0  0  0  0
   -1.9480   -2.2070   -0.0339 N   0  0  0  0  0  0  0  0  0  0  0  0
   -1.0739   -1.1847   -0.0248 C   0  0  0  0  0  0  0  0  0  0  0  0
   -3.8237   -0.6058    0.8613 H   0  0  0  0  0  0  0  0  0  0  0  0
   -4.5779    0.9696    0.6364 H   0  0  0  0  0  0  0  0  0  0  0  0
   -3.1730    0.8041    1.7029 H   0  0  0  0  0  0  0  0  0  0  0  0
   -3.5676    2.7451   -0.7355 H   0  0  0  0  0  0  0  0  0  0  0  0
   -2.1652    2.7594    0.3390 H   0  0  0  0  0  0  0  0  0  0  0  0
   -1.9429    2.5890   -1.4110 H   0  0  0  0  0  0  0  0  0  0  0  0
   -3.4921   -0.8560   -1.6799 H   0  0  0  0  0  0  0  0  0  0  0  0
   -4.2434    0.7129   -1.9565 H   0  0  0  0  0  0  0  0  0  0  0  0
   -2.6194    0.3851   -2.5838 H   0  0  0  0  0  0  0  0  0  0  0  0
    2.5170   -0.5300    2.1018 H   0  0  0  0  0  0  0  0  0  0  0  0
    4.8081    0.3369    2.3653 H   0  0  0  0  0  0  0  0  0  0  0  0
    4.3312    2.7212   -1.1894 H   0  0  0  0  0  0  0  0  0  0  0  0
    2.0344    1.8527   -1.4664 H   0  0  0  0  0  0  0  0  0  0  0  0
    2.3301   -3.8501    0.2965 H   0  0  0  0  0  0  0  0  0  0  0  0
    2.7970   -2.2355   -0.0360 H   0  0  0  0  0  0  0  0  0  0  0  0
   -1.9779   -4.2612    0.1691 H   0  0  0  0  0  0  0  0  0  0  0  0
  1  2  1  0
  2  3  1  0
  2  4  1  0
  2  5  1  0
  5  6  1  0
  6  7  2  0
  7  8  1  0
  8  9  2  0
  9 10  1  0
 10 11  2  0
 11 12  1  0
 11 13  1  0
 13 14  2  0
  7 15  1  0
 15 16  2  0
 16 17  1  0
 16 18  1  0
 18 19  2  0
 19 20  1  0
 20 21  2  0
 21  5  1  0
 14  8  1  0
 21 15  1  0
  1 22  1  0
  1 23  1  0
  1 24  1  0
  3 25  1  0
  3 26  1  0
  3 27  1  0
  4 28  1  0
  4 29  1  0
  4 30  1  0
  9 31  1  0
 10 32  1  0
 13 33  1  0
 14 34  1  0
 17 35  1  0
 17 36  1  0
 19 37  1  0
M  END
$$$$
