
     RDKit          3D

 52 54  0  0  0  0  0  0  0  0999 V2000
   -6.2237   -2.0405    2.6385 C   0  0  0  0  0  0  0  0  0  0  0  0
   -6.2195   -2.0009    1.2181 O   0  0  0  0  0  0  0  0  0  0  0  0
   -5.3400   -1.1402    0.6082 C   0  0  0  0  0  0  0  0  0  0  0  0
   -4.4570   -0.2964    1.2941 C   0  0  0  0  0  0  0  0  0  0  0  0
   -3.5922    0.5512    0.5983 C   0  0  0  0  0  0  0  0  0  0  0  0
   -2.7262    1.3765    1.3282 N   0  0  0  0  0  0  0  0  0  0  0  0
   -1.9356    2.1551    0.6686 C   0  0  0  0  0  0  0  0  0  0  0  0
   -1.8819    2.2406   -0.7037 N   0  0  0  0  0  0  0  0  0  0  0  0
   -0.9523    3.1675   -1.3454 C   0  0  0  0  0  0  0  0  0  0  0  0
    0.2822    2.4704   -1.9177 C   0  0  0  0  0  0  0  0  0  0  0  0
    1.2821    2.0860   -0.8433 C   0  0  0  0  0  0  0  0  0  0  0  0
    1.2171    2.5477    0.2897 O   0  0  0  0  0  0  0  0  0  0  0  0
    2.2450    1.2162   -1.3281 N   0  0  0  0  0  0  0  0  0  0  0  0
    3.3345    0.6620   -0.6250 C   0  0  0  0  0  0  0  0  0  0  0  0
    4.1714   -0.2109   -1.3276 C   0  0  0  0  0  0  0  0  0  0  0  0
    5.2750   -0.8031   -0.7015 C   0  0  0  0  0  0  0  0  0  0  0  0
    5.5653   -0.5333    0.6395 C   0  0  0  0  0  0  0  0  0  0  0  0
    6.6930   -1.1697    1.1970 N   0  0  0  0  0  0  0  0  0  0  0  0
    7.1809   -1.0417    2.4853 C   0  0  0  0  0  0  0  0  0  0  0  0
    8.4109   -1.8849    2.7147 C   0  0  0  0  0  0  0  0  0  0  0  0
    6.7370   -0.3281    3.3770 O   0  0  0  0  0  0  0  0  0  0  0  0
    4.7304    0.3361    1.3390 C   0  0  0  0  0  0  0  0  0  0  0  0
    3.6235    0.9289    0.7119 C   0  0  0  0  0  0  0  0  0  0  0  0
   -2.6920    1.4458   -1.5031 C   0  0  0  0  0  0  0  0  0  0  0  0
   -2.6587    1.4528   -2.7315 O   0  0  0  0  0  0  0  0  0  0  0  0
   -3.6196    0.5446   -0.7937 C   0  0  0  0  0  0  0  0  0  0  0  0
   -4.4934   -0.2889   -1.5008 C   0  0  0  0  0  0  0  0  0  0  0  0
   -5.3589   -1.1346   -0.8031 C   0  0  0  0  0  0  0  0  0  0  0  0
   -6.2527   -1.9898   -1.3980 O   0  0  0  0  0  0  0  0  0  0  0  0
   -6.3222   -1.9911   -2.8171 C   0  0  0  0  0  0  0  0  0  0  0  0
   -6.5128   -1.0721    3.0597 H   0  0  0  0  0  0  0  0  0  0  0  0
   -5.2546   -2.3697    3.0276 H   0  0  0  0  0  0  0  0  0  0  0  0
   -6.9730   -2.7747    2.9500 H   0  0  0  0  0  0  0  0  0  0  0  0
   -4.4138   -0.2722    2.3779 H   0  0  0  0  0  0  0  0  0  0  0  0
   -1.2408    2.8204    1.2054 H   0  0  0  0  0  0  0  0  0  0  0  0
   -1.4889    3.6553   -2.1685 H   0  0  0  0  0  0  0  0  0  0  0  0
   -0.6701    3.9540   -0.6361 H   0  0  0  0  0  0  0  0  0  0  0  0
    0.0003    1.5791   -2.4888 H   0  0  0  0  0  0  0  0  0  0  0  0
    0.7965    3.1607   -2.5973 H   0  0  0  0  0  0  0  0  0  0  0  0
    2.1547    0.9300   -2.2954 H   0  0  0  0  0  0  0  0  0  0  0  0
    3.9807   -0.4469   -2.3712 H   0  0  0  0  0  0  0  0  0  0  0  0
    5.9001   -1.4765   -1.2820 H   0  0  0  0  0  0  0  0  0  0  0  0
    7.2069   -1.7824    0.5771 H   0  0  0  0  0  0  0  0  0  0  0  0
    8.3302   -2.8443    2.1956 H   0  0  0  0  0  0  0  0  0  0  0  0
    9.2916   -1.3454    2.3568 H   0  0  0  0  0  0  0  0  0  0  0  0
    8.5181   -2.0871    3.7844 H   0  0  0  0  0  0  0  0  0  0  0  0
    4.9043    0.5803    2.3828 H   0  0  0  0  0  0  0  0  0  0  0  0
    3.0103    1.5963    1.3096 H   0  0  0  0  0  0  0  0  0  0  0  0
   -4.4757   -0.2565   -2.5851 H   0  0  0  0  0  0  0  0  0  0  0  0
   -6.6238   -1.0104   -3.1992 H   0  0  0  0  0  0  0  0  0  0  0  0
   -5.3736   -2.3143   -3.2581 H   0  0  0  0  0  0  0  0  0  0  0  0
   -7.0891   -2.7132   -3.1136 H   0  0  0  0  0  0  0  0  0  0  0  0
  1  2  1  0
  2  3  1  0
  3  4  2  0
  4  5  1  0
  5  6  1  0
  6  7  2  0
  7  8  1  0
  8  9  1  0
  9 10  1  0
 10 11  1  0
 11 12  2  0
 11 13  1  0
 13 14  1  0
 14 15  2  0
 15 16  1  0
 16 17  2  0
 17 18  1  0
 18 19  1  0
 19 20  1  0
 19 21  2  0
 17 22  1  0
 22 23  2  0
  8 24  1  0
 24 25  2  0
 24 26  1  0
 26 27  1  0
 27 28  2  0
 28 29  1  0
 29 30  1  0
 28  3  1  0
 26  5  2  0
 23 14  1  0
  1 31  1  0
  1 32  1  0
  1 33  1  0
  4 34  1  0
  7 35  1  0
  9 36  1  0
  9 37  1  0
 10 38  1  0
 10 39  1  0
 13 40  1  0
 15 41  1  0
 16 42  1  0
 18 43  1  0
 20 44  1  0
 20 45  1  0
 20 46  1  0
 22 47  1  0
 23 48  1  0
 27 49  1  0
 30 50  1  0
 30 51  1  0
 30 52  1  0
M  END
$$$$
