
     RDKit          3D

 56 58  0  0  0  0  0  0  0  0999 V2000
   -7.8862    0.1031   -3.0696 C   0  0  0  0  0  0  0  0  0  0  0  0
   -6.4676   -0.1733   -3.1330 N   0  0  0  0  0  0  0  0  0  0  0  0
   -5.7530    0.1840   -1.9940 C   0  0  0  0  0  0  0  0  0  0  0  0
   -6.1641    1.1888   -1.2323 N   0  0  0  0  0  0  0  0  0  0  0  0
   -5.4242    1.4214   -0.1518 C   0  0  0  0  0  0  0  0  0  0  0  0
   -5.8686    2.5178    0.7656 C   0  0  0  0  0  0  0  0  0  0  0  0
   -4.3483    0.7188    0.1979 N   0  0  0  0  0  0  0  0  0  0  0  0
   -4.0125   -0.2575   -0.6347 C   0  0  0  0  0  0  0  0  0  0  0  0
   -2.9008   -1.0525   -0.3851 N   0  0  0  0  0  0  0  0  0  0  0  0
   -1.8295   -0.4683    0.4120 C   0  0  1  0  0  0  0  0  0  0  0  0
   -2.0993   -0.7204    1.9081 C   0  0  0  0  0  0  0  0  0  0  0  0
   -0.8689   -1.1830    2.6885 C   0  0  0  0  0  0  0  0  0  0  0  0
    0.3832   -0.4188    2.2844 C   0  0  0  0  0  0  0  0  0  0  0  0
    0.6842   -0.5048    0.7766 C   0  0  1  0  0  0  0  0  0  0  0  0
    1.9619   -1.2895    0.4765 C   0  0  0  0  0  0  0  0  0  0  0  0
    1.9955   -2.2447   -0.2904 O   0  0  0  0  0  0  0  0  0  0  0  0
    3.0879   -0.8016    1.0995 N   0  0  0  0  0  0  0  0  0  0  0  0
    4.3915   -1.3807    0.8741 C   0  0  0  0  0  0  0  0  0  0  0  0
    5.2000   -0.5123   -0.0661 C   0  0  0  0  0  0  0  0  0  0  0  0
    5.0517   -0.7129   -1.4530 C   0  0  0  0  0  0  0  0  0  0  0  0
    5.7598    0.0693   -2.3694 C   0  0  0  0  0  0  0  0  0  0  0  0
    6.6276    1.0674   -1.9150 C   0  0  0  0  0  0  0  0  0  0  0  0
    7.3519    1.8818   -2.8489 C   0  0  0  0  0  0  0  0  0  0  0  0
    7.9339    2.5569   -3.5916 N   0  0  0  0  0  0  0  0  0  0  0  0
    6.7719    1.2875   -0.5394 C   0  0  0  0  0  0  0  0  0  0  0  0
    6.0537    0.5163    0.3983 C   0  0  0  0  0  0  0  0  0  0  0  0
    6.2022    0.8121    1.8746 C   0  0  0  0  0  0  0  0  0  0  0  0
    6.7662   -0.2174    2.5588 F   0  0  0  0  0  0  0  0  0  0  0  0
    6.9710    1.9006    2.1383 F   0  0  0  0  0  0  0  0  0  0  0  0
    5.0029    1.0509    2.4761 F   0  0  0  0  0  0  0  0  0  0  0  0
   -0.4942   -1.0798   -0.0262 C   0  0  0  0  0  0  0  0  0  0  0  0
   -4.6828   -0.5581   -1.7385 N   0  0  0  0  0  0  0  0  0  0  0  0
   -8.3375   -0.2397   -2.1283 H   0  0  0  0  0  0  0  0  0  0  0  0
   -8.3919   -0.4241   -3.8873 H   0  0  0  0  0  0  0  0  0  0  0  0
   -8.0800    1.1755   -3.1959 H   0  0  0  0  0  0  0  0  0  0  0  0
   -6.2218   -1.1406   -3.3263 H   0  0  0  0  0  0  0  0  0  0  0  0
   -6.3800    3.3016    0.2028 H   0  0  0  0  0  0  0  0  0  0  0  0
   -6.5552    2.1174    1.5184 H   0  0  0  0  0  0  0  0  0  0  0  0
   -5.0168    2.9676    1.2770 H   0  0  0  0  0  0  0  0  0  0  0  0
   -2.6343   -1.4583   -1.2776 H   0  0  0  0  0  0  0  0  0  0  0  0
   -1.7570    0.6140    0.2314 H   0  0  0  0  0  0  0  0  0  0  0  0
   -2.8978   -1.4637    2.0520 H   0  0  0  0  0  0  0  0  0  0  0  0
   -2.4770    0.2122    2.3563 H   0  0  0  0  0  0  0  0  0  0  0  0
   -1.0513   -1.0619    3.7629 H   0  0  0  0  0  0  0  0  0  0  0  0
   -0.7103   -2.2557    2.5221 H   0  0  0  0  0  0  0  0  0  0  0  0
    0.2465    0.6344    2.5498 H   0  0  0  0  0  0  0  0  0  0  0  0
    1.2186   -0.7774    2.8899 H   0  0  0  0  0  0  0  0  0  0  0  0
    0.8734    0.5151    0.4120 H   0  0  0  0  0  0  0  0  0  0  0  0
    3.0291    0.0414    1.6584 H   0  0  0  0  0  0  0  0  0  0  0  0
    4.8788   -1.4857    1.8495 H   0  0  0  0  0  0  0  0  0  0  0  0
    4.3064   -2.3957    0.4654 H   0  0  0  0  0  0  0  0  0  0  0  0
    4.3633   -1.4798   -1.8254 H   0  0  0  0  0  0  0  0  0  0  0  0
    5.6212   -0.1049   -3.4362 H   0  0  0  0  0  0  0  0  0  0  0  0
    7.4409    2.0730   -0.1941 H   0  0  0  0  0  0  0  0  0  0  0  0
   -0.5370   -2.1733    0.0773 H   0  0  0  0  0  0  0  0  0  0  0  0
   -0.3276   -0.8922   -1.0958 H   0  0  0  0  0  0  0  0  0  0  0  0
  1  2  1  0
  2  3  1  0
  3  4  2  0
  4  5  1  0
  5  6  1  0
  5  7  2  0
  7  8  1  0
  8  9  1  0
  9 10  1  0
 10 11  1  0
 11 12  1  0
 12 13  1  0
 13 14  1  0
 14 15  1  0
 15 16  2  0
 15 17  1  0
 17 18  1  0
 18 19  1  0
 19 20  2  0
 20 21  1  0
 21 22  2  0
 22 23  1  0
 23 24  3  0
 22 25  1  0
 25 26  2  0
 26 27  1  0
 27 28  1  0
 27 29  1  0
 27 30  1  0
 14 31  1  0
  8 32  2  0
 32  3  1  0
 31 10  1  0
 26 19  1  0
  1 33  1  0
  1 34  1  0
  1 35  1  0
  2 36  1  0
  6 37  1  0
  6 38  1  0
  6 39  1  0
  9 40  1  0
 10 41  1  1
 11 42  1  0
 11 43  1  0
 12 44  1  0
 12 45  1  0
 13 46  1  0
 13 47  1  0
 14 48  1  6
 17 49  1  0
 18 50  1  0
 18 51  1  0
 20 52  1  0
 21 53  1  0
 25 54  1  0
 31 55  1  0
 31 56  1  0
M  END
$$$$
