
     RDKit          3D

 58 62  0  0  0  0  0  0  0  0999 V2000
    8.9897   -2.5238    0.8534 C   0  0  0  0  0  0  0  0  0  0  0  0
    8.0696   -1.4438    0.8036 O   0  0  0  0  0  0  0  0  0  0  0  0
    7.4686   -1.2506   -0.4798 C   0  0  0  0  0  0  0  0  0  0  0  0
    6.5082   -2.3693   -0.9006 C   0  0  0  0  0  0  0  0  0  0  0  0
    5.4399   -2.5388    0.0325 O   0  0  0  0  0  0  0  0  0  0  0  0
    4.2964   -1.8049   -0.1164 C   0  0  0  0  0  0  0  0  0  0  0  0
    4.0876   -0.7770   -1.0327 C   0  0  0  0  0  0  0  0  0  0  0  0
    2.8678   -0.0816   -1.0914 C   0  0  0  0  0  0  0  0  0  0  0  0
    1.8553   -0.4344   -0.1835 C   0  0  0  0  0  0  0  0  0  0  0  0
    2.0364   -1.4950    0.7090 C   0  0  0  0  0  0  0  0  0  0  0  0
    3.2670   -2.1684    0.7577 C   0  0  0  0  0  0  0  0  0  0  0  0
    0.9019   -1.7475    1.4293 N   0  0  0  0  0  0  0  0  0  0  0  0
    0.0289   -0.8700    0.9951 C   0  0  0  0  0  0  0  0  0  0  0  0
    0.5592    0.0066    0.0694 N   0  0  0  0  0  0  0  0  0  0  0  0
   -0.1714    1.1149   -0.4507 C   0  0  0  0  0  0  0  0  0  0  0  0
    0.4613    2.1705   -1.0810 C   0  0  0  0  0  0  0  0  0  0  0  0
   -0.3190    3.2235   -1.5501 C   0  0  0  0  0  0  0  0  0  0  0  0
   -1.7073    3.2100   -1.3770 C   0  0  0  0  0  0  0  0  0  0  0  0
   -2.4923    4.2771   -1.8438 C   0  0  0  0  0  0  0  0  0  0  0  0
   -3.8688    4.2738   -1.6580 C   0  0  0  0  0  0  0  0  0  0  0  0
   -4.4659    3.2010   -1.0082 C   0  0  0  0  0  0  0  0  0  0  0  0
   -3.7006    2.1159   -0.5398 C   0  0  0  0  0  0  0  0  0  0  0  0
   -4.4385    1.0808    0.1032 N   0  0  0  0  0  0  0  0  0  0  0  0
   -4.2690    1.1252    1.5687 C   0  0  0  0  0  0  0  0  0  0  0  0
   -4.7908   -0.1610    2.2253 C   0  0  0  0  0  0  0  0  0  0  0  0
   -5.8878   -0.8008    1.3748 C   0  0  0  0  0  0  0  0  0  0  0  0
   -6.4468   -1.9840    2.0368 N   0  0  0  0  0  0  0  0  0  0  0  0
   -5.3597   -1.1729   -0.0198 C   0  0  0  0  0  0  0  0  0  0  0  0
   -4.2242   -0.2501   -0.4766 C   0  0  0  0  0  0  0  0  0  0  0  0
   -2.2934    2.1108   -0.7133 C   0  0  0  0  0  0  0  0  0  0  0  0
   -1.5157    1.0992   -0.2535 N   0  0  0  0  0  0  0  0  0  0  0  0
    8.4660   -3.4820    0.8005 H   0  0  0  0  0  0  0  0  0  0  0  0
    9.7271   -2.4475    0.0486 H   0  0  0  0  0  0  0  0  0  0  0  0
    9.5158   -2.4790    1.8112 H   0  0  0  0  0  0  0  0  0  0  0  0
    6.9260   -0.3027   -0.4152 H   0  0  0  0  0  0  0  0  0  0  0  0
    8.2562   -1.1236   -1.2314 H   0  0  0  0  0  0  0  0  0  0  0  0
    6.1384   -2.2197   -1.9213 H   0  0  0  0  0  0  0  0  0  0  0  0
    7.0430   -3.3243   -0.9208 H   0  0  0  0  0  0  0  0  0  0  0  0
    4.8598   -0.4774   -1.7340 H   0  0  0  0  0  0  0  0  0  0  0  0
    2.7363    0.6818   -1.8486 H   0  0  0  0  0  0  0  0  0  0  0  0
    3.4030   -2.9806    1.4647 H   0  0  0  0  0  0  0  0  0  0  0  0
   -0.9947   -0.7883    1.3388 H   0  0  0  0  0  0  0  0  0  0  0  0
    1.5347    2.2472   -1.1758 H   0  0  0  0  0  0  0  0  0  0  0  0
    0.1686    4.0650   -2.0380 H   0  0  0  0  0  0  0  0  0  0  0  0
   -2.0330    5.1218   -2.3527 H   0  0  0  0  0  0  0  0  0  0  0  0
   -4.4758    5.1004   -2.0171 H   0  0  0  0  0  0  0  0  0  0  0  0
   -5.5441    3.1911   -0.8642 H   0  0  0  0  0  0  0  0  0  0  0  0
   -3.2249    1.2748    1.8700 H   0  0  0  0  0  0  0  0  0  0  0  0
   -4.8433    1.9770    1.9548 H   0  0  0  0  0  0  0  0  0  0  0  0
   -5.1499    0.0686    3.2359 H   0  0  0  0  0  0  0  0  0  0  0  0
   -3.9580   -0.8674    2.3455 H   0  0  0  0  0  0  0  0  0  0  0  0
   -6.7028   -0.0741    1.2578 H   0  0  0  0  0  0  0  0  0  0  0  0
   -7.2090   -2.3589    1.4731 H   0  0  0  0  0  0  0  0  0  0  0  0
   -6.8574   -1.7133    2.9294 H   0  0  0  0  0  0  0  0  0  0  0  0
   -6.1907   -1.1241   -0.7354 H   0  0  0  0  0  0  0  0  0  0  0  0
   -4.9932   -2.2071   -0.0499 H   0  0  0  0  0  0  0  0  0  0  0  0
   -3.2693   -0.6789   -0.1508 H   0  0  0  0  0  0  0  0  0  0  0  0
   -4.2153   -0.2147   -1.5732 H   0  0  0  0  0  0  0  0  0  0  0  0
  1  2  1  0
  2  3  1  0
  3  4  1  0
  4  5  1  0
  5  6  1  0
  6  7  2  0
  7  8  1  0
  8  9  2  0
  9 10  1  0
 10 11  2  0
 10 12  1  0
 12 13  2  0
 13 14  1  0
 14 15  1  0
 15 16  2  0
 16 17  1  0
 17 18  2  0
 18 19  1  0
 19 20  2  0
 20 21  1  0
 21 22  2  0
 22 23  1  0
 23 24  1  0
 24 25  1  0
 25 26  1  0
 26 27  1  0
 26 28  1  0
 28 29  1  0
 22 30  1  0
 30 31  2  0
 11  6  1  0
 31 15  1  0
 14  9  1  0
 30 18  1  0
 29 23  1  0
  1 32  1  0
  1 33  1  0
  1 34  1  0
  3 35  1  0
  3 36  1  0
  4 37  1  0
  4 38  1  0
  7 39  1  0
  8 40  1  0
 11 41  1  0
 13 42  1  0
 16 43  1  0
 17 44  1  0
 19 45  1  0
 20 46  1  0
 21 47  1  0
 24 48  1  0
 24 49  1  0
 25 50  1  0
 25 51  1  0
 26 52  1  0
 27 53  1  0
 27 54  1  0
 28 55  1  0
 28 56  1  0
 29 57  1  0
 29 58  1  0
M  END
$$$$
