
     RDKit          3D

 55 57  0  0  0  0  0  0  0  0999 V2000
    2.7173    4.0252   -1.9553 C   0  0  0  0  0  0  0  0  0  0  0  0
    2.0778    3.7879   -0.7028 O   0  0  0  0  0  0  0  0  0  0  0  0
    2.2101    2.5371   -0.1689 C   0  0  0  0  0  0  0  0  0  0  0  0
    1.8533    2.4431    1.1758 C   0  0  0  0  0  0  0  0  0  0  0  0
    1.9419    1.2254    1.8522 C   0  0  0  0  0  0  0  0  0  0  0  0
    2.3618    0.0860    1.1723 C   0  0  0  0  0  0  0  0  0  0  0  0
    2.4741   -1.1781    1.8417 N   0  0  0  0  0  0  0  0  0  0  0  0
    1.0874   -1.8540    2.5410 S   0  0  0  0  0  6  0  0  0  0  0  0
    1.4037   -3.2109    2.9290 O   0  0  0  0  0  0  0  0  0  0  0  0
    0.5577   -0.9233    3.5172 O   0  0  0  0  0  0  0  0  0  0  0  0
   -0.0630   -1.9203    1.1844 C   0  0  0  0  0  0  0  0  0  0  0  0
   -1.2244   -1.1371    1.2578 C   0  0  0  0  0  0  0  0  0  0  0  0
   -2.1431   -1.1685    0.2085 C   0  0  0  0  0  0  0  0  0  0  0  0
   -3.3328   -0.3526    0.2557 C   0  0  0  0  0  0  0  0  0  0  0  0
   -4.6926   -0.7110    0.4378 C   0  0  0  0  0  0  0  0  0  0  0  0
   -5.2670   -2.0494    0.6766 C   0  0  0  0  0  0  0  0  0  0  0  0
   -5.4890    0.3621    0.3718 N   0  0  0  0  0  0  0  0  0  0  0  0
   -4.6525    1.4384    0.1396 O   0  0  0  0  0  0  0  0  0  0  0  0
   -3.3643    1.0097    0.0613 C   0  0  0  0  0  0  0  0  0  0  0  0
   -2.3508    1.9036   -0.1979 N   0  0  0  0  0  0  0  0  0  0  0  0
   -2.5746    3.2538   -0.3983 C   0  0  0  0  0  0  0  0  0  0  0  0
   -1.3070    4.0031   -0.7368 C   0  0  0  0  0  0  0  0  0  0  0  0
   -3.6475    3.8413   -0.3161 O   0  0  0  0  0  0  0  0  0  0  0  0
   -1.9028   -1.9899   -0.8973 C   0  0  0  0  0  0  0  0  0  0  0  0
   -0.7430   -2.7709   -0.9630 C   0  0  0  0  0  0  0  0  0  0  0  0
    0.1915   -2.7449    0.0772 C   0  0  0  0  0  0  0  0  0  0  0  0
    1.3672   -3.4410    0.0654 O   0  0  0  0  0  0  0  0  0  0  0  0
    1.5284   -4.4594   -0.9160 C   0  0  0  0  0  0  0  0  0  0  0  0
    2.7345    0.1715   -0.1820 C   0  0  0  0  0  0  0  0  0  0  0  0
    3.1552   -1.0060   -0.7498 O   0  0  0  0  0  0  0  0  0  0  0  0
    3.6934   -0.9420   -2.0625 C   0  0  0  0  0  0  0  0  0  0  0  0
    2.6443    1.3989   -0.8506 C   0  0  0  0  0  0  0  0  0  0  0  0
    2.6335    5.0938   -2.1757 H   0  0  0  0  0  0  0  0  0  0  0  0
    2.2166    3.4791   -2.7608 H   0  0  0  0  0  0  0  0  0  0  0  0
    3.7833    3.7761   -1.9070 H   0  0  0  0  0  0  0  0  0  0  0  0
    1.5269    3.3292    1.7122 H   0  0  0  0  0  0  0  0  0  0  0  0
    1.7003    1.1873    2.9101 H   0  0  0  0  0  0  0  0  0  0  0  0
    2.9413   -1.8927    1.2751 H   0  0  0  0  0  0  0  0  0  0  0  0
   -1.4115   -0.5095    2.1302 H   0  0  0  0  0  0  0  0  0  0  0  0
   -5.1405   -2.6843   -0.2029 H   0  0  0  0  0  0  0  0  0  0  0  0
   -6.3375   -1.9921    0.9008 H   0  0  0  0  0  0  0  0  0  0  0  0
   -4.7734   -2.5368    1.5210 H   0  0  0  0  0  0  0  0  0  0  0  0
   -1.4054    1.5441   -0.2463 H   0  0  0  0  0  0  0  0  0  0  0  0
   -0.6503    3.3909   -1.3545 H   0  0  0  0  0  0  0  0  0  0  0  0
   -1.5562    4.8988   -1.3039 H   0  0  0  0  0  0  0  0  0  0  0  0
   -0.7941    4.2861    0.1838 H   0  0  0  0  0  0  0  0  0  0  0  0
   -2.6103   -2.0203   -1.7243 H   0  0  0  0  0  0  0  0  0  0  0  0
   -0.5944   -3.3808   -1.8508 H   0  0  0  0  0  0  0  0  0  0  0  0
    0.7141   -5.1883   -0.8688 H   0  0  0  0  0  0  0  0  0  0  0  0
    1.6163   -4.0280   -1.9168 H   0  0  0  0  0  0  0  0  0  0  0  0
    2.4620   -4.9858   -0.6973 H   0  0  0  0  0  0  0  0  0  0  0  0
    4.5643   -0.2785   -2.1024 H   0  0  0  0  0  0  0  0  0  0  0  0
    4.0297   -1.9460   -2.3329 H   0  0  0  0  0  0  0  0  0  0  0  0
    2.9335   -0.6386   -2.7900 H   0  0  0  0  0  0  0  0  0  0  0  0
    2.9067    1.4684   -1.8958 H   0  0  0  0  0  0  0  0  0  0  0  0
  1  2  1  0
  2  3  1  0
  3  4  2  0
  4  5  1  0
  5  6  2  0
  6  7  1  0
  7  8  1  0
  8  9  2  0
  8 10  2  0
  8 11  1  0
 11 12  2  0
 12 13  1  0
 13 14  1  0
 14 15  1  0
 15 16  1  0
 15 17  2  0
 17 18  1  0
 18 19  1  0
 19 20  1  0
 20 21  1  0
 21 22  1  0
 21 23  2  0
 13 24  2  0
 24 25  1  0
 25 26  2  0
 26 27  1  0
 27 28  1  0
  6 29  1  0
 29 30  1  0
 30 31  1  0
 29 32  2  0
 32  3  1  0
 26 11  1  0
 19 14  2  0
  1 33  1  0
  1 34  1  0
  1 35  1  0
  4 36  1  0
  5 37  1  0
  7 38  1  0
 12 39  1  0
 16 40  1  0
 16 41  1  0
 16 42  1  0
 20 43  1  0
 22 44  1  0
 22 45  1  0
 22 46  1  0
 24 47  1  0
 25 48  1  0
 28 49  1  0
 28 50  1  0
 28 51  1  0
 31 52  1  0
 31 53  1  0
 31 54  1  0
 32 55  1  0
M  END
$$$$
