
     RDKit          3D

 56 59  0  0  0  0  0  0  0  0999 V2000
    2.1012    1.7722   -0.3684 C   0  0  0  0  0  0  0  0  0  0  0  0
    1.8791    0.2651   -0.0383 C   0  0  2  0  0  0  0  0  0  0  0  0
    1.2018   -0.3839   -1.2677 C   0  0  0  0  0  0  0  0  0  0  0  0
   -0.0816   -1.1905   -0.9898 C   0  0  2  0  0  0  0  0  0  0  0  0
   -0.6602   -1.5235   -2.2423 O   0  0  0  0  0  0  0  0  0  0  0  0
   -1.1130   -0.5653    0.0187 C   0  0  1  0  0  0  0  0  0  0  0  0
   -0.4341    0.4898    0.9508 C   0  0  1  0  0  0  0  0  0  0  0  0
   -1.2849    0.7029    2.1984 C   0  0  0  0  0  0  0  0  0  0  0  0
   -2.6457    1.2576    1.7853 C   0  0  0  0  0  0  0  0  0  0  0  0
   -3.3487    0.3821    0.7685 C   0  0  0  0  0  0  0  0  0  0  0  0
   -4.6352    0.0563    0.9916 C   0  0  0  0  0  0  0  0  0  0  0  0
   -5.4309   -0.7238    0.0211 C   0  0  0  0  0  0  0  0  0  0  0  0
   -6.5947   -1.0134    0.2878 O   0  0  0  0  0  0  0  0  0  0  0  0
   -4.7983   -1.0586   -1.2980 C   0  0  0  0  0  0  0  0  0  0  0  0
   -3.2996   -1.2785   -1.1378 C   0  0  0  0  0  0  0  0  0  0  0  0
   -2.5397   -0.0917   -0.4671 C   0  0  2  0  0  0  0  0  0  0  0  0
   -2.4288    1.0757   -1.4689 C   0  0  0  0  0  0  0  0  0  0  0  0
    0.9902    0.0239    1.2129 C   0  0  2  0  0  0  0  0  0  0  0  0
    1.8219    0.5745    2.3539 C   0  0  0  0  0  0  0  0  0  0  0  0
    3.2527    0.1288    1.9802 C   0  0  0  0  0  0  0  0  0  0  0  0
    3.2095   -0.3500    0.4899 C   0  0  1  0  0  0  0  0  0  0  0  0
    3.1028   -1.7779    0.4735 O   0  0  0  0  0  0  0  0  0  0  0  0
    4.4825    0.0525   -0.2876 C   0  0  0  0  0  0  0  0  0  0  0  0
    5.3682    0.7617    0.2012 O   0  0  0  0  0  0  0  0  0  0  0  0
    4.6284   -0.4545   -1.7190 C   0  0  0  0  0  0  0  0  0  0  0  0
    5.9402   -0.2264   -2.2196 O   0  0  0  0  0  0  0  0  0  0  0  0
    2.5785    2.3251    0.4457 H   0  0  0  0  0  0  0  0  0  0  0  0
    2.7444    1.8856   -1.2484 H   0  0  0  0  0  0  0  0  0  0  0  0
    1.1668    2.2879   -0.6083 H   0  0  0  0  0  0  0  0  0  0  0  0
    0.9435    0.3867   -2.0077 H   0  0  0  0  0  0  0  0  0  0  0  0
    1.9075   -1.0322   -1.7998 H   0  0  0  0  0  0  0  0  0  0  0  0
    0.2375   -2.1460   -0.5504 H   0  0  0  0  0  0  0  0  0  0  0  0
   -0.0204   -2.0716   -2.7298 H   0  0  0  0  0  0  0  0  0  0  0  0
   -1.3393   -1.4192    0.6820 H   0  0  0  0  0  0  0  0  0  0  0  0
   -0.3989    1.4532    0.4367 H   0  0  0  0  0  0  0  0  0  0  0  0
   -0.8027    1.4181    2.8744 H   0  0  0  0  0  0  0  0  0  0  0  0
   -1.4053   -0.2357    2.7531 H   0  0  0  0  0  0  0  0  0  0  0  0
   -2.5182    2.2589    1.3547 H   0  0  0  0  0  0  0  0  0  0  0  0
   -3.2552    1.3884    2.6881 H   0  0  0  0  0  0  0  0  0  0  0  0
   -5.1803    0.3816    1.8714 H   0  0  0  0  0  0  0  0  0  0  0  0
   -5.0165   -0.2534   -2.0064 H   0  0  0  0  0  0  0  0  0  0  0  0
   -5.2559   -1.9789   -1.6780 H   0  0  0  0  0  0  0  0  0  0  0  0
   -2.9121   -1.4867   -2.1383 H   0  0  0  0  0  0  0  0  0  0  0  0
   -3.1470   -2.1900   -0.5435 H   0  0  0  0  0  0  0  0  0  0  0  0
   -1.9077    1.9406   -1.0475 H   0  0  0  0  0  0  0  0  0  0  0  0
   -3.4167    1.4314   -1.7827 H   0  0  0  0  0  0  0  0  0  0  0  0
   -1.8883    0.7785   -2.3730 H   0  0  0  0  0  0  0  0  0  0  0  0
    0.9253   -1.0565    1.4221 H   0  0  0  0  0  0  0  0  0  0  0  0
    1.7554    1.6653    2.4234 H   0  0  0  0  0  0  0  0  0  0  0  0
    1.5192    0.1637    3.3226 H   0  0  0  0  0  0  0  0  0  0  0  0
    3.9313    0.9729    2.1413 H   0  0  0  0  0  0  0  0  0  0  0  0
    3.5730   -0.6810    2.6459 H   0  0  0  0  0  0  0  0  0  0  0  0
    3.8189   -2.1381    1.0299 H   0  0  0  0  0  0  0  0  0  0  0  0
    3.9250    0.0740   -2.3654 H   0  0  0  0  0  0  0  0  0  0  0  0
    4.4389   -1.5294   -1.7570 H   0  0  0  0  0  0  0  0  0  0  0  0
    6.3165    0.5019   -1.6844 H   0  0  0  0  0  0  0  0  0  0  0  0
  2  1  1  6
  2  3  1  0
  3  4  1  0
  4  5  1  0
  4  6  1  0
  6  7  1  0
  7  8  1  0
  8  9  1  0
  9 10  1  0
 10 11  2  0
 11 12  1  0
 12 13  2  0
 12 14  1  0
 14 15  1  0
 15 16  1  0
 16 17  1  6
  7 18  1  0
 18 19  1  0
 19 20  1  0
 20 21  1  0
 21 22  1  1
 21 23  1  0
 23 24  2  0
 23 25  1  0
 25 26  1  0
 18  2  1  0
 21  2  1  0
 16  6  1  0
 16 10  1  0
  1 27  1  0
  1 28  1  0
  1 29  1  0
  3 30  1  0
  3 31  1  0
  4 32  1  1
  5 33  1  0
  6 34  1  1
  7 35  1  6
  8 36  1  0
  8 37  1  0
  9 38  1  0
  9 39  1  0
 11 40  1  0
 14 41  1  0
 14 42  1  0
 15 43  1  0
 15 44  1  0
 17 45  1  0
 17 46  1  0
 17 47  1  0
 18 48  1  1
 19 49  1  0
 19 50  1  0
 20 51  1  0
 20 52  1  0
 22 53  1  0
 25 54  1  0
 25 55  1  0
 26 56  1  0
M  END
$$$$
