
     RDKit          3D

 65 68  0  0  0  0  0  0  0  0999 V2000
    8.1586    2.1284    1.4081 C   0  0  0  0  0  0  0  0  0  0  0  0
    6.7966    2.3204    1.7715 O   0  0  0  0  0  0  0  0  0  0  0  0
    5.8845    1.4622    1.2226 C   0  0  0  0  0  0  0  0  0  0  0  0
    6.1568    0.4513    0.3033 C   0  0  0  0  0  0  0  0  0  0  0  0
    5.1231   -0.3596   -0.1814 C   0  0  0  0  0  0  0  0  0  0  0  0
    3.7992   -0.1763    0.2458 C   0  0  0  0  0  0  0  0  0  0  0  0
    2.6416   -1.0284   -0.2806 C   0  0  1  0  0  0  0  0  0  0  0  0
    2.1155   -0.4409   -1.6049 C   0  0  2  0  0  0  0  0  0  0  0  0
    0.6048   -0.6339   -1.7114 C   0  0  0  0  0  0  0  0  0  0  0  0
    0.0763   -1.4018   -2.5072 O   0  0  0  0  0  0  0  0  0  0  0  0
   -0.1184    0.1469   -0.8272 N   0  0  0  0  0  0  0  0  0  0  0  0
   -1.5800    0.1483   -0.8367 C   0  0  0  0  0  0  0  0  0  0  0  0
   -2.1327    1.0051   -1.9744 C   0  0  0  0  0  0  0  0  0  0  0  0
   -3.6650    0.9561   -1.9995 C   0  0  0  0  0  0  0  0  0  0  0  0
   -4.2727    0.7375   -0.6772 N   0  0  0  0  0  0  0  0  0  0  0  0
   -5.6773    1.1773   -0.6739 C   0  0  0  0  0  0  0  0  0  0  0  0
   -6.4666    0.6645    0.5127 C   0  0  0  0  0  0  0  0  0  0  0  0
   -6.5203   -0.7090    0.7937 C   0  0  0  0  0  0  0  0  0  0  0  0
   -7.2611   -1.1850    1.8762 C   0  0  0  0  0  0  0  0  0  0  0  0
   -7.9619   -0.2947    2.6868 C   0  0  0  0  0  0  0  0  0  0  0  0
   -7.9233    1.0718    2.4146 C   0  0  0  0  0  0  0  0  0  0  0  0
   -7.1819    1.5498    1.3319 C   0  0  0  0  0  0  0  0  0  0  0  0
   -3.4806    1.3464    0.3893 C   0  0  0  0  0  0  0  0  0  0  0  0
   -2.1307    0.6293    0.5145 C   0  0  0  0  0  0  0  0  0  0  0  0
    2.8669   -1.0046   -2.8083 C   0  0  0  0  0  0  0  0  0  0  0  0
    2.9421   -2.5186   -2.7924 C   0  0  0  0  0  0  0  0  0  0  0  0
    3.3856   -3.1101   -1.4754 C   0  0  0  0  0  0  0  0  0  0  0  0
    4.0071   -4.1730   -1.4557 O   0  0  0  0  0  0  0  0  0  0  0  0
    2.9728   -2.4610   -0.3231 N   0  0  0  0  0  0  0  0  0  0  0  0
    3.2395   -3.1178    0.9500 C   0  0  0  0  0  0  0  0  0  0  0  0
    3.5366    0.8463    1.1702 C   0  0  0  0  0  0  0  0  0  0  0  0
    4.5705    1.6542    1.6509 C   0  0  0  0  0  0  0  0  0  0  0  0
    8.7556    2.8729    1.9445 H   0  0  0  0  0  0  0  0  0  0  0  0
    8.5131    1.1367    1.7104 H   0  0  0  0  0  0  0  0  0  0  0  0
    8.3075    2.2925    0.3351 H   0  0  0  0  0  0  0  0  0  0  0  0
    7.1625    0.2622   -0.0581 H   0  0  0  0  0  0  0  0  0  0  0  0
    5.3741   -1.1461   -0.8902 H   0  0  0  0  0  0  0  0  0  0  0  0
    1.8441   -0.9663    0.4722 H   0  0  0  0  0  0  0  0  0  0  0  0
    2.2594    0.6499   -1.6208 H   0  0  0  0  0  0  0  0  0  0  0  0
    0.3417    0.9528   -0.4238 H   0  0  0  0  0  0  0  0  0  0  0  0
   -1.9038   -0.8891   -0.9974 H   0  0  0  0  0  0  0  0  0  0  0  0
   -1.7414    0.6767   -2.9445 H   0  0  0  0  0  0  0  0  0  0  0  0
   -1.7977    2.0430   -1.8435 H   0  0  0  0  0  0  0  0  0  0  0  0
   -3.9841    0.1386   -2.6574 H   0  0  0  0  0  0  0  0  0  0  0  0
   -4.0216    1.8891   -2.4554 H   0  0  0  0  0  0  0  0  0  0  0  0
   -5.7318    2.2729   -0.7260 H   0  0  0  0  0  0  0  0  0  0  0  0
   -6.1878    0.7973   -1.5699 H   0  0  0  0  0  0  0  0  0  0  0  0
   -5.9736   -1.4114    0.1677 H   0  0  0  0  0  0  0  0  0  0  0  0
   -7.2896   -2.2508    2.0841 H   0  0  0  0  0  0  0  0  0  0  0  0
   -8.5389   -0.6663    3.5294 H   0  0  0  0  0  0  0  0  0  0  0  0
   -8.4727    1.7663    3.0445 H   0  0  0  0  0  0  0  0  0  0  0  0
   -7.1656    2.6186    1.1330 H   0  0  0  0  0  0  0  0  0  0  0  0
   -3.3257    2.4160    0.1946 H   0  0  0  0  0  0  0  0  0  0  0  0
   -3.9802    1.2764    1.3624 H   0  0  0  0  0  0  0  0  0  0  0  0
   -2.2306   -0.2407    1.1768 H   0  0  0  0  0  0  0  0  0  0  0  0
   -1.4253    1.3080    1.0108 H   0  0  0  0  0  0  0  0  0  0  0  0
    2.3964   -0.6763   -3.7430 H   0  0  0  0  0  0  0  0  0  0  0  0
    3.8853   -0.5983   -2.8196 H   0  0  0  0  0  0  0  0  0  0  0  0
    3.6507   -2.8410   -3.5645 H   0  0  0  0  0  0  0  0  0  0  0  0
    1.9742   -2.9657   -3.0410 H   0  0  0  0  0  0  0  0  0  0  0  0
    2.4878   -2.8138    1.6839 H   0  0  0  0  0  0  0  0  0  0  0  0
    4.2376   -2.8413    1.3012 H   0  0  0  0  0  0  0  0  0  0  0  0
    3.1967   -4.2059    0.8415 H   0  0  0  0  0  0  0  0  0  0  0  0
    2.5268    1.0221    1.5331 H   0  0  0  0  0  0  0  0  0  0  0  0
    4.3516    2.4393    2.3713 H   0  0  0  0  0  0  0  0  0  0  0  0
  1  2  1  0
  2  3  1  0
  3  4  2  0
  4  5  1  0
  5  6  2  0
  6  7  1  0
  7  8  1  0
  8  9  1  0
  9 10  2  0
  9 11  1  0
 11 12  1  0
 12 13  1  0
 13 14  1  0
 14 15  1  0
 15 16  1  0
 16 17  1  0
 17 18  2  0
 18 19  1  0
 19 20  2  0
 20 21  1  0
 21 22  2  0
 15 23  1  0
 23 24  1  0
  8 25  1  0
 25 26  1  0
 26 27  1  0
 27 28  2  0
 27 29  1  0
 29 30  1  0
  6 31  1  0
 31 32  2  0
 32  3  1  0
 29  7  1  0
 24 12  1  0
 22 17  1  0
  1 33  1  0
  1 34  1  0
  1 35  1  0
  4 36  1  0
  5 37  1  0
  7 38  1  1
  8 39  1  1
 11 40  1  0
 12 41  1  0
 13 42  1  0
 13 43  1  0
 14 44  1  0
 14 45  1  0
 16 46  1  0
 16 47  1  0
 18 48  1  0
 19 49  1  0
 20 50  1  0
 21 51  1  0
 22 52  1  0
 23 53  1  0
 23 54  1  0
 24 55  1  0
 24 56  1  0
 25 57  1  0
 25 58  1  0
 26 59  1  0
 26 60  1  0
 30 61  1  0
 30 62  1  0
 30 63  1  0
 31 64  1  0
 32 65  1  0
M  END
$$$$
