
     RDKit          3D

 51 55  0  0  0  0  0  0  0  0999 V2000
    3.3936    1.3684   -2.0390 C   0  0  0  0  0  0  0  0  0  0  0  0
    3.5714    1.0700   -0.5467 C   0  0  2  0  0  0  0  0  0  0  0  0
    4.9725    0.5658   -0.2842 C   0  0  0  0  0  0  0  0  0  0  0  0
    5.3688    0.8668    1.1233 C   0  0  0  0  0  0  0  0  0  0  0  0
    6.4841    1.3357    1.3725 O   0  0  0  0  0  0  0  0  0  0  0  0
    4.5470    0.5872    2.1645 N   0  0  0  0  0  0  0  0  0  0  0  0
    3.2478    0.0432    2.2498 C   0  0  0  0  0  0  0  0  0  0  0  0
    2.8522   -0.2412    3.5736 C   0  0  0  0  0  0  0  0  0  0  0  0
    1.6277   -0.8312    3.8633 C   0  0  0  0  0  0  0  0  0  0  0  0
    0.7712   -1.1597    2.8261 C   0  0  0  0  0  0  0  0  0  0  0  0
    1.1153   -0.8785    1.4906 C   0  0  0  0  0  0  0  0  0  0  0  0
    0.1475   -1.2711    0.4450 C   0  0  0  0  0  0  0  0  0  0  0  0
    0.4086   -2.3624   -0.3934 C   0  0  0  0  0  0  0  0  0  0  0  0
   -0.4888   -2.7546   -1.3912 C   0  0  0  0  0  0  0  0  0  0  0  0
   -1.6695   -2.0132   -1.5290 C   0  0  0  0  0  0  0  0  0  0  0  0
   -1.9745   -0.9157   -0.7234 C   0  0  0  0  0  0  0  0  0  0  0  0
   -1.0511   -0.5488    0.2792 C   0  0  0  0  0  0  0  0  0  0  0  0
   -3.2387   -0.4625   -1.2000 C   0  0  0  0  0  0  0  0  0  0  0  0
   -4.0115    0.6759   -0.7047 C   0  0  0  0  0  0  0  0  0  0  0  0
   -5.3171    0.9970   -1.1371 C   0  0  0  0  0  0  0  0  0  0  0  0
   -5.8055    2.0873   -0.5353 N   0  0  0  0  0  0  0  0  0  0  0  0
   -4.8058    2.4655    0.2805 N   0  0  0  0  0  0  0  0  0  0  0  0
   -4.9719    3.6371    1.1057 C   0  0  0  0  0  0  0  0  0  0  0  0
   -3.7070    1.6554    0.2135 C   0  0  0  0  0  0  0  0  0  0  0  0
   -3.6933   -1.2172   -2.2094 N   0  0  0  0  0  0  0  0  0  0  0  0
   -2.7329   -2.1383   -2.3866 N   0  0  0  0  0  0  0  0  0  0  0  0
   -2.8893   -3.1366   -3.4180 C   0  0  0  0  0  0  0  0  0  0  0  0
    2.3546   -0.2225    1.1828 C   0  0  0  0  0  0  0  0  0  0  0  0
    2.6281    0.0260   -0.1783 N   0  0  0  0  0  0  0  0  0  0  0  0
    2.3718    1.7042   -2.2498 H   0  0  0  0  0  0  0  0  0  0  0  0
    3.5811    0.4779   -2.6500 H   0  0  0  0  0  0  0  0  0  0  0  0
    4.0791    2.1583   -2.3641 H   0  0  0  0  0  0  0  0  0  0  0  0
    3.3523    1.9955    0.0021 H   0  0  0  0  0  0  0  0  0  0  0  0
    5.0822   -0.5103   -0.4618 H   0  0  0  0  0  0  0  0  0  0  0  0
    5.6905    1.0828   -0.9332 H   0  0  0  0  0  0  0  0  0  0  0  0
    5.0156    0.7818    3.0413 H   0  0  0  0  0  0  0  0  0  0  0  0
    3.5165   -0.0226    4.4078 H   0  0  0  0  0  0  0  0  0  0  0  0
    1.3539   -1.0520    4.8914 H   0  0  0  0  0  0  0  0  0  0  0  0
   -0.1746   -1.6490    3.0539 H   0  0  0  0  0  0  0  0  0  0  0  0
    1.3363   -2.9212   -0.2714 H   0  0  0  0  0  0  0  0  0  0  0  0
   -0.2678   -3.6043   -2.0294 H   0  0  0  0  0  0  0  0  0  0  0  0
   -1.2547    0.2944    0.9307 H   0  0  0  0  0  0  0  0  0  0  0  0
   -5.9276    0.4779   -1.8656 H   0  0  0  0  0  0  0  0  0  0  0  0
   -5.8470    3.4890    1.7438 H   0  0  0  0  0  0  0  0  0  0  0  0
   -5.1137    4.5013    0.4517 H   0  0  0  0  0  0  0  0  0  0  0  0
   -4.0806    3.7774    1.7223 H   0  0  0  0  0  0  0  0  0  0  0  0
   -2.8317    1.8566    0.8105 H   0  0  0  0  0  0  0  0  0  0  0  0
   -2.0807   -3.0121   -4.1423 H   0  0  0  0  0  0  0  0  0  0  0  0
   -3.8552   -3.0053   -3.9127 H   0  0  0  0  0  0  0  0  0  0  0  0
   -2.8431   -4.1246   -2.9529 H   0  0  0  0  0  0  0  0  0  0  0  0
    1.7637    0.0766   -0.7164 H   0  0  0  0  0  0  0  0  0  0  0  0
  1  2  1  0
  2  3  1  0
  3  4  1  0
  4  5  2  0
  4  6  1  0
  6  7  1  0
  7  8  2  0
  8  9  1  0
  9 10  2  0
 10 11  1  0
 11 12  1  0
 12 13  2  0
 13 14  1  0
 14 15  2  0
 15 16  1  0
 16 17  2  0
 16 18  1  0
 18 19  1  0
 19 20  1  0
 20 21  2  0
 21 22  1  0
 22 23  1  0
 22 24  1  0
 18 25  2  0
 25 26  1  0
 26 27  1  0
 11 28  2  0
 28 29  1  0
 29  2  1  0
 28  7  1  0
 17 12  1  0
 24 19  2  0
 26 15  1  0
  1 30  1  0
  1 31  1  0
  1 32  1  0
  2 33  1  1
  3 34  1  0
  3 35  1  0
  6 36  1  0
  8 37  1  0
  9 38  1  0
 10 39  1  0
 13 40  1  0
 14 41  1  0
 17 42  1  0
 20 43  1  0
 23 44  1  0
 23 45  1  0
 23 46  1  0
 24 47  1  0
 27 48  1  0
 27 49  1  0
 27 50  1  0
 29 51  1  0
M  END
$$$$
