
     RDKit          3D

 52 55  0  0  0  0  0  0  0  0999 V2000
   -5.0805    1.9620    1.7887 C   0  0  0  0  0  0  0  0  0  0  0  0
   -4.9022    1.7674    0.2914 C   0  0  0  0  0  0  0  0  0  0  0  0
   -3.7774    0.9125   -0.0150 N   0  0  0  0  0  0  0  0  0  0  0  0
   -2.4814    1.3906   -0.2097 C   0  0  0  0  0  0  0  0  0  0  0  0
   -2.1386    2.5634   -0.1879 O   0  0  0  0  0  0  0  0  0  0  0  0
   -1.5566    0.1669   -0.4601 C   0  0  0  0  0  0  0  0  0  0  0  0
   -0.4436    0.1776    0.5963 C   0  0  0  0  0  0  0  0  0  0  0  0
    0.7210   -0.7471    0.2680 C   0  0  0  0  0  0  0  0  0  0  0  0
    1.2128   -0.5865   -1.1222 N   0  0  0  0  0  0  0  0  0  0  0  0
    2.4286    0.5928   -1.3990 S   0  0  0  0  0  6  0  0  0  0  0  0
    2.7899    0.5352   -2.8001 O   0  0  0  0  0  0  0  0  0  0  0  0
    1.9486    1.8101   -0.7860 O   0  0  0  0  0  0  0  0  0  0  0  0
    3.8175   -0.0658   -0.5023 C   0  0  0  0  0  0  0  0  0  0  0  0
    4.0583   -1.4433   -0.6252 C   0  0  0  0  0  0  0  0  0  0  0  0
    5.1116   -2.0142    0.0694 C   0  0  0  0  0  0  0  0  0  0  0  0
    5.3380   -3.3295   -0.0358 F   0  0  0  0  0  0  0  0  0  0  0  0
    5.9335   -1.2399    0.8752 C   0  0  0  0  0  0  0  0  0  0  0  0
    5.7046    0.1356    0.9824 C   0  0  0  0  0  0  0  0  0  0  0  0
    4.6453    0.7420    0.2914 C   0  0  0  0  0  0  0  0  0  0  0  0
    4.3921    2.0810    0.3201 O   0  0  0  0  0  0  0  0  0  0  0  0
    5.1639    2.9019    1.1859 C   0  0  0  0  0  0  0  0  0  0  0  0
    0.1506   -0.6787   -2.1499 C   0  0  0  0  0  0  0  0  0  0  0  0
   -0.9871    0.2921   -1.8806 C   0  0  0  0  0  0  0  0  0  0  0  0
   -2.5350   -0.9860   -0.2999 C   0  0  0  0  0  0  0  0  0  0  0  0
   -2.3329   -2.3578   -0.3635 C   0  0  0  0  0  0  0  0  0  0  0  0
   -3.4247   -3.2096   -0.1685 C   0  0  0  0  0  0  0  0  0  0  0  0
   -4.7013   -2.6916    0.0896 C   0  0  0  0  0  0  0  0  0  0  0  0
   -4.9049   -1.3131    0.1564 C   0  0  0  0  0  0  0  0  0  0  0  0
   -3.8144   -0.4830   -0.0411 C   0  0  0  0  0  0  0  0  0  0  0  0
   -5.9237    2.6306    1.9873 H   0  0  0  0  0  0  0  0  0  0  0  0
   -5.2740    1.0095    2.2924 H   0  0  0  0  0  0  0  0  0  0  0  0
   -4.1827    2.4000    2.2373 H   0  0  0  0  0  0  0  0  0  0  0  0
   -4.7285    2.7454   -0.1724 H   0  0  0  0  0  0  0  0  0  0  0  0
   -5.8115    1.3568   -0.1598 H   0  0  0  0  0  0  0  0  0  0  0  0
   -0.8438   -0.0851    1.5845 H   0  0  0  0  0  0  0  0  0  0  0  0
   -0.0543    1.1976    0.7042 H   0  0  0  0  0  0  0  0  0  0  0  0
    0.4350   -1.7950    0.4053 H   0  0  0  0  0  0  0  0  0  0  0  0
    1.5314   -0.5779    0.9852 H   0  0  0  0  0  0  0  0  0  0  0  0
    3.4368   -2.0700   -1.2583 H   0  0  0  0  0  0  0  0  0  0  0  0
    6.7562   -1.7070    1.4083 H   0  0  0  0  0  0  0  0  0  0  0  0
    6.3819    0.7097    1.6076 H   0  0  0  0  0  0  0  0  0  0  0  0
    4.7793    3.9234    1.1092 H   0  0  0  0  0  0  0  0  0  0  0  0
    5.0607    2.5844    2.2287 H   0  0  0  0  0  0  0  0  0  0  0  0
    6.2145    2.9176    0.8786 H   0  0  0  0  0  0  0  0  0  0  0  0
   -0.2102   -1.7116   -2.1774 H   0  0  0  0  0  0  0  0  0  0  0  0
    0.5604   -0.5009   -3.1496 H   0  0  0  0  0  0  0  0  0  0  0  0
   -1.7753    0.1446   -2.6304 H   0  0  0  0  0  0  0  0  0  0  0  0
   -0.6133    1.3130   -2.0364 H   0  0  0  0  0  0  0  0  0  0  0  0
   -1.3586   -2.7905   -0.5587 H   0  0  0  0  0  0  0  0  0  0  0  0
   -3.2834   -4.2875   -0.2165 H   0  0  0  0  0  0  0  0  0  0  0  0
   -5.5379   -3.3702    0.2396 H   0  0  0  0  0  0  0  0  0  0  0  0
   -5.8948   -0.9219    0.3598 H   0  0  0  0  0  0  0  0  0  0  0  0
  1  2  1  0
  2  3  1  0
  3  4  1  0
  4  5  2  0
  4  6  1  0
  6  7  1  0
  7  8  1  0
  8  9  1  0
  9 10  1  0
 10 11  2  0
 10 12  2  0
 10 13  1  0
 13 14  2  0
 14 15  1  0
 15 16  1  0
 15 17  2  0
 17 18  1  0
 18 19  2  0
 19 20  1  0
 20 21  1  0
  9 22  1  0
 22 23  1  0
  6 24  1  0
 24 25  2  0
 25 26  1  0
 26 27  2  0
 27 28  1  0
 28 29  2  0
 29  3  1  0
 23  6  1  0
 29 24  1  0
 19 13  1  0
  1 30  1  0
  1 31  1  0
  1 32  1  0
  2 33  1  0
  2 34  1  0
  7 35  1  0
  7 36  1  0
  8 37  1  0
  8 38  1  0
 14 39  1  0
 17 40  1  0
 18 41  1  0
 21 42  1  0
 21 43  1  0
 21 44  1  0
 22 45  1  0
 22 46  1  0
 23 47  1  0
 23 48  1  0
 25 49  1  0
 26 50  1  0
 27 51  1  0
 28 52  1  0
M  END
$$$$
