
     RDKit          3D

 81 83  0  0  0  0  0  0  0  0999 V2000
    7.2987   -1.0914   -0.9863 C   0  0  0  0  0  0  0  0  0  0  0  0
    7.3943   -1.7607   -2.3655 C   0  0  0  0  0  0  0  0  0  0  0  0
    6.8086   -3.1789   -2.2880 C   0  0  0  0  0  0  0  0  0  0  0  0
    6.5477   -0.7750   -3.7015 S   0  0  0  0  0  0  0  0  0  0  0  0
    4.9264   -0.5111   -3.0177 C   0  0  0  0  0  0  0  0  0  0  0  0
    3.9245   -1.4745   -3.1503 C   0  0  0  0  0  0  0  0  0  0  0  0
    2.6519   -1.2498   -2.6167 C   0  0  0  0  0  0  0  0  0  0  0  0
    2.3559   -0.0482   -1.9580 C   0  0  0  0  0  0  0  0  0  0  0  0
    0.9696    0.1901   -1.4035 C   0  0  0  0  0  0  0  0  0  0  0  0
    0.9705    0.5495    0.0888 C   0  0  0  0  0  0  0  0  0  0  0  0
   -0.3736    0.8177    0.6159 N   0  0  0  0  0  0  0  0  0  0  0  0
   -1.0816   -0.2897    1.2645 C   0  0  0  0  0  0  0  0  0  0  0  0
   -2.1109   -0.9510    0.3448 C   0  0  0  0  0  0  0  0  0  0  0  0
   -2.8006   -2.1627    0.9831 C   0  0  0  0  0  0  0  0  0  0  0  0
   -3.7064   -1.7907    2.1630 C   0  0  0  0  0  0  0  0  0  0  0  0
   -4.4222   -3.0051    2.7858 C   0  0  0  0  0  0  0  0  0  0  0  0
   -5.1819   -2.5881    4.0522 C   0  0  0  0  0  0  0  0  0  0  0  0
   -5.7974   -3.7880    4.7768 C   0  0  0  0  0  0  0  0  0  0  0  0
   -6.1624   -4.9439    3.8457 C   0  0  0  0  0  0  0  0  0  0  0  0
   -6.5279   -4.4503    2.4539 C   0  0  0  0  0  0  0  0  0  0  0  0
   -5.3709   -3.6994    1.7883 C   0  0  0  0  0  0  0  0  0  0  0  0
   -1.0178    2.0486    0.5697 C   0  0  0  0  0  0  0  0  0  0  0  0
   -2.1143    2.2456    1.0876 O   0  0  0  0  0  0  0  0  0  0  0  0
   -0.3309    3.0435   -0.0810 N   0  0  0  0  0  0  0  0  0  0  0  0
   -0.9059    4.3714   -0.2532 C   0  0  0  0  0  0  0  0  0  0  0  0
    0.2105    5.3983   -0.5092 C   0  0  0  0  0  0  0  0  0  0  0  0
   -0.2555    6.6352   -1.2814 C   0  0  0  0  0  0  0  0  0  0  0  0
   -1.7337    6.9256   -1.0624 C   0  0  0  0  0  0  0  0  0  0  0  0
   -2.6164    5.7593   -1.5100 C   0  0  0  0  0  0  0  0  0  0  0  0
   -1.9392    4.3924   -1.3839 C   0  0  0  0  0  0  0  0  0  0  0  0
    3.3531    0.9327   -1.8687 C   0  0  0  0  0  0  0  0  0  0  0  0
    4.6293    0.6998   -2.3897 C   0  0  0  0  0  0  0  0  0  0  0  0
    8.8668   -1.8658   -2.7884 C   0  0  0  0  0  0  0  0  0  0  0  0
    9.4066   -2.8207   -3.3305 O   0  0  0  0  0  0  0  0  0  0  0  0
    9.5921   -0.7513   -2.5413 O   0  0  0  0  0  0  0  0  0  0  0  0
    7.9350   -1.6135   -0.2602 H   0  0  0  0  0  0  0  0  0  0  0  0
    7.6340   -0.0469   -1.0056 H   0  0  0  0  0  0  0  0  0  0  0  0
    6.2796   -1.1126   -0.5862 H   0  0  0  0  0  0  0  0  0  0  0  0
    6.7848   -3.6697   -3.2681 H   0  0  0  0  0  0  0  0  0  0  0  0
    5.7938   -3.1843   -1.8778 H   0  0  0  0  0  0  0  0  0  0  0  0
    7.4163   -3.8129   -1.6300 H   0  0  0  0  0  0  0  0  0  0  0  0
    4.1186   -2.4028   -3.6802 H   0  0  0  0  0  0  0  0  0  0  0  0
    1.8909   -2.0173   -2.7358 H   0  0  0  0  0  0  0  0  0  0  0  0
    0.4894    0.9758   -1.9986 H   0  0  0  0  0  0  0  0  0  0  0  0
    0.3596   -0.7088   -1.5511 H   0  0  0  0  0  0  0  0  0  0  0  0
    1.5875    1.4359    0.2743 H   0  0  0  0  0  0  0  0  0  0  0  0
    1.4291   -0.2564    0.6744 H   0  0  0  0  0  0  0  0  0  0  0  0
   -0.3524   -1.0280    1.6143 H   0  0  0  0  0  0  0  0  0  0  0  0
   -1.5772    0.1066    2.1569 H   0  0  0  0  0  0  0  0  0  0  0  0
   -2.8658   -0.2204    0.0304 H   0  0  0  0  0  0  0  0  0  0  0  0
   -1.6136   -1.2881   -0.5713 H   0  0  0  0  0  0  0  0  0  0  0  0
   -2.0452   -2.8885    1.3093 H   0  0  0  0  0  0  0  0  0  0  0  0
   -3.3956   -2.6549    0.2050 H   0  0  0  0  0  0  0  0  0  0  0  0
   -4.4486   -1.0516    1.8361 H   0  0  0  0  0  0  0  0  0  0  0  0
   -3.1049   -1.3097    2.9431 H   0  0  0  0  0  0  0  0  0  0  0  0
   -3.6524   -3.7299    3.0858 H   0  0  0  0  0  0  0  0  0  0  0  0
   -4.5212   -2.0529    4.7449 H   0  0  0  0  0  0  0  0  0  0  0  0
   -5.9789   -1.8837    3.7808 H   0  0  0  0  0  0  0  0  0  0  0  0
   -6.6902   -3.4497    5.3166 H   0  0  0  0  0  0  0  0  0  0  0  0
   -5.1019   -4.1571    5.5404 H   0  0  0  0  0  0  0  0  0  0  0  0
   -6.9918   -5.5155    4.2775 H   0  0  0  0  0  0  0  0  0  0  0  0
   -5.3121   -5.6338    3.7713 H   0  0  0  0  0  0  0  0  0  0  0  0
   -7.3962   -3.7832    2.5272 H   0  0  0  0  0  0  0  0  0  0  0  0
   -6.8338   -5.2910    1.8203 H   0  0  0  0  0  0  0  0  0  0  0  0
   -4.7868   -4.4084    1.1882 H   0  0  0  0  0  0  0  0  0  0  0  0
   -5.7917   -2.9752    1.0794 H   0  0  0  0  0  0  0  0  0  0  0  0
    0.2815    2.7411   -0.8188 H   0  0  0  0  0  0  0  0  0  0  0  0
   -1.4149    4.6341    0.6832 H   0  0  0  0  0  0  0  0  0  0  0  0
    0.6330    5.7025    0.4560 H   0  0  0  0  0  0  0  0  0  0  0  0
    1.0421    4.9439   -1.0624 H   0  0  0  0  0  0  0  0  0  0  0  0
    0.3496    7.5012   -0.9889 H   0  0  0  0  0  0  0  0  0  0  0  0
   -0.0769    6.4800   -2.3532 H   0  0  0  0  0  0  0  0  0  0  0  0
   -2.0257    7.8348   -1.6008 H   0  0  0  0  0  0  0  0  0  0  0  0
   -1.9064    7.1257    0.0029 H   0  0  0  0  0  0  0  0  0  0  0  0
   -3.5391    5.7713   -0.9175 H   0  0  0  0  0  0  0  0  0  0  0  0
   -2.9224    5.9037   -2.5533 H   0  0  0  0  0  0  0  0  0  0  0  0
   -2.7062    3.6217   -1.2401 H   0  0  0  0  0  0  0  0  0  0  0  0
   -1.4429    4.1445   -2.3324 H   0  0  0  0  0  0  0  0  0  0  0  0
    3.1521    1.8933   -1.3979 H   0  0  0  0  0  0  0  0  0  0  0  0
    5.3869    1.4734   -2.3008 H   0  0  0  0  0  0  0  0  0  0  0  0
   10.4737   -0.9561   -2.9191 H   0  0  0  0  0  0  0  0  0  0  0  0
  1  2  1  0
  2  3  1  0
  2  4  1  0
  4  5  1  0
  5  6  2  0
  6  7  1  0
  7  8  2  0
  8  9  1  0
  9 10  1  0
 10 11  1  0
 11 12  1  0
 12 13  1  0
 13 14  1  0
 14 15  1  0
 15 16  1  0
 16 17  1  0
 17 18  1  0
 18 19  1  0
 19 20  1  0
 20 21  1  0
 11 22  1  0
 22 23  2  0
 22 24  1  0
 24 25  1  0
 25 26  1  0
 26 27  1  0
 27 28  1  0
 28 29  1  0
 29 30  1  0
  8 31  1  0
 31 32  2  0
  2 33  1  0
 33 34  2  0
 33 35  1  0
 32  5  1  0
 21 16  1  0
 30 25  1  0
  1 36  1  0
  1 37  1  0
  1 38  1  0
  3 39  1  0
  3 40  1  0
  3 41  1  0
  6 42  1  0
  7 43  1  0
  9 44  1  0
  9 45  1  0
 10 46  1  0
 10 47  1  0
 12 48  1  0
 12 49  1  0
 13 50  1  0
 13 51  1  0
 14 52  1  0
 14 53  1  0
 15 54  1  0
 15 55  1  0
 16 56  1  0
 17 57  1  0
 17 58  1  0
 18 59  1  0
 18 60  1  0
 19 61  1  0
 19 62  1  0
 20 63  1  0
 20 64  1  0
 21 65  1  0
 21 66  1  0
 24 67  1  0
 25 68  1  0
 26 69  1  0
 26 70  1  0
 27 71  1  0
 27 72  1  0
 28 73  1  0
 28 74  1  0
 29 75  1  0
 29 76  1  0
 30 77  1  0
 30 78  1  0
 31 79  1  0
 32 80  1  0
 35 81  1  0
M  END
$$$$
