
     RDKit          3D

 20 20  0  0  0  0  0  0  0  0999 V2000
   -0.7624   -0.8312   -1.1190 N   0  0  0  0  0  0  0  0  0  0  0  0
   -1.3768   -0.2646    0.1092 C   0  0  1  0  0  0  0  0  0  0  0  0
   -0.5139   -0.4353    1.3817 C   0  0  0  0  0  0  0  0  0  0  0  0
    0.9330   -0.3520    1.2067 N   0  0  0  0  0  0  0  0  0  0  0  0
    1.5045   -1.5519    0.6682 O   0  0  0  0  0  0  0  0  0  0  0  0
    2.4699   -1.1687   -0.2260 C   0  0  0  0  0  0  0  0  0  0  0  0
    3.0919   -1.9290   -0.9499 O   0  0  0  0  0  0  0  0  0  0  0  0
    2.5866    0.1699   -0.1990 N   0  0  0  0  0  0  0  0  0  0  0  0
    1.5293    0.6756    0.4754 C   0  0  0  0  0  0  0  0  0  0  0  0
    1.1388    1.8299    0.3879 O   0  0  0  0  0  0  0  0  0  0  0  0
   -1.7696    1.2067   -0.0802 C   0  0  0  0  0  0  0  0  0  0  0  0
   -2.1312    1.9734    0.7991 O   0  0  0  0  0  0  0  0  0  0  0  0
   -1.7835    1.6039   -1.3733 O   0  0  0  0  0  0  0  0  0  0  0  0
   -1.2668   -0.4474   -1.9239 H   0  0  0  0  0  0  0  0  0  0  0  0
   -0.9016   -1.8406   -1.1365 H   0  0  0  0  0  0  0  0  0  0  0  0
   -2.3342   -0.7787    0.2646 H   0  0  0  0  0  0  0  0  0  0  0  0
   -0.7761    0.3187    2.1319 H   0  0  0  0  0  0  0  0  0  0  0  0
   -0.7139   -1.4193    1.8229 H   0  0  0  0  0  0  0  0  0  0  0  0
    3.0575    0.6781   -0.9249 H   0  0  0  0  0  0  0  0  0  0  0  0
   -1.9814    2.5625   -1.3148 H   0  0  0  0  0  0  0  0  0  0  0  0
  1  2  1  0
  2  3  1  0
  3  4  1  0
  4  5  1  0
  5  6  1  0
  6  7  2  0
  6  8  1  0
  8  9  1  0
  9 10  2  0
  2 11  1  0
 11 12  2  0
 11 13  1  0
  9  4  1  0
  1 14  1  0
  1 15  1  0
  2 16  1  1
  3 17  1  0
  3 18  1  0
  8 19  1  0
 13 20  1  0
M  END
$$$$
