
     RDKit          3D

 25 23  0  0  0  0  0  0  0  0999 V2000
   -0.1808    1.9889   -0.3043 C   0  0  0  0  0  0  0  0  0  0  0  0
   -0.7674    0.6113   -0.1341 C   0  0  0  0  0  0  0  0  0  0  0  0
   -1.9591    0.3917    0.4109 N   0  0  0  0  0  0  0  0  0  0  0  0
   -2.5154   -0.5718    0.5934 C   0  0  0  0  0  0  0  0  0  0  0  0
   -3.7574   -1.0875    1.1366 N   0  0  0  0  0  0  0  0  0  0  0  0
   -1.2627   -1.8251   -0.1037 S   0  0  0  0  0  0  0  0  0  0  0  0
   -0.1258   -0.5030   -0.5302 C   0  0  0  0  0  0  0  0  0  0  0  0
    1.1976   -0.7589   -1.1626 C   0  0  0  0  0  0  0  0  0  0  0  0
    2.3061   -0.6777   -0.1487 C   0  0  0  0  0  0  0  0  0  0  0  0
    2.4126    0.5825    0.5007 N   0  0  0  0  0  0  0  0  0  0  0  0
    0.6913    0.0000    0.0000 Cl  0  0  0  0  0  0  0  0  0  0  0  0
    0.6924    0.0000    0.0000 Cl  0  0  0  0  0  0  0  0  0  0  0  0
    0.2540    2.3456    0.6485 H   0  0  0  0  0  0  0  0  0  0  0  0
   -0.9914    2.6753   -0.6898 H   0  0  0  0  0  0  0  0  0  0  0  0
    0.6136    1.9922   -1.0771 H   0  0  0  0  0  0  0  0  0  0  0  0
   -4.6141   -0.5455    0.9185 H   0  0  0  0  0  0  0  0  0  0  0  0
   -3.8121   -1.9342    1.7036 H   0  0  0  0  0  0  0  0  0  0  0  0
    1.2968   -0.0059   -1.9709 H   0  0  0  0  0  0  0  0  0  0  0  0
    1.2365   -1.7888   -1.6064 H   0  0  0  0  0  0  0  0  0  0  0  0
    2.1724   -1.5392    0.5402 H   0  0  0  0  0  0  0  0  0  0  0  0
    3.2723   -0.8671   -0.7028 H   0  0  0  0  0  0  0  0  0  0  0  0
    3.4019    0.8524    0.6229 H   0  0  0  0  0  0  0  0  0  0  0  0
    1.8225    0.6647    1.3552 H   0  0  0  0  0  0  0  0  0  0  0  0
   -0.6913    0.0000    0.0000 H   0  0  0  0  0  0  0  0  0  0  0  0
   -0.6924    0.0000    0.0000 H   0  0  0  0  0  0  0  0  0  0  0  0
  1  2  1  0
  2  3  1  0
  3  4  2  0
  4  5  1  0
  4  6  1  0
  6  7  1  0
  7  8  1  0
  8  9  1  0
  9 10  1  0
  7  2  2  0
  1 13  1  0
  1 14  1  0
  1 15  1  0
  5 16  1  0
  5 17  1  0
  8 18  1  0
  8 19  1  0
  9 20  1  0
  9 21  1  0
 10 22  1  0
 10 23  1  0
 11 24  1  0
 12 25  1  0
M  END
$$$$
