
     RDKit          3D

 55 59  0  0  0  0  0  0  0  0999 V2000
    3.8487   -1.1456    1.5081 C   0  0  0  0  0  0  0  0  0  0  0  0
    3.1924   -0.6095    0.3666 O   0  0  0  0  0  0  0  0  0  0  0  0
    2.7898    0.7434    0.5633 C   0  0  0  0  0  0  0  0  0  0  0  0
    2.1360    1.3449   -0.7027 C   0  0  1  0  0  0  0  0  0  0  0  0
    3.2076    1.5519   -1.7177 O   0  0  0  0  0  0  0  0  0  0  0  0
    3.6505    0.5236   -2.5310 C   0  0  0  0  0  0  0  0  0  0  0  0
    4.6897    0.6046   -3.1715 O   0  0  0  0  0  0  0  0  0  0  0  0
    2.7638   -0.6113   -2.5800 C   0  0  0  0  0  0  0  0  0  0  0  0
    2.9328   -1.8901   -3.0608 C   0  0  0  0  0  0  0  0  0  0  0  0
    1.8721   -2.6800   -2.6835 O   0  0  0  0  0  0  0  0  0  0  0  0
    1.0328   -1.8738   -1.9734 C   0  0  0  0  0  0  0  0  0  0  0  0
    1.4872   -0.5912   -2.0001 C   0  0  0  0  0  0  0  0  0  0  0  0
    0.8908    0.5800   -1.3111 C   0  0  2  0  0  0  0  0  0  0  0  0
    0.2491    1.4883   -2.3963 C   0  0  0  0  0  0  0  0  0  0  0  0
   -0.2500    0.0830   -0.3541 C   0  0  0  0  0  0  0  0  0  0  0  0
   -0.6962   -1.2197   -0.3226 C   0  0  0  0  0  0  0  0  0  0  0  0
   -0.0867   -2.3184   -1.1992 C   0  0  0  0  0  0  0  0  0  0  0  0
   -0.5272   -3.4607   -1.1970 O   0  0  0  0  0  0  0  0  0  0  0  0
   -1.8189   -1.6190    0.6076 C   0  0  2  0  0  0  0  0  0  0  0  0
   -2.7057   -2.8565    0.4197 C   0  0  0  0  0  0  0  0  0  0  0  0
   -3.8017   -2.6771    1.4789 C   0  0  0  0  0  0  0  0  0  0  0  0
   -3.8431   -1.1754    1.6628 C   0  0  0  0  0  0  0  0  0  0  0  0
   -4.5984   -0.5991    2.4334 O   0  0  0  0  0  0  0  0  0  0  0  0
   -2.8490   -0.4785    0.7585 C   0  0  2  0  0  0  0  0  0  0  0  0
   -3.6024   -0.0860   -0.5263 C   0  0  0  0  0  0  0  0  0  0  0  0
   -2.1153    0.7016    1.3728 C   0  0  0  0  0  0  0  0  0  0  0  0
   -0.9804    1.1882    0.4450 C   0  0  1  0  0  0  0  0  0  0  0  0
   -0.0280    1.9022    1.2479 O   0  0  0  0  0  0  0  0  0  0  0  0
   -0.3549    3.1924    1.5455 C   0  0  0  0  0  0  0  0  0  0  0  0
    0.6860    3.7904    2.4411 C   0  0  0  0  0  0  0  0  0  0  0  0
   -1.3390    3.7853    1.1321 O   0  0  0  0  0  0  0  0  0  0  0  0
    4.7590   -0.5796    1.7272 H   0  0  0  0  0  0  0  0  0  0  0  0
    4.1241   -2.1810    1.2912 H   0  0  0  0  0  0  0  0  0  0  0  0
    3.1796   -1.1351    2.3738 H   0  0  0  0  0  0  0  0  0  0  0  0
    3.6783    1.3356    0.8140 H   0  0  0  0  0  0  0  0  0  0  0  0
    2.1021    0.7780    1.4116 H   0  0  0  0  0  0  0  0  0  0  0  0
    1.8242    2.3642   -0.4465 H   0  0  0  0  0  0  0  0  0  0  0  0
    3.7288   -2.3993   -3.5870 H   0  0  0  0  0  0  0  0  0  0  0  0
    0.9481    1.7164   -3.2099 H   0  0  0  0  0  0  0  0  0  0  0  0
   -0.6243    1.0078   -2.8550 H   0  0  0  0  0  0  0  0  0  0  0  0
   -0.0754    2.4473   -1.9782 H   0  0  0  0  0  0  0  0  0  0  0  0
   -1.3180   -1.7796    1.5789 H   0  0  0  0  0  0  0  0  0  0  0  0
   -2.1683   -3.7933    0.5974 H   0  0  0  0  0  0  0  0  0  0  0  0
   -3.1366   -2.8996   -0.5869 H   0  0  0  0  0  0  0  0  0  0  0  0
   -3.5146   -3.1424    2.4261 H   0  0  0  0  0  0  0  0  0  0  0  0
   -4.7643   -3.0586    1.1321 H   0  0  0  0  0  0  0  0  0  0  0  0
   -2.9319    0.2043   -1.3402 H   0  0  0  0  0  0  0  0  0  0  0  0
   -4.2371   -0.8967   -0.9008 H   0  0  0  0  0  0  0  0  0  0  0  0
   -4.2696    0.7619   -0.3299 H   0  0  0  0  0  0  0  0  0  0  0  0
   -1.7075    0.4333    2.3578 H   0  0  0  0  0  0  0  0  0  0  0  0
   -2.8100    1.5263    1.5774 H   0  0  0  0  0  0  0  0  0  0  0  0
   -1.4245    1.8644   -0.2963 H   0  0  0  0  0  0  0  0  0  0  0  0
    0.3854    4.8045    2.7194 H   0  0  0  0  0  0  0  0  0  0  0  0
    0.7775    3.1945    3.3526 H   0  0  0  0  0  0  0  0  0  0  0  0
    1.6428    3.8389    1.9154 H   0  0  0  0  0  0  0  0  0  0  0  0
  1  2  1  0
  2  3  1  0
  3  4  1  0
  4  5  1  0
  5  6  1  0
  6  7  2  0
  6  8  1  0
  8  9  2  0
  9 10  1  0
 10 11  1  0
 11 12  2  0
 12 13  1  0
 13 14  1  6
 13 15  1  0
 15 16  2  0
 16 17  1  0
 17 18  2  0
 16 19  1  0
 19 20  1  0
 20 21  1  0
 21 22  1  0
 22 23  2  0
 22 24  1  0
 24 25  1  6
 24 26  1  0
 26 27  1  0
 27 28  1  0
 28 29  1  0
 29 30  1  0
 29 31  2  0
 13  4  1  0
 27 15  1  0
 12  8  1  0
 24 19  1  0
 17 11  1  0
  1 32  1  0
  1 33  1  0
  1 34  1  0
  3 35  1  0
  3 36  1  0
  4 37  1  1
  9 38  1  0
 14 39  1  0
 14 40  1  0
 14 41  1  0
 19 42  1  1
 20 43  1  0
 20 44  1  0
 21 45  1  0
 21 46  1  0
 25 47  1  0
 25 48  1  0
 25 49  1  0
 26 50  1  0
 26 51  1  0
 27 52  1  6
 30 53  1  0
 30 54  1  0
 30 55  1  0
M  END
$$$$
