
     RDKit          3D

 43 46  0  0  0  0  0  0  0  0999 V2000
   -2.9342    0.3744   -2.7772 C   0  0  0  0  0  0  0  0  0  0  0  0
   -3.1973    0.1100   -1.2743 C   0  0  0  0  0  0  0  0  0  0  0  0
   -3.8969    1.3589   -0.7035 C   0  0  0  0  0  0  0  0  0  0  0  0
   -4.1344   -1.1092   -1.1770 C   0  0  0  0  0  0  0  0  0  0  0  0
   -1.9458   -0.1523   -0.5390 N   0  0  0  0  0  0  0  0  0  0  0  0
   -0.7608   -0.1710   -1.1946 N   0  0  0  0  0  0  0  0  0  0  0  0
    0.1524   -0.4053   -0.2389 C   0  0  0  0  0  0  0  0  0  0  0  0
    1.5700   -0.5037   -0.5807 C   0  0  0  0  0  0  0  0  0  0  0  0
    1.9697   -1.6107   -1.3478 C   0  0  0  0  0  0  0  0  0  0  0  0
    3.3073   -1.7958   -1.6771 C   0  0  0  0  0  0  0  0  0  0  0  0
    4.2580   -0.8746   -1.2453 C   0  0  0  0  0  0  0  0  0  0  0  0
    3.8871    0.2495   -0.4903 C   0  0  0  0  0  0  0  0  0  0  0  0
    4.8643    1.1695   -0.0753 C   0  0  0  0  0  0  0  0  0  0  0  0
    4.5206    2.2982    0.6666 C   0  0  0  0  0  0  0  0  0  0  0  0
    3.1925    2.5255    0.9995 C   0  0  0  0  0  0  0  0  0  0  0  0
    2.2087    1.6210    0.5945 C   0  0  0  0  0  0  0  0  0  0  0  0
    2.5259    0.4582   -0.1500 C   0  0  0  0  0  0  0  0  0  0  0  0
   -0.4558   -0.5839    1.0340 C   0  0  0  0  0  0  0  0  0  0  0  0
   -0.0669   -0.8723    2.3481 C   0  0  0  0  0  0  0  0  0  0  0  0
    1.2380   -1.0744    2.7575 N   0  0  0  0  0  0  0  0  0  0  0  0
   -1.0206   -0.9677    3.2977 N   0  0  0  0  0  0  0  0  0  0  0  0
   -2.3038   -0.7702    2.9426 C   0  0  0  0  0  0  0  0  0  0  0  0
   -2.7899   -0.4900    1.7237 N   0  0  0  0  0  0  0  0  0  0  0  0
   -1.8105   -0.4120    0.8048 C   0  0  0  0  0  0  0  0  0  0  0  0
   -3.8698    0.5716   -3.3137 H   0  0  0  0  0  0  0  0  0  0  0  0
   -2.4569   -0.4869   -3.2594 H   0  0  0  0  0  0  0  0  0  0  0  0
   -2.2834    1.2446   -2.9237 H   0  0  0  0  0  0  0  0  0  0  0  0
   -3.2292    2.2282   -0.7237 H   0  0  0  0  0  0  0  0  0  0  0  0
   -4.2178    1.2158    0.3332 H   0  0  0  0  0  0  0  0  0  0  0  0
   -4.7920    1.6101   -1.2842 H   0  0  0  0  0  0  0  0  0  0  0  0
   -3.6395   -2.0167   -1.5422 H   0  0  0  0  0  0  0  0  0  0  0  0
   -4.4556   -1.3023   -0.1484 H   0  0  0  0  0  0  0  0  0  0  0  0
   -5.0415   -0.9587   -1.7737 H   0  0  0  0  0  0  0  0  0  0  0  0
    1.2296   -2.3308   -1.6922 H   0  0  0  0  0  0  0  0  0  0  0  0
    3.6089   -2.6537   -2.2722 H   0  0  0  0  0  0  0  0  0  0  0  0
    5.3002   -1.0361   -1.5141 H   0  0  0  0  0  0  0  0  0  0  0  0
    5.9103    1.0144   -0.3320 H   0  0  0  0  0  0  0  0  0  0  0  0
    5.2892    3.0003    0.9785 H   0  0  0  0  0  0  0  0  0  0  0  0
    2.9153    3.4062    1.5730 H   0  0  0  0  0  0  0  0  0  0  0  0
    1.1787    1.8408    0.8674 H   0  0  0  0  0  0  0  0  0  0  0  0
    1.2970   -1.5268    3.6608 H   0  0  0  0  0  0  0  0  0  0  0  0
    1.9134   -1.3428    2.0552 H   0  0  0  0  0  0  0  0  0  0  0  0
   -3.0343   -0.8493    3.7422 H   0  0  0  0  0  0  0  0  0  0  0  0
  1  2  1  0
  2  3  1  0
  2  4  1  0
  2  5  1  0
  5  6  1  0
  6  7  2  0
  7  8  1  0
  8  9  2  0
  9 10  1  0
 10 11  2  0
 11 12  1  0
 12 13  2  0
 13 14  1  0
 14 15  2  0
 15 16  1  0
 16 17  2  0
  7 18  1  0
 18 19  2  0
 19 20  1  0
 19 21  1  0
 21 22  2  0
 22 23  1  0
 23 24  2  0
 24  5  1  0
 17  8  1  0
 24 18  1  0
 17 12  1  0
  1 25  1  0
  1 26  1  0
  1 27  1  0
  3 28  1  0
  3 29  1  0
  3 30  1  0
  4 31  1  0
  4 32  1  0
  4 33  1  0
  9 34  1  0
 10 35  1  0
 11 36  1  0
 13 37  1  0
 14 38  1  0
 15 39  1  0
 16 40  1  0
 20 41  1  0
 20 42  1  0
 22 43  1  0
M  END
$$$$
