
     RDKit          3D

  9  8  0  0  0  0  0  0  0  0999 V2000
    0.9350    0.7440    0.0888 N   0  0  0  0  0  0  0  0  0  0  0  0
    0.1030   -0.6793   -0.1131 S   0  0  0  0  0  6  0  0  0  0  0  0
   -1.3875   -0.0709    0.2379 N   0  0  0  0  0  0  0  0  0  0  0  0
    0.1581   -0.9762   -1.5174 O   0  0  0  0  0  0  0  0  0  0  0  0
    0.5207   -1.5668    0.9344 O   0  0  0  0  0  0  0  0  0  0  0  0
    0.9990    1.2209   -0.8118 H   0  0  0  0  0  0  0  0  0  0  0  0
    1.8705    0.5235    0.4371 H   0  0  0  0  0  0  0  0  0  0  0  0
   -1.7379    0.5750   -0.4621 H   0  0  0  0  0  0  0  0  0  0  0  0
   -1.4609    0.2297    1.2063 H   0  0  0  0  0  0  0  0  0  0  0  0
  1  2  1  0
  2  3  1  0
  2  4  2  0
  2  5  2  0
  1  6  1  0
  1  7  1  0
  3  8  1  0
  3  9  1  0
M  END
$$$$
