
     RDKit          3D

 33 35  0  0  0  0  0  0  0  0999 V2000
    5.0309    0.8312    0.3328 N   0  0  0  0  0  0  0  0  0  0  0  0
    3.6585    0.9011    0.1504 C   0  0  0  0  0  0  0  0  0  0  0  0
    3.1788    2.0509   -0.3624 N   0  0  0  0  0  0  0  0  0  0  0  0
    1.8532    2.1613   -0.5514 C   0  0  0  0  0  0  0  0  0  0  0  0
    0.9012    1.2481   -0.3056 N   0  0  0  0  0  0  0  0  0  0  0  0
    1.4159    0.1104    0.1942 C   0  0  0  0  0  0  0  0  0  0  0  0
    2.7632   -0.1393    0.4495 C   0  0  0  0  0  0  0  0  0  0  0  0
    2.8253   -1.4564    0.9688 C   0  0  0  0  0  0  0  0  0  0  0  0
    4.5014   -2.5007    1.5679 I   0  0  0  0  0  0  0  0  0  0  0  0
    1.5530   -1.9731    1.0201 C   0  0  0  0  0  0  0  0  0  0  0  0
    0.6937   -1.0069    0.5458 N   0  0  0  0  0  0  0  0  0  0  0  0
   -0.7464   -1.1809    0.4312 C   0  0  2  0  0  0  0  0  0  0  0  0
   -1.1240   -1.0998   -0.9601 O   0  0  0  0  0  0  0  0  0  0  0  0
   -2.3755   -0.3857   -1.0389 C   0  0  2  0  0  0  0  0  0  0  0  0
   -2.1645    0.9401   -1.7707 C   0  0  0  0  0  0  0  0  0  0  0  0
   -3.4163    1.5889   -1.9671 O   0  0  0  0  0  0  0  0  0  0  0  0
   -2.8800   -0.1941    0.3929 C   0  0  1  0  0  0  0  0  0  0  0  0
   -3.6403   -1.3422    0.8249 O   0  0  0  0  0  0  0  0  0  0  0  0
   -1.5949   -0.1697    1.2049 C   0  0  1  0  0  0  0  0  0  0  0  0
   -1.8371   -0.5564    2.5593 O   0  0  0  0  0  0  0  0  0  0  0  0
    5.4215   -0.1011    0.3186 H   0  0  0  0  0  0  0  0  0  0  0  0
    5.5113    1.5411   -0.2063 H   0  0  0  0  0  0  0  0  0  0  0  0
    1.5121    3.1096   -0.9554 H   0  0  0  0  0  0  0  0  0  0  0  0
    1.1843   -2.9361    1.3503 H   0  0  0  0  0  0  0  0  0  0  0  0
   -0.9715   -2.2011    0.7679 H   0  0  0  0  0  0  0  0  0  0  0  0
   -3.0759   -1.0064   -1.6097 H   0  0  0  0  0  0  0  0  0  0  0  0
   -1.5127    1.6129   -1.2081 H   0  0  0  0  0  0  0  0  0  0  0  0
   -1.6983    0.7636   -2.7460 H   0  0  0  0  0  0  0  0  0  0  0  0
   -3.2380    2.3871   -2.4965 H   0  0  0  0  0  0  0  0  0  0  0  0
   -3.5064    0.6880    0.5521 H   0  0  0  0  0  0  0  0  0  0  0  0
   -4.4566   -1.3521    0.2898 H   0  0  0  0  0  0  0  0  0  0  0  0
   -1.1611    0.8340    1.2038 H   0  0  0  0  0  0  0  0  0  0  0  0
   -2.6044   -1.1663    2.5189 H   0  0  0  0  0  0  0  0  0  0  0  0
  1  2  1  0
  2  3  2  0
  3  4  1  0
  4  5  2  0
  5  6  1  0
  6  7  2  0
  7  8  1  0
  8  9  1  0
  8 10  2  0
 10 11  1  0
 11 12  1  0
 12 13  1  0
 13 14  1  0
 14 15  1  0
 15 16  1  0
 14 17  1  0
 17 18  1  0
 17 19  1  0
 19 20  1  0
  7  2  1  0
 19 12  1  0
 11  6  1  0
  1 21  1  0
  1 22  1  0
  4 23  1  0
 10 24  1  0
 12 25  1  1
 14 26  1  6
 15 27  1  0
 15 28  1  0
 16 29  1  0
 17 30  1  6
 18 31  1  0
 19 32  1  1
 20 33  1  0
M  END
$$$$
