
     RDKit          3D

 56 59  0  0  0  0  0  0  0  0999 V2000
   -4.0113    4.9325   -0.5544 C   0  0  0  0  0  0  0  0  0  0  0  0
   -2.6112    5.4329   -0.2329 C   0  0  0  0  0  0  0  0  0  0  0  0
   -1.5058    4.6536   -0.9550 C   0  0  0  0  0  0  0  0  0  0  0  0
   -1.3980    3.2649   -0.5119 N   0  0  0  0  0  0  0  0  0  0  0  0
   -1.9884    2.2787   -1.3183 C   0  0  0  0  0  0  0  0  0  0  0  0
   -2.5875    2.5293   -2.3615 O   0  0  0  0  0  0  0  0  0  0  0  0
   -1.8160    0.9616   -0.8013 C   0  0  0  0  0  0  0  0  0  0  0  0
   -2.3472   -0.4720   -1.5208 S   0  0  0  0  0  0  0  0  0  0  0  0
   -1.6311   -1.3765   -0.2167 C   0  0  0  0  0  0  0  0  0  0  0  0
   -1.6617   -2.7278   -0.1457 N   0  0  0  0  0  0  0  0  0  0  0  0
   -2.2009   -3.6114   -1.1631 C   0  0  0  0  0  0  0  0  0  0  0  0
   -2.0292   -5.0010   -0.5533 C   0  0  0  0  0  0  0  0  0  0  0  0
   -0.7693   -4.8536    0.2854 C   0  0  0  0  0  0  0  0  0  0  0  0
   -0.9012   -3.4473    0.8657 C   0  0  0  0  0  0  0  0  0  0  0  0
   -1.0462   -0.6222    0.6964 N   0  0  0  0  0  0  0  0  0  0  0  0
   -1.1726    0.6996    0.3663 C   0  0  0  0  0  0  0  0  0  0  0  0
   -0.6328    1.7082    1.1364 N   0  0  0  0  0  0  0  0  0  0  0  0
    0.0410    1.4203    2.4046 C   0  0  0  0  0  0  0  0  0  0  0  0
    1.5361    1.1061    2.2649 C   0  0  0  0  0  0  0  0  0  0  0  0
    2.3356    1.5188    3.1039 O   0  0  0  0  0  0  0  0  0  0  0  0
    1.8381    0.2355    1.2368 N   0  0  0  0  0  0  0  0  0  0  0  0
    3.1034   -0.2378    0.8246 C   0  0  0  0  0  0  0  0  0  0  0  0
    4.3069    0.1830    1.3946 C   0  0  0  0  0  0  0  0  0  0  0  0
    5.5216   -0.3299    0.9348 C   0  0  0  0  0  0  0  0  0  0  0  0
    5.5415   -1.2625   -0.0986 C   0  0  0  0  0  0  0  0  0  0  0  0
    4.3464   -1.6847   -0.6838 C   0  0  0  0  0  0  0  0  0  0  0  0
    3.1252   -1.1741   -0.2328 C   0  0  0  0  0  0  0  0  0  0  0  0
    1.8957   -1.5113   -0.7491 O   0  0  0  0  0  0  0  0  0  0  0  0
    1.8787   -2.3979   -1.8596 C   0  0  0  0  0  0  0  0  0  0  0  0
   -0.7179    3.0296    0.6985 C   0  0  0  0  0  0  0  0  0  0  0  0
   -0.2229    3.9530    1.3483 O   0  0  0  0  0  0  0  0  0  0  0  0
   -4.1634    3.9112   -0.1921 H   0  0  0  0  0  0  0  0  0  0  0  0
   -4.7584    5.5708   -0.0714 H   0  0  0  0  0  0  0  0  0  0  0  0
   -4.1973    4.9509   -1.6329 H   0  0  0  0  0  0  0  0  0  0  0  0
   -2.4600    5.3973    0.8517 H   0  0  0  0  0  0  0  0  0  0  0  0
   -2.5423    6.4862   -0.5289 H   0  0  0  0  0  0  0  0  0  0  0  0
   -1.6696    4.6970   -2.0378 H   0  0  0  0  0  0  0  0  0  0  0  0
   -0.5460    5.1510   -0.7678 H   0  0  0  0  0  0  0  0  0  0  0  0
   -1.6213   -3.5303   -2.0897 H   0  0  0  0  0  0  0  0  0  0  0  0
   -3.2559   -3.4139   -1.3781 H   0  0  0  0  0  0  0  0  0  0  0  0
   -1.9467   -5.7841   -1.3120 H   0  0  0  0  0  0  0  0  0  0  0  0
   -2.8829   -5.2363    0.0938 H   0  0  0  0  0  0  0  0  0  0  0  0
    0.1162   -4.9121   -0.3591 H   0  0  0  0  0  0  0  0  0  0  0  0
   -0.6808   -5.6197    1.0606 H   0  0  0  0  0  0  0  0  0  0  0  0
   -1.4619   -3.4670    1.8071 H   0  0  0  0  0  0  0  0  0  0  0  0
    0.0882   -3.0151    1.0509 H   0  0  0  0  0  0  0  0  0  0  0  0
   -0.0579    2.2867    3.0690 H   0  0  0  0  0  0  0  0  0  0  0  0
   -0.4490    0.5747    2.9014 H   0  0  0  0  0  0  0  0  0  0  0  0
    1.0582   -0.1998    0.7454 H   0  0  0  0  0  0  0  0  0  0  0  0
    4.3332    0.9107    2.1994 H   0  0  0  0  0  0  0  0  0  0  0  0
    6.4520    0.0029    1.3883 H   0  0  0  0  0  0  0  0  0  0  0  0
    6.4902   -1.6595   -0.4511 H   0  0  0  0  0  0  0  0  0  0  0  0
    4.4049   -2.4102   -1.4876 H   0  0  0  0  0  0  0  0  0  0  0  0
    2.2632   -3.3839   -1.5803 H   0  0  0  0  0  0  0  0  0  0  0  0
    0.8381   -2.5239   -2.1718 H   0  0  0  0  0  0  0  0  0  0  0  0
    2.4298   -1.9815   -2.7092 H   0  0  0  0  0  0  0  0  0  0  0  0
  1  2  1  0
  2  3  1  0
  3  4  1  0
  4  5  1  0
  5  6  2  0
  5  7  1  0
  7  8  1  0
  8  9  1  0
  9 10  1  0
 10 11  1  0
 11 12  1  0
 12 13  1  0
 13 14  1  0
  9 15  2  0
 15 16  1  0
 16 17  1  0
 17 18  1  0
 18 19  1  0
 19 20  2  0
 19 21  1  0
 21 22  1  0
 22 23  2  0
 23 24  1  0
 24 25  2  0
 25 26  1  0
 26 27  2  0
 27 28  1  0
 28 29  1  0
 17 30  1  0
 30 31  2  0
 30  4  1  0
 16  7  2  0
 27 22  1  0
 14 10  1  0
  1 32  1  0
  1 33  1  0
  1 34  1  0
  2 35  1  0
  2 36  1  0
  3 37  1  0
  3 38  1  0
 11 39  1  0
 11 40  1  0
 12 41  1  0
 12 42  1  0
 13 43  1  0
 13 44  1  0
 14 45  1  0
 14 46  1  0
 18 47  1  0
 18 48  1  0
 21 49  1  0
 23 50  1  0
 24 51  1  0
 25 52  1  0
 26 53  1  0
 29 54  1  0
 29 55  1  0
 29 56  1  0
M  END
$$$$
