
     RDKit          3D

 45 45  0  0  0  0  0  0  0  0999 V2000
    5.7266   -0.7330   -1.5300 C   0  0  0  0  0  0  0  0  0  0  0  0
    6.3200   -0.6432   -0.1357 C   0  0  0  0  0  0  0  0  0  0  0  0
    5.4151    0.0358    0.8965 C   0  0  0  0  0  0  0  0  0  0  0  0
    4.0969   -0.6886    1.1656 C   0  0  0  0  0  0  0  0  0  0  0  0
    3.0214   -0.2339    0.3054 N   0  0  0  0  0  0  0  0  0  0  0  0
    1.7050   -0.4521    0.6487 C   0  0  0  0  0  0  0  0  0  0  0  0
    1.3504   -0.9557    1.7094 O   0  0  0  0  0  0  0  0  0  0  0  0
    0.6673    0.0159   -0.3039 C   0  0  0  0  0  0  0  0  0  0  0  0
   -0.4483    0.6506    0.2681 C   0  0  0  0  0  0  0  0  0  0  0  0
   -1.4978    1.0914   -0.5428 C   0  0  0  0  0  0  0  0  0  0  0  0
   -2.8842    1.9351    0.1919 S   0  0  0  0  0  6  0  0  0  0  0  0
   -3.4296    2.8053   -0.8291 O   0  0  0  0  0  0  0  0  0  0  0  0
   -2.4355    2.4664    1.4605 O   0  0  0  0  0  0  0  0  0  0  0  0
   -3.9833    0.6889    0.4770 N   0  0  0  0  0  0  0  0  0  0  0  0
   -4.8817    0.2475   -0.6026 C   0  0  0  0  0  0  0  0  0  0  0  0
   -6.2383    0.9116   -0.4408 C   0  0  0  0  0  0  0  0  0  0  0  0
   -3.8500   -0.1778    1.6636 C   0  0  0  0  0  0  0  0  0  0  0  0
   -3.1984   -1.5154    1.3581 C   0  0  0  0  0  0  0  0  0  0  0  0
   -1.4297    0.9439   -1.9291 C   0  0  0  0  0  0  0  0  0  0  0  0
   -0.3239    0.3097   -2.4991 C   0  0  0  0  0  0  0  0  0  0  0  0
    0.7207   -0.1634   -1.6924 C   0  0  0  0  0  0  0  0  0  0  0  0
    2.0077   -0.9888   -2.4932 Cl  0  0  0  0  0  0  0  0  0  0  0  0
    5.3794    0.2447   -1.8779 H   0  0  0  0  0  0  0  0  0  0  0  0
    6.4803   -1.0959   -2.2363 H   0  0  0  0  0  0  0  0  0  0  0  0
    4.8904   -1.4364   -1.5559 H   0  0  0  0  0  0  0  0  0  0  0  0
    7.2586   -0.0787   -0.1924 H   0  0  0  0  0  0  0  0  0  0  0  0
    6.5819   -1.6504    0.2096 H   0  0  0  0  0  0  0  0  0  0  0  0
    5.2311    1.0772    0.6057 H   0  0  0  0  0  0  0  0  0  0  0  0
    5.9789    0.0686    1.8377 H   0  0  0  0  0  0  0  0  0  0  0  0
    4.1960   -1.7728    1.0443 H   0  0  0  0  0  0  0  0  0  0  0  0
    3.7936   -0.5026    2.2026 H   0  0  0  0  0  0  0  0  0  0  0  0
    3.2379    0.0278   -0.6484 H   0  0  0  0  0  0  0  0  0  0  0  0
   -0.4941    0.7915    1.3482 H   0  0  0  0  0  0  0  0  0  0  0  0
   -4.4627    0.4932   -1.5834 H   0  0  0  0  0  0  0  0  0  0  0  0
   -5.0074   -0.8385   -0.5942 H   0  0  0  0  0  0  0  0  0  0  0  0
   -6.9142    0.5950   -1.2411 H   0  0  0  0  0  0  0  0  0  0  0  0
   -6.1540    2.0025   -0.4775 H   0  0  0  0  0  0  0  0  0  0  0  0
   -6.6958    0.6443    0.5174 H   0  0  0  0  0  0  0  0  0  0  0  0
   -4.8474   -0.3437    2.0876 H   0  0  0  0  0  0  0  0  0  0  0  0
   -3.2769    0.3304    2.4456 H   0  0  0  0  0  0  0  0  0  0  0  0
   -3.0544   -2.0794    2.2855 H   0  0  0  0  0  0  0  0  0  0  0  0
   -2.2229   -1.3986    0.8828 H   0  0  0  0  0  0  0  0  0  0  0  0
   -3.8176   -2.1292    0.6978 H   0  0  0  0  0  0  0  0  0  0  0  0
   -2.2264    1.3184   -2.5690 H   0  0  0  0  0  0  0  0  0  0  0  0
   -0.2844    0.1827   -3.5796 H   0  0  0  0  0  0  0  0  0  0  0  0
  1  2  1  0
  2  3  1  0
  3  4  1  0
  4  5  1  0
  5  6  1  0
  6  7  2  0
  6  8  1  0
  8  9  2  0
  9 10  1  0
 10 11  1  0
 11 12  2  0
 11 13  2  0
 11 14  1  0
 14 15  1  0
 15 16  1  0
 14 17  1  0
 17 18  1  0
 10 19  2  0
 19 20  1  0
 20 21  2  0
 21 22  1  0
 21  8  1  0
  1 23  1  0
  1 24  1  0
  1 25  1  0
  2 26  1  0
  2 27  1  0
  3 28  1  0
  3 29  1  0
  4 30  1  0
  4 31  1  0
  5 32  1  0
  9 33  1  0
 15 34  1  0
 15 35  1  0
 16 36  1  0
 16 37  1  0
 16 38  1  0
 17 39  1  0
 17 40  1  0
 18 41  1  0
 18 42  1  0
 18 43  1  0
 19 44  1  0
 20 45  1  0
M  END
$$$$
