
     RDKit          3D

 35 37  0  0  0  0  0  0  0  0999 V2000
   -1.5807    3.1345    0.8088 C   0  0  0  0  0  0  0  0  0  0  0  0
   -1.0214    1.8067    0.6485 N   0  0  0  0  0  0  0  0  0  0  0  0
    0.2103    1.5258    0.0858 C   0  0  0  0  0  0  0  0  0  0  0  0
    1.1463    2.5807   -0.3927 C   0  0  0  0  0  0  0  0  0  0  0  0
    0.4665    3.3082   -1.4042 O   0  0  0  0  0  0  0  0  0  0  0  0
    0.3529    0.1458    0.0972 C   0  0  0  0  0  0  0  0  0  0  0  0
    1.5198   -0.5478   -0.4164 C   0  0  0  0  0  0  0  0  0  0  0  0
    2.3988   -1.1874    0.4640 C   0  0  0  0  0  0  0  0  0  0  0  0
    3.5151   -1.8641   -0.0309 C   0  0  0  0  0  0  0  0  0  0  0  0
    3.7539   -1.9061   -1.4047 C   0  0  0  0  0  0  0  0  0  0  0  0
    2.8774   -1.2739   -2.2864 C   0  0  0  0  0  0  0  0  0  0  0  0
    1.7605   -0.5967   -1.7942 C   0  0  0  0  0  0  0  0  0  0  0  0
   -0.8180   -0.4185    0.6846 C   0  0  0  0  0  0  0  0  0  0  0  0
   -1.2307   -1.7425    0.9499 C   0  0  0  0  0  0  0  0  0  0  0  0
   -2.4862   -1.9575    1.5380 C   0  0  0  0  0  0  0  0  0  0  0  0
   -2.9218   -3.3309    1.8200 N   0  0  0  0  0  4  0  0  0  0  0  0
   -4.0603   -3.4918    2.2843 O   0  0  0  0  0  0  0  0  0  0  0  0
   -2.1269   -4.2518    1.5824 O   0  0  0  0  0  1  0  0  0  0  0  0
   -3.3283   -0.8889    1.8573 C   0  0  0  0  0  0  0  0  0  0  0  0
   -2.9307    0.4261    1.5967 C   0  0  0  0  0  0  0  0  0  0  0  0
   -1.6689    0.6389    1.0136 C   0  0  0  0  0  0  0  0  0  0  0  0
   -2.1151    3.3904   -0.1093 H   0  0  0  0  0  0  0  0  0  0  0  0
   -0.7806    3.8514    1.0047 H   0  0  0  0  0  0  0  0  0  0  0  0
   -2.2628    3.1455    1.6619 H   0  0  0  0  0  0  0  0  0  0  0  0
    1.4249    3.2617    0.4172 H   0  0  0  0  0  0  0  0  0  0  0  0
    2.0618    2.1610   -0.8184 H   0  0  0  0  0  0  0  0  0  0  0  0
    1.1417    3.8391   -1.8584 H   0  0  0  0  0  0  0  0  0  0  0  0
    2.2192   -1.1611    1.5361 H   0  0  0  0  0  0  0  0  0  0  0  0
    4.1962   -2.3612    0.6549 H   0  0  0  0  0  0  0  0  0  0  0  0
    4.6216   -2.4367   -1.7888 H   0  0  0  0  0  0  0  0  0  0  0  0
    3.0600   -1.3126   -3.3570 H   0  0  0  0  0  0  0  0  0  0  0  0
    1.0757   -0.1122   -2.4870 H   0  0  0  0  0  0  0  0  0  0  0  0
   -0.5747   -2.5689    0.6886 H   0  0  0  0  0  0  0  0  0  0  0  0
   -4.3040   -1.0579    2.3097 H   0  0  0  0  0  0  0  0  0  0  0  0
   -3.5915    1.2526    1.8403 H   0  0  0  0  0  0  0  0  0  0  0  0
  1  2  1  0
  2  3  1  0
  3  4  1  0
  4  5  1  0
  3  6  2  0
  6  7  1  0
  7  8  2  0
  8  9  1  0
  9 10  2  0
 10 11  1  0
 11 12  2  0
  6 13  1  0
 13 14  2  0
 14 15  1  0
 15 16  1  0
 16 17  2  0
 16 18  1  0
 15 19  2  0
 19 20  1  0
 20 21  2  0
 21  2  1  0
 12  7  1  0
 21 13  1  0
  1 22  1  0
  1 23  1  0
  1 24  1  0
  4 25  1  0
  4 26  1  0
  5 27  1  0
  8 28  1  0
  9 29  1  0
 10 30  1  0
 11 31  1  0
 12 32  1  0
 14 33  1  0
 19 34  1  0
 20 35  1  0
M  CHG  2  16   1  18  -1
M  END
$$$$
