
     RDKit          3D

 50 52  0  0  0  0  0  0  0  0999 V2000
    1.0283   -1.5443    1.6797 C   0  0  0  0  0  0  0  0  0  0  0  0
    0.0474   -1.0059    0.6153 C   0  0  0  0  0  0  0  0  0  0  0  0
   -0.0634   -2.0539   -0.5080 C   0  0  0  0  0  0  0  0  0  0  0  0
    0.5158    0.3721    0.0905 C   0  0  0  0  0  0  0  0  0  0  0  0
    1.8468    0.3535   -0.5637 C   0  0  0  0  0  0  0  0  0  0  0  0
    3.0362    0.5274   -0.0436 N   0  0  0  0  0  0  0  0  0  0  0  0
    3.8718    0.3994   -1.1382 C   0  0  0  0  0  0  0  0  0  0  0  0
    5.3325    0.5127   -1.0456 C   0  0  0  0  0  0  0  0  0  0  0  0
    6.1372    0.3752   -2.1793 C   0  0  0  0  0  0  0  0  0  0  0  0
    7.5227    0.4885   -2.0514 C   0  0  0  0  0  0  0  0  0  0  0  0
    8.0606    0.7350   -0.7979 C   0  0  0  0  0  0  0  0  0  0  0  0
    9.4014    0.8567   -0.6025 O   0  0  0  0  0  0  0  0  0  0  0  0
    7.2013    0.8597    0.2808 C   0  0  0  0  0  0  0  0  0  0  0  0
    5.8555    0.7546    0.1858 N   0  0  0  0  0  0  0  0  0  0  0  0
    3.2116    0.1605   -2.2887 N   0  0  0  0  0  0  0  0  0  0  0  0
    1.8726    0.1354   -1.9080 O   0  0  0  0  0  0  0  0  0  0  0  0
   -1.3379   -0.8109    1.2799 C   0  0  0  0  0  0  0  0  0  0  0  0
   -1.5029   -0.9911    2.4838 O   0  0  0  0  0  0  0  0  0  0  0  0
   -2.3391   -0.4083    0.4069 N   0  0  0  0  0  0  0  0  0  0  0  0
   -3.6714   -0.1207    0.6868 C   0  0  0  0  0  0  0  0  0  0  0  0
   -4.5450    0.1667   -0.3108 C   0  0  0  0  0  0  0  0  0  0  0  0
   -4.0871    0.2337   -1.7236 C   0  0  0  0  0  0  0  0  0  0  0  0
   -2.9601   -0.0149   -2.1230 O   0  0  0  0  0  0  0  0  0  0  0  0
   -5.0498    0.6280   -2.5708 O   0  0  0  0  0  0  0  0  0  0  0  0
   -6.0144    0.4183   -0.0654 C   0  0  0  0  0  0  0  0  0  0  0  0
   -6.4878    0.0025    1.3253 C   0  0  0  0  0  0  0  0  0  0  0  0
   -5.5040    0.4734    2.3805 C   0  0  0  0  0  0  0  0  0  0  0  0
   -4.1181   -0.1267    2.1382 C   0  0  0  0  0  0  0  0  0  0  0  0
    0.6511   -2.4696    2.1315 H   0  0  0  0  0  0  0  0  0  0  0  0
    2.0113   -1.7709    1.2535 H   0  0  0  0  0  0  0  0  0  0  0  0
    1.1723   -0.8198    2.4897 H   0  0  0  0  0  0  0  0  0  0  0  0
    0.9238   -2.3741   -0.8595 H   0  0  0  0  0  0  0  0  0  0  0  0
   -0.6073   -1.6698   -1.3772 H   0  0  0  0  0  0  0  0  0  0  0  0
   -0.5947   -2.9469   -0.1587 H   0  0  0  0  0  0  0  0  0  0  0  0
    0.5464    1.0894    0.9215 H   0  0  0  0  0  0  0  0  0  0  0  0
   -0.2090    0.7832   -0.6235 H   0  0  0  0  0  0  0  0  0  0  0  0
    5.6994    0.1819   -3.1543 H   0  0  0  0  0  0  0  0  0  0  0  0
    8.1513    0.3823   -2.9292 H   0  0  0  0  0  0  0  0  0  0  0  0
    9.8567    0.7418   -1.4532 H   0  0  0  0  0  0  0  0  0  0  0  0
    7.5833    1.0528    1.2788 H   0  0  0  0  0  0  0  0  0  0  0  0
   -2.0953   -0.3784   -0.5842 H   0  0  0  0  0  0  0  0  0  0  0  0
   -4.6162    0.6356   -3.4493 H   0  0  0  0  0  0  0  0  0  0  0  0
   -6.6241   -0.1260   -0.7968 H   0  0  0  0  0  0  0  0  0  0  0  0
   -6.2128    1.4883   -0.2081 H   0  0  0  0  0  0  0  0  0  0  0  0
   -7.4812    0.4226    1.5188 H   0  0  0  0  0  0  0  0  0  0  0  0
   -6.5871   -1.0894    1.3737 H   0  0  0  0  0  0  0  0  0  0  0  0
   -5.8571    0.1941    3.3797 H   0  0  0  0  0  0  0  0  0  0  0  0
   -5.4405    1.5690    2.3606 H   0  0  0  0  0  0  0  0  0  0  0  0
   -4.1151   -1.1626    2.5000 H   0  0  0  0  0  0  0  0  0  0  0  0
   -3.4164    0.4488    2.7530 H   0  0  0  0  0  0  0  0  0  0  0  0
  1  2  1  0
  2  3  1  0
  2  4  1  0
  4  5  1  0
  5  6  2  0
  6  7  1  0
  7  8  1  0
  8  9  2  0
  9 10  1  0
 10 11  2  0
 11 12  1  0
 11 13  1  0
 13 14  2  0
  7 15  2  0
 15 16  1  0
  2 17  1  0
 17 18  2  0
 17 19  1  0
 19 20  1  0
 20 21  2  0
 21 22  1  0
 22 23  2  0
 22 24  1  0
 21 25  1  0
 25 26  1  0
 26 27  1  0
 27 28  1  0
 16  5  1  0
 28 20  1  0
 14  8  1  0
  1 29  1  0
  1 30  1  0
  1 31  1  0
  3 32  1  0
  3 33  1  0
  3 34  1  0
  4 35  1  0
  4 36  1  0
  9 37  1  0
 10 38  1  0
 12 39  1  0
 13 40  1  0
 19 41  1  0
 24 42  1  0
 25 43  1  0
 25 44  1  0
 26 45  1  0
 26 46  1  0
 27 47  1  0
 27 48  1  0
 28 49  1  0
 28 50  1  0
M  END
$$$$
