
     RDKit          3D

 56 59  0  0  0  0  0  0  0  0999 V2000
    1.6562    2.5582    2.1221 C   0  0  0  0  0  0  0  0  0  0  0  0
    0.3785    1.9897    1.5692 C   0  0  0  0  0  0  0  0  0  0  0  0
   -0.6346    1.6186    2.4663 C   0  0  0  0  0  0  0  0  0  0  0  0
   -1.8288    1.0529    2.0117 C   0  0  0  0  0  0  0  0  0  0  0  0
   -2.0458    0.8275    0.6467 C   0  0  0  0  0  0  0  0  0  0  0  0
   -3.3474    0.2229    0.1234 C   0  0  2  0  0  0  0  0  0  0  0  0
   -4.1886   -0.1437    1.2214 O   0  0  0  0  0  0  0  0  0  0  0  0
   -5.5214   -0.5033    0.8339 C   0  0  2  0  0  0  0  0  0  0  0  0
   -6.1408   -1.2496    2.0217 C   0  0  0  0  0  0  0  0  0  0  0  0
   -7.5179   -1.5211    1.7854 O   0  0  0  0  0  0  0  0  0  0  0  0
   -5.5704   -1.3499   -0.4612 C   0  0  1  0  0  0  0  0  0  0  0  0
   -5.8327   -0.4920   -1.5879 O   0  0  0  0  0  0  0  0  0  0  0  0
   -4.2305   -2.0495   -0.7082 C   0  0  2  0  0  0  0  0  0  0  0  0
   -3.9564   -3.0074    0.3137 O   0  0  0  0  0  0  0  0  0  0  0  0
   -3.1054   -0.9981   -0.8107 C   0  0  1  0  0  0  0  0  0  0  0  0
   -3.0300   -0.5342   -2.1777 O   0  0  0  0  0  0  0  0  0  0  0  0
   -1.0307    1.2052   -0.2500 C   0  0  0  0  0  0  0  0  0  0  0  0
    0.1847    1.7697    0.1903 C   0  0  0  0  0  0  0  0  0  0  0  0
    1.2481    2.0910   -0.8452 C   0  0  0  0  0  0  0  0  0  0  0  0
    2.3971    1.1210   -0.8524 C   0  0  0  0  0  0  0  0  0  0  0  0
    2.3694   -0.2550   -0.7648 C   0  0  0  0  0  0  0  0  0  0  0  0
    3.6752   -0.8269   -0.8070 C   0  0  0  0  0  0  0  0  0  0  0  0
    4.6738    0.1210   -0.9348 C   0  0  0  0  0  0  0  0  0  0  0  0
    6.1282   -0.0831   -1.0243 C   0  0  0  0  0  0  0  0  0  0  0  0
    6.6394   -1.1711   -1.7522 C   0  0  0  0  0  0  0  0  0  0  0  0
    8.0170   -1.3962   -1.8327 C   0  0  0  0  0  0  0  0  0  0  0  0
    8.8898   -0.5327   -1.1850 C   0  0  0  0  0  0  0  0  0  0  0  0
   10.2085   -0.7489   -1.2591 F   0  0  0  0  0  0  0  0  0  0  0  0
    8.4127    0.5506   -0.4593 C   0  0  0  0  0  0  0  0  0  0  0  0
    7.0351    0.7732   -0.3766 C   0  0  0  0  0  0  0  0  0  0  0  0
    4.0016    1.6979   -1.0209 S   0  0  0  0  0  0  0  0  0  0  0  0
    2.0075    3.4018    1.5227 H   0  0  0  0  0  0  0  0  0  0  0  0
    2.4304    1.7871    2.1558 H   0  0  0  0  0  0  0  0  0  0  0  0
    1.5108    2.9427    3.1371 H   0  0  0  0  0  0  0  0  0  0  0  0
   -0.5011    1.7656    3.5367 H   0  0  0  0  0  0  0  0  0  0  0  0
   -2.5885    0.7855    2.7436 H   0  0  0  0  0  0  0  0  0  0  0  0
   -3.8478    1.0324   -0.4261 H   0  0  0  0  0  0  0  0  0  0  0  0
   -6.0853    0.4261    0.6797 H   0  0  0  0  0  0  0  0  0  0  0  0
   -6.0535   -0.6451    2.9328 H   0  0  0  0  0  0  0  0  0  0  0  0
   -5.6197   -2.1943    2.2106 H   0  0  0  0  0  0  0  0  0  0  0  0
   -7.8629   -1.9240    2.6031 H   0  0  0  0  0  0  0  0  0  0  0  0
   -6.3811   -2.0854   -0.4285 H   0  0  0  0  0  0  0  0  0  0  0  0
   -6.7474   -0.1636   -1.4774 H   0  0  0  0  0  0  0  0  0  0  0  0
   -4.2782   -2.5967   -1.6582 H   0  0  0  0  0  0  0  0  0  0  0  0
   -4.5263   -3.7824    0.1523 H   0  0  0  0  0  0  0  0  0  0  0  0
   -2.1463   -1.4791   -0.5868 H   0  0  0  0  0  0  0  0  0  0  0  0
   -3.9452   -0.2863   -2.4293 H   0  0  0  0  0  0  0  0  0  0  0  0
   -1.1798    1.0439   -1.3187 H   0  0  0  0  0  0  0  0  0  0  0  0
    1.5901    3.1207   -0.6873 H   0  0  0  0  0  0  0  0  0  0  0  0
    0.8003    2.0919   -1.8470 H   0  0  0  0  0  0  0  0  0  0  0  0
    1.4551   -0.8272   -0.6595 H   0  0  0  0  0  0  0  0  0  0  0  0
    3.8666   -1.8899   -0.7347 H   0  0  0  0  0  0  0  0  0  0  0  0
    5.9678   -1.8508   -2.2717 H   0  0  0  0  0  0  0  0  0  0  0  0
    8.4098   -2.2373   -2.3951 H   0  0  0  0  0  0  0  0  0  0  0  0
    9.1113    1.2121    0.0414 H   0  0  0  0  0  0  0  0  0  0  0  0
    6.6796    1.6156    0.2110 H   0  0  0  0  0  0  0  0  0  0  0  0
  1  2  1  0
  2  3  2  0
  3  4  1  0
  4  5  2  0
  5  6  1  0
  6  7  1  0
  7  8  1  0
  8  9  1  0
  9 10  1  0
  8 11  1  0
 11 12  1  0
 11 13  1  0
 13 14  1  0
 13 15  1  0
 15 16  1  0
  5 17  1  0
 17 18  2  0
 18 19  1  0
 19 20  1  0
 20 21  2  0
 21 22  1  0
 22 23  2  0
 23 24  1  0
 24 25  2  0
 25 26  1  0
 26 27  2  0
 27 28  1  0
 27 29  1  0
 29 30  2  0
 23 31  1  0
 18  2  1  0
 31 20  1  0
 15  6  1  0
 30 24  1  0
  1 32  1  0
  1 33  1  0
  1 34  1  0
  3 35  1  0
  4 36  1  0
  6 37  1  6
  8 38  1  6
  9 39  1  0
  9 40  1  0
 10 41  1  0
 11 42  1  1
 12 43  1  0
 13 44  1  6
 14 45  1  0
 15 46  1  1
 16 47  1  0
 17 48  1  0
 19 49  1  0
 19 50  1  0
 21 51  1  0
 22 52  1  0
 25 53  1  0
 26 54  1  0
 29 55  1  0
 30 56  1  0
M  END
$$$$
