
     RDKit          3D

 69 72  0  0  0  0  0  0  0  0999 V2000
    3.6423   -1.4412   -3.4294 C   0  0  0  0  0  0  0  0  0  0  0  0
    2.8881   -1.0938   -2.2252 N   0  0  0  0  0  0  0  0  0  0  0  0
    1.9859    0.0728   -2.2990 C   0  0  0  0  0  0  0  0  0  0  0  0
    2.2380    1.0720   -1.1625 C   0  0  0  0  0  0  0  0  0  0  0  0
    3.3005    0.9931   -0.5348 O   0  0  0  0  0  0  0  0  0  0  0  0
    1.2382    2.0369   -0.9148 N   0  0  0  0  0  0  0  0  0  0  0  0
   -0.0184    2.0419   -1.6920 C   0  0  0  0  0  0  0  0  0  0  0  0
   -1.0734    1.0497   -1.2487 C   0  0  0  0  0  0  0  0  0  0  0  0
   -2.1533    0.7831   -2.1030 C   0  0  0  0  0  0  0  0  0  0  0  0
   -3.1485   -0.1347   -1.7462 C   0  0  0  0  0  0  0  0  0  0  0  0
   -3.0897   -0.8069   -0.5217 C   0  0  0  0  0  0  0  0  0  0  0  0
   -4.1452   -1.8092   -0.0885 C   0  0  0  0  0  0  0  0  0  0  0  0
   -4.5354   -2.8263   -1.1727 C   0  0  0  0  0  0  0  0  0  0  0  0
   -5.4394   -3.9251   -0.5974 C   0  0  0  0  0  0  0  0  0  0  0  0
   -6.3115   -3.4513    0.5688 C   0  0  0  0  0  0  0  0  0  0  0  0
   -6.6501   -1.9712    0.4636 C   0  0  0  0  0  0  0  0  0  0  0  0
   -5.3951   -1.0904    0.4629 C   0  0  0  0  0  0  0  0  0  0  0  0
   -2.0240   -0.5214    0.3409 C   0  0  0  0  0  0  0  0  0  0  0  0
   -1.0299    0.3898   -0.0162 C   0  0  0  0  0  0  0  0  0  0  0  0
    1.3927    3.0501    0.1104 C   0  0  0  0  0  0  0  0  0  0  0  0
    2.6545    3.4839    0.5518 C   0  0  0  0  0  0  0  0  0  0  0  0
    2.7879    4.4782    1.5348 C   0  0  0  0  0  0  0  0  0  0  0  0
    1.6568    5.0634    2.1071 C   0  0  0  0  0  0  0  0  0  0  0  0
    1.8411    6.1122    3.1399 C   0  0  0  0  0  0  0  0  0  0  0  0
    2.9031    6.5842    3.5093 O   0  0  0  0  0  0  0  0  0  0  0  0
    0.6736    6.5272    3.6712 O   0  0  0  0  0  0  0  0  0  0  0  0
    0.3920    4.6490    1.6843 C   0  0  0  0  0  0  0  0  0  0  0  0
    0.2663    3.6614    0.6971 C   0  0  0  0  0  0  0  0  0  0  0  0
    2.6225   -2.2410   -1.0227 S   0  0  0  0  0  6  0  0  0  0  0  0
    1.3834   -1.9154   -0.3487 O   0  0  0  0  0  0  0  0  0  0  0  0
    2.7916   -3.5549   -1.6153 O   0  0  0  0  0  0  0  0  0  0  0  0
    3.9414   -1.9955    0.1072 C   0  0  0  0  0  0  0  0  0  0  0  0
    3.7250   -1.3757    1.3370 C   0  0  0  0  0  0  0  0  0  0  0  0
    2.5293   -0.8718    1.6775 F   0  0  0  0  0  0  0  0  0  0  0  0
    4.7656   -1.2698    2.2605 C   0  0  0  0  0  0  0  0  0  0  0  0
    4.5506   -0.6809    3.4459 F   0  0  0  0  0  0  0  0  0  0  0  0
    6.0184   -1.7920    1.9667 C   0  0  0  0  0  0  0  0  0  0  0  0
    7.0131   -1.7211    2.8689 F   0  0  0  0  0  0  0  0  0  0  0  0
    6.2336   -2.4142    0.7454 C   0  0  0  0  0  0  0  0  0  0  0  0
    7.4393   -2.9300    0.4585 F   0  0  0  0  0  0  0  0  0  0  0  0
    5.1979   -2.5197   -0.1823 C   0  0  0  0  0  0  0  0  0  0  0  0
    5.4489   -3.1399   -1.3440 F   0  0  0  0  0  0  0  0  0  0  0  0
    4.0942   -0.5411   -3.8664 H   0  0  0  0  0  0  0  0  0  0  0  0
    2.9759   -1.9023   -4.1673 H   0  0  0  0  0  0  0  0  0  0  0  0
    4.4655   -2.1281   -3.2107 H   0  0  0  0  0  0  0  0  0  0  0  0
    0.9593   -0.3025   -2.3116 H   0  0  0  0  0  0  0  0  0  0  0  0
    2.1533    0.6120   -3.2381 H   0  0  0  0  0  0  0  0  0  0  0  0
    0.2395    1.8372   -2.7382 H   0  0  0  0  0  0  0  0  0  0  0  0
   -0.4461    3.0504   -1.7060 H   0  0  0  0  0  0  0  0  0  0  0  0
   -2.2264    1.2834   -3.0655 H   0  0  0  0  0  0  0  0  0  0  0  0
   -3.9676   -0.3209   -2.4379 H   0  0  0  0  0  0  0  0  0  0  0  0
   -3.7123   -2.3962    0.7356 H   0  0  0  0  0  0  0  0  0  0  0  0
   -3.6489   -3.2870   -1.6262 H   0  0  0  0  0  0  0  0  0  0  0  0
   -5.0644   -2.3211   -1.9907 H   0  0  0  0  0  0  0  0  0  0  0  0
   -6.0754   -4.3210   -1.3980 H   0  0  0  0  0  0  0  0  0  0  0  0
   -4.8254   -4.7661   -0.2540 H   0  0  0  0  0  0  0  0  0  0  0  0
   -7.2290   -4.0495    0.6072 H   0  0  0  0  0  0  0  0  0  0  0  0
   -5.7823   -3.6299    1.5124 H   0  0  0  0  0  0  0  0  0  0  0  0
   -7.2150   -1.8024   -0.4604 H   0  0  0  0  0  0  0  0  0  0  0  0
   -7.3070   -1.6719    1.2898 H   0  0  0  0  0  0  0  0  0  0  0  0
   -5.6149   -0.1780   -0.1033 H   0  0  0  0  0  0  0  0  0  0  0  0
   -5.1816   -0.7540    1.4868 H   0  0  0  0  0  0  0  0  0  0  0  0
   -1.9409   -1.0223    1.3022 H   0  0  0  0  0  0  0  0  0  0  0  0
   -0.2151    0.5461    0.6863 H   0  0  0  0  0  0  0  0  0  0  0  0
    3.5768    3.0972    0.1257 H   0  0  0  0  0  0  0  0  0  0  0  0
    3.7841    4.7931    1.8428 H   0  0  0  0  0  0  0  0  0  0  0  0
    0.9526    7.1745    4.3529 H   0  0  0  0  0  0  0  0  0  0  0  0
   -0.5092    5.0826    2.1158 H   0  0  0  0  0  0  0  0  0  0  0  0
   -0.7472    3.3620    0.4370 H   0  0  0  0  0  0  0  0  0  0  0  0
  1  2  1  0
  2  3  1  0
  3  4  1  0
  4  5  2  0
  4  6  1  0
  6  7  1  0
  7  8  1  0
  8  9  2  0
  9 10  1  0
 10 11  2  0
 11 12  1  0
 12 13  1  0
 13 14  1  0
 14 15  1  0
 15 16  1  0
 16 17  1  0
 11 18  1  0
 18 19  2  0
  6 20  1  0
 20 21  2  0
 21 22  1  0
 22 23  2  0
 23 24  1  0
 24 25  2  0
 24 26  1  0
 23 27  1  0
 27 28  2  0
  2 29  1  0
 29 30  2  0
 29 31  2  0
 29 32  1  0
 32 33  2  0
 33 34  1  0
 33 35  1  0
 35 36  1  0
 35 37  2  0
 37 38  1  0
 37 39  1  0
 39 40  1  0
 39 41  2  0
 41 42  1  0
 19  8  1  0
 28 20  1  0
 41 32  1  0
 17 12  1  0
  1 43  1  0
  1 44  1  0
  1 45  1  0
  3 46  1  0
  3 47  1  0
  7 48  1  0
  7 49  1  0
  9 50  1  0
 10 51  1  0
 12 52  1  0
 13 53  1  0
 13 54  1  0
 14 55  1  0
 14 56  1  0
 15 57  1  0
 15 58  1  0
 16 59  1  0
 16 60  1  0
 17 61  1  0
 17 62  1  0
 18 63  1  0
 19 64  1  0
 21 65  1  0
 22 66  1  0
 26 67  1  0
 27 68  1  0
 28 69  1  0
M  END
$$$$
