
     RDKit          3D

 47 50  0  0  0  0  0  0  0  0999 V2000
    6.6260   -1.6574   -0.0909 C   0  0  0  0  0  0  0  0  0  0  0  0
    5.6992   -0.8142   -0.7607 O   0  0  0  0  0  0  0  0  0  0  0  0
    5.4217    0.4037   -0.0626 C   0  0  1  0  0  0  0  0  0  0  0  0
    4.8736    1.4060   -1.0851 C   0  0  0  0  0  0  0  0  0  0  0  0
    3.5049    0.9894   -1.6281 C   0  0  0  0  0  0  0  0  0  0  0  0
    2.4889    0.7687   -0.4953 C   0  0  1  0  0  0  0  0  0  0  0  0
    1.1431    0.3003   -1.0534 C   0  0  0  0  0  0  0  0  0  0  0  0
    1.0412   -0.1927   -2.1766 O   0  0  0  0  0  0  0  0  0  0  0  0
   -0.0969    0.4269   -0.2210 C   0  0  0  0  0  0  0  0  0  0  0  0
   -0.1322    1.0963    1.0030 C   0  0  0  0  0  0  0  0  0  0  0  0
   -1.3308    1.1770    1.7257 C   0  0  0  0  0  0  0  0  0  0  0  0
   -2.5087    0.6086    1.2627 C   0  0  0  0  0  0  0  0  0  0  0  0
   -3.6253    0.7203    1.9969 N   0  0  0  0  0  0  0  0  0  0  0  0
   -4.7608    0.1661    1.5242 C   0  0  0  0  0  0  0  0  0  0  0  0
   -4.8333   -0.5363    0.3269 C   0  0  0  0  0  0  0  0  0  0  0  0
   -3.6684   -0.6388   -0.4349 C   0  0  0  0  0  0  0  0  0  0  0  0
   -2.4779   -0.0652    0.0273 C   0  0  0  0  0  0  0  0  0  0  0  0
   -1.2792   -0.1504   -0.7046 C   0  0  0  0  0  0  0  0  0  0  0  0
   -6.1188   -1.1356   -0.1552 C   0  0  0  0  0  0  0  0  0  0  0  0
   -7.1400   -1.1944    0.9706 C   0  0  0  0  0  0  0  0  0  0  0  0
   -7.1036    0.1189    1.7328 C   0  0  0  0  0  0  0  0  0  0  0  0
   -5.8368    0.3290    2.3559 O   0  0  0  0  0  0  0  0  0  0  0  0
    3.0335   -0.2480    0.5158 C   0  0  0  0  0  0  0  0  0  0  0  0
    4.3998    0.1769    1.0577 C   0  0  0  0  0  0  0  0  0  0  0  0
    7.5753   -1.1370    0.0675 H   0  0  0  0  0  0  0  0  0  0  0  0
    6.8120   -2.5294   -0.7239 H   0  0  0  0  0  0  0  0  0  0  0  0
    6.2233   -2.0074    0.8628 H   0  0  0  0  0  0  0  0  0  0  0  0
    6.3537    0.8058    0.3533 H   0  0  0  0  0  0  0  0  0  0  0  0
    5.5704    1.4946   -1.9271 H   0  0  0  0  0  0  0  0  0  0  0  0
    4.7926    2.3961   -0.6202 H   0  0  0  0  0  0  0  0  0  0  0  0
    3.6140    0.0754   -2.2261 H   0  0  0  0  0  0  0  0  0  0  0  0
    3.1351    1.7625   -2.3130 H   0  0  0  0  0  0  0  0  0  0  0  0
    2.3451    1.7421   -0.0119 H   0  0  0  0  0  0  0  0  0  0  0  0
    0.7460    1.5692    1.4298 H   0  0  0  0  0  0  0  0  0  0  0  0
   -1.3470    1.7011    2.6795 H   0  0  0  0  0  0  0  0  0  0  0  0
   -3.6881   -1.1687   -1.3849 H   0  0  0  0  0  0  0  0  0  0  0  0
   -1.2682   -0.6741   -1.6601 H   0  0  0  0  0  0  0  0  0  0  0  0
   -5.9497   -2.1452   -0.5468 H   0  0  0  0  0  0  0  0  0  0  0  0
   -6.5065   -0.5168   -0.9738 H   0  0  0  0  0  0  0  0  0  0  0  0
   -6.8834   -2.0166    1.6507 H   0  0  0  0  0  0  0  0  0  0  0  0
   -8.1395   -1.3899    0.5689 H   0  0  0  0  0  0  0  0  0  0  0  0
   -7.3365    0.9730    1.0844 H   0  0  0  0  0  0  0  0  0  0  0  0
   -7.8564    0.1014    2.5281 H   0  0  0  0  0  0  0  0  0  0  0  0
    3.1112   -1.2372    0.0463 H   0  0  0  0  0  0  0  0  0  0  0  0
    2.3412   -0.3670    1.3567 H   0  0  0  0  0  0  0  0  0  0  0  0
    4.2845    1.1032    1.6344 H   0  0  0  0  0  0  0  0  0  0  0  0
    4.7519   -0.5900    1.7551 H   0  0  0  0  0  0  0  0  0  0  0  0
  1  2  1  0
  2  3  1  0
  3  4  1  0
  4  5  1  0
  5  6  1  0
  6  7  1  0
  7  8  2  0
  7  9  1  0
  9 10  2  0
 10 11  1  0
 11 12  2  0
 12 13  1  0
 13 14  2  0
 14 15  1  0
 15 16  2  0
 16 17  1  0
 17 18  2  0
 15 19  1  0
 19 20  1  0
 20 21  1  0
 21 22  1  0
  6 23  1  0
 23 24  1  0
 24  3  1  0
 18  9  1  0
 17 12  1  0
 22 14  1  0
  1 25  1  0
  1 26  1  0
  1 27  1  0
  3 28  1  1
  4 29  1  0
  4 30  1  0
  5 31  1  0
  5 32  1  0
  6 33  1  1
 10 34  1  0
 11 35  1  0
 16 36  1  0
 18 37  1  0
 19 38  1  0
 19 39  1  0
 20 40  1  0
 20 41  1  0
 21 42  1  0
 21 43  1  0
 23 44  1  0
 23 45  1  0
 24 46  1  0
 24 47  1  0
M  END
$$$$
