
     RDKit          3D

 54 55  0  0  0  0  0  0  0  0999 V2000
   -1.3492   -0.4650   -1.6364 C   0  0  0  0  0  0  0  0  0  0  0  0
   -0.8584   -1.0966   -0.4257 N   0  0  0  0  0  0  0  0  0  0  0  0
   -1.5891   -2.2175   -0.0127 C   0  0  2  0  0  0  0  0  0  0  0  0
   -2.3730   -2.0323    1.2650 C   0  0  0  0  0  0  0  0  0  0  0  0
   -3.3874   -0.9455    1.2211 C   0  0  2  0  0  0  0  0  0  0  0  0
   -4.2534   -1.2796    0.1643 O   0  0  0  0  0  0  0  0  0  0  0  0
   -2.9728    0.4185    1.0928 C   0  0  0  0  0  0  0  0  0  0  0  0
   -1.7611    0.9084    1.4717 C   0  0  0  0  0  0  0  0  0  0  0  0
   -1.4190    2.2461    1.2971 C   0  0  0  0  0  0  0  0  0  0  0  0
   -2.3269    3.1198    0.7226 C   0  0  0  0  0  0  0  0  0  0  0  0
   -3.5546    2.6433    0.3349 C   0  0  0  0  0  0  0  0  0  0  0  0
   -3.8839    1.3161    0.5119 C   0  0  0  0  0  0  0  0  0  0  0  0
   -0.8606   -3.5293   -0.0173 C   0  0  0  0  0  0  0  0  0  0  0  0
    0.5660   -3.5112    0.3451 C   0  0  0  0  0  0  0  0  0  0  0  0
    1.0453   -2.1122    0.6555 C   0  0  0  0  0  0  0  0  0  0  0  0
    0.5729   -1.2700   -0.5358 C   0  0  2  0  0  0  0  0  0  0  0  0
    1.2912    0.0395   -0.6386 C   0  0  0  0  0  0  0  0  0  0  0  0
    2.7409   -0.0347   -0.7824 C   0  0  0  0  0  0  0  0  0  0  0  0
    3.3363   -1.1231   -0.8979 O   0  0  0  0  0  0  0  0  0  0  0  0
    3.5313    1.1950   -0.7931 C   0  0  0  0  0  0  0  0  0  0  0  0
    2.9175    2.4223   -0.6681 C   0  0  0  0  0  0  0  0  0  0  0  0
    3.6487    3.5890   -0.6765 C   0  0  0  0  0  0  0  0  0  0  0  0
    5.0190    3.5600   -0.8106 C   0  0  0  0  0  0  0  0  0  0  0  0
    5.6199    2.3420   -0.9338 C   0  0  0  0  0  0  0  0  0  0  0  0
    4.9134    1.1626   -0.9285 C   0  0  0  0  0  0  0  0  0  0  0  0
    0.6921    0.0000    0.0000 Cl  0  0  0  0  0  0  0  0  0  0  0  0
   -2.2471   -0.9948   -2.0375 H   0  0  0  0  0  0  0  0  0  0  0  0
   -1.5874    0.5992   -1.4424 H   0  0  0  0  0  0  0  0  0  0  0  0
   -0.5499   -0.5089   -2.3936 H   0  0  0  0  0  0  0  0  0  0  0  0
   -2.4039   -2.3566   -0.7982 H   0  0  0  0  0  0  0  0  0  0  0  0
   -2.9699   -2.9921    1.3689 H   0  0  0  0  0  0  0  0  0  0  0  0
   -1.7228   -2.0343    2.1397 H   0  0  0  0  0  0  0  0  0  0  0  0
   -4.0588   -1.0143    2.1334 H   0  0  0  0  0  0  0  0  0  0  0  0
   -4.1482   -0.6935   -0.6245 H   0  0  0  0  0  0  0  0  0  0  0  0
   -1.0699    0.2228    1.9329 H   0  0  0  0  0  0  0  0  0  0  0  0
   -0.4348    2.5637    1.6232 H   0  0  0  0  0  0  0  0  0  0  0  0
   -2.0297    4.1635    0.5985 H   0  0  0  0  0  0  0  0  0  0  0  0
   -4.2418    3.3572   -0.1119 H   0  0  0  0  0  0  0  0  0  0  0  0
   -4.8622    1.0254    0.1838 H   0  0  0  0  0  0  0  0  0  0  0  0
   -1.0029   -4.0981   -0.9760 H   0  0  0  0  0  0  0  0  0  0  0  0
   -1.3884   -4.1790    0.7450 H   0  0  0  0  0  0  0  0  0  0  0  0
    0.8377   -4.2080    1.1766 H   0  0  0  0  0  0  0  0  0  0  0  0
    1.1751   -3.8465   -0.5419 H   0  0  0  0  0  0  0  0  0  0  0  0
    2.1307   -2.0669    0.7515 H   0  0  0  0  0  0  0  0  0  0  0  0
    0.5625   -1.7132    1.5753 H   0  0  0  0  0  0  0  0  0  0  0  0
    0.7780   -1.8628   -1.4405 H   0  0  0  0  0  0  0  0  0  0  0  0
    1.0912    0.6857    0.2591 H   0  0  0  0  0  0  0  0  0  0  0  0
    0.8822    0.6325   -1.4908 H   0  0  0  0  0  0  0  0  0  0  0  0
    1.8313    2.4612   -0.5608 H   0  0  0  0  0  0  0  0  0  0  0  0
    3.1562    4.5614   -0.5767 H   0  0  0  0  0  0  0  0  0  0  0  0
    5.6051    4.4748   -0.8184 H   0  0  0  0  0  0  0  0  0  0  0  0
    6.6945    2.2875   -1.0409 H   0  0  0  0  0  0  0  0  0  0  0  0
    5.3603    0.1887   -1.0232 H   0  0  0  0  0  0  0  0  0  0  0  0
   -0.6921    0.0000    0.0000 H   0  0  0  0  0  0  0  0  0  0  0  0
  1  2  1  0
  2  3  1  0
  3  4  1  0
  4  5  1  0
  5  6  1  0
  5  7  1  0
  7  8  2  0
  8  9  1  0
  9 10  2  0
 10 11  1  0
 11 12  2  0
  3 13  1  0
 13 14  1  0
 14 15  1  0
 15 16  1  0
 16 17  1  0
 17 18  1  0
 18 19  2  0
 18 20  1  0
 20 21  2  0
 21 22  1  0
 22 23  2  0
 23 24  1  0
 24 25  2  0
 16  2  1  0
 25 20  1  0
 12  7  1  0
  1 27  1  0
  1 28  1  0
  1 29  1  0
  3 30  1  6
  4 31  1  0
  4 32  1  0
  5 33  1  1
  6 34  1  0
  8 35  1  0
  9 36  1  0
 10 37  1  0
 11 38  1  0
 12 39  1  0
 13 40  1  0
 13 41  1  0
 14 42  1  0
 14 43  1  0
 15 44  1  0
 15 45  1  0
 16 46  1  6
 17 47  1  0
 17 48  1  0
 21 49  1  0
 22 50  1  0
 23 51  1  0
 24 52  1  0
 25 53  1  0
 26 54  1  0
M  END
$$$$
