
     RDKit          3D

 75 80  0  0  0  0  0  0  0  0999 V2000
   -5.1806   -0.0334   -3.8460 C   0  0  0  0  0  0  0  0  0  0  0  0
   -4.9450    0.4866   -2.4364 C   0  0  0  0  0  0  0  0  0  0  0  0
   -3.4987    0.5147   -2.0843 C   0  0  0  0  0  0  0  0  0  0  0  0
   -2.7509    1.6305   -2.3897 N   0  0  0  0  0  0  0  0  0  0  0  0
   -1.5297    1.3638   -1.9779 C   0  0  0  0  0  0  0  0  0  0  0  0
   -0.3336    2.1506   -2.0457 C   0  0  0  0  0  0  0  0  0  0  0  0
   -0.2989    3.5036   -2.7067 C   0  0  0  0  0  0  0  0  0  0  0  0
    0.7929    1.6273   -1.5056 C   0  0  0  0  0  0  0  0  0  0  0  0
    0.8594    0.3187   -0.8417 C   0  0  0  0  0  0  0  0  0  0  0  0
    2.0834   -0.0919   -0.3048 N   0  0  0  0  0  0  0  0  0  0  0  0
    2.8559    0.8052    0.5952 C   0  0  0  0  0  0  0  0  0  0  0  0
    4.3668    0.4958    0.5077 C   0  0  0  0  0  0  0  0  0  0  0  0
    4.6824   -0.9135    0.8285 N   0  0  0  0  0  0  0  0  0  0  0  0
    6.1219   -1.2109    0.6648 C   0  0  0  0  0  0  0  0  0  0  0  0
    6.9867   -0.4203    1.6571 C   0  0  0  0  0  0  0  0  0  0  0  0
    6.8541   -0.5166    2.8780 O   0  0  0  0  0  0  0  0  0  0  0  0
    7.9405    0.3985    1.1028 N   0  0  0  0  0  0  0  0  0  0  0  0
    8.6268    1.4951    1.7707 C   0  0  0  0  0  0  0  0  0  0  0  0
    9.1126    1.9310    0.3748 C   0  0  0  0  0  0  0  0  0  0  0  0
    8.9904    3.3321    0.0471 O   0  0  0  0  0  0  0  0  0  0  0  0
    8.0351    0.9998   -0.2160 C   0  0  0  0  0  0  0  0  0  0  0  0
    3.8780   -1.8026   -0.0369 C   0  0  0  0  0  0  0  0  0  0  0  0
    2.3600   -1.5113    0.0209 C   0  0  0  0  0  0  0  0  0  0  0  0
   -0.2757   -0.4079   -0.8424 C   0  0  0  0  0  0  0  0  0  0  0  0
   -1.4446    0.1020   -1.4058 N   0  0  0  0  0  0  0  0  0  0  0  0
   -2.7043   -0.4703   -1.5150 C   0  0  0  0  0  0  0  0  0  0  0  0
   -2.9643   -1.7540   -1.0997 N   0  0  0  0  0  0  0  0  0  0  0  0
   -2.5236   -2.8067   -2.0218 C   0  0  0  0  0  0  0  0  0  0  0  0
   -3.9479   -2.0340   -0.1764 C   0  0  0  0  0  0  0  0  0  0  0  0
   -4.5271   -1.1132    0.5684 N   0  0  0  0  0  0  0  0  0  0  0  0
   -5.4886   -1.6439    1.4133 C   0  0  0  0  0  0  0  0  0  0  0  0
   -6.2322   -0.7496    2.2961 C   0  0  0  0  0  0  0  0  0  0  0  0
   -7.6097   -0.8920    2.5213 C   0  0  0  0  0  0  0  0  0  0  0  0
   -8.2815   -0.0051    3.3681 C   0  0  0  0  0  0  0  0  0  0  0  0
   -7.5835    1.0314    3.9759 C   0  0  0  0  0  0  0  0  0  0  0  0
   -8.2326    1.8802    4.7832 F   0  0  0  0  0  0  0  0  0  0  0  0
   -6.2246    1.2035    3.7505 C   0  0  0  0  0  0  0  0  0  0  0  0
   -5.5513    0.3165    2.9076 C   0  0  0  0  0  0  0  0  0  0  0  0
   -5.6035   -3.0172    1.3515 C   0  0  0  0  0  0  0  0  0  0  0  0
   -6.4445   -3.8609    2.1305 C   0  0  0  0  0  0  0  0  0  0  0  0
   -7.1413   -4.5494    2.7532 N   0  0  0  0  0  0  0  0  0  0  0  0
   -4.5301   -3.6314    0.1687 S   0  0  0  0  0  0  0  0  0  0  0  0
   -4.8043   -1.0558   -3.9598 H   0  0  0  0  0  0  0  0  0  0  0  0
   -6.2511   -0.0371   -4.0743 H   0  0  0  0  0  0  0  0  0  0  0  0
   -4.6760    0.5941   -4.5880 H   0  0  0  0  0  0  0  0  0  0  0  0
   -5.5046   -0.1296   -1.7271 H   0  0  0  0  0  0  0  0  0  0  0  0
   -5.3548    1.4999   -2.3525 H   0  0  0  0  0  0  0  0  0  0  0  0
   -0.6074    3.4208   -3.7542 H   0  0  0  0  0  0  0  0  0  0  0  0
   -0.9825    4.1907   -2.1973 H   0  0  0  0  0  0  0  0  0  0  0  0
    0.7001    3.9519   -2.6883 H   0  0  0  0  0  0  0  0  0  0  0  0
    1.7241    2.1796   -1.5844 H   0  0  0  0  0  0  0  0  0  0  0  0
    2.5029    0.6699    1.6260 H   0  0  0  0  0  0  0  0  0  0  0  0
    2.7084    1.8619    0.3472 H   0  0  0  0  0  0  0  0  0  0  0  0
    4.7159    0.7423   -0.5045 H   0  0  0  0  0  0  0  0  0  0  0  0
    4.8822    1.1630    1.2082 H   0  0  0  0  0  0  0  0  0  0  0  0
    6.4439   -1.0409   -0.3681 H   0  0  0  0  0  0  0  0  0  0  0  0
    6.3097   -2.2688    0.8875 H   0  0  0  0  0  0  0  0  0  0  0  0
    9.4133    1.1675    2.4549 H   0  0  0  0  0  0  0  0  0  0  0  0
    7.9467    2.1903    2.2722 H   0  0  0  0  0  0  0  0  0  0  0  0
   10.1302    1.5818    0.1544 H   0  0  0  0  0  0  0  0  0  0  0  0
    9.6807    3.7762    0.5699 H   0  0  0  0  0  0  0  0  0  0  0  0
    8.3923    0.3155   -0.9899 H   0  0  0  0  0  0  0  0  0  0  0  0
    7.1152    1.4966   -0.5376 H   0  0  0  0  0  0  0  0  0  0  0  0
    4.0349   -2.8444    0.2678 H   0  0  0  0  0  0  0  0  0  0  0  0
    4.2109   -1.7111   -1.0797 H   0  0  0  0  0  0  0  0  0  0  0  0
    1.9649   -1.7453    1.0169 H   0  0  0  0  0  0  0  0  0  0  0  0
    1.8675   -2.1741   -0.7001 H   0  0  0  0  0  0  0  0  0  0  0  0
   -0.3532   -1.3849   -0.3886 H   0  0  0  0  0  0  0  0  0  0  0  0
   -2.1653   -3.6883   -1.4788 H   0  0  0  0  0  0  0  0  0  0  0  0
   -1.6873   -2.4769   -2.6505 H   0  0  0  0  0  0  0  0  0  0  0  0
   -3.3369   -3.0989   -2.6948 H   0  0  0  0  0  0  0  0  0  0  0  0
   -8.1876   -1.6736    2.0345 H   0  0  0  0  0  0  0  0  0  0  0  0
   -9.3463   -0.1130    3.5503 H   0  0  0  0  0  0  0  0  0  0  0  0
   -5.6969    2.0259    4.2229 H   0  0  0  0  0  0  0  0  0  0  0  0
   -4.4879    0.4640    2.7229 H   0  0  0  0  0  0  0  0  0  0  0  0
  1  2  1  0
  2  3  1  0
  3  4  1  0
  4  5  2  0
  5  6  1  0
  6  7  1  0
  6  8  2  0
  8  9  1  0
  9 10  1  0
 10 11  1  0
 11 12  1  0
 12 13  1  0
 13 14  1  0
 14 15  1  0
 15 16  2  0
 15 17  1  0
 17 18  1  0
 18 19  1  0
 19 20  1  0
 19 21  1  0
 13 22  1  0
 22 23  1  0
  9 24  2  0
 24 25  1  0
 25 26  1  0
 26 27  1  0
 27 28  1  0
 27 29  1  0
 29 30  2  0
 30 31  1  0
 31 32  1  0
 32 33  2  0
 33 34  1  0
 34 35  2  0
 35 36  1  0
 35 37  1  0
 37 38  2  0
 31 39  2  0
 39 40  1  0
 40 41  3  0
 39 42  1  0
 26  3  2  0
 42 29  1  0
 25  5  1  0
 38 32  1  0
 23 10  1  0
 21 17  1  0
  1 43  1  0
  1 44  1  0
  1 45  1  0
  2 46  1  0
  2 47  1  0
  7 48  1  0
  7 49  1  0
  7 50  1  0
  8 51  1  0
 11 52  1  0
 11 53  1  0
 12 54  1  0
 12 55  1  0
 14 56  1  0
 14 57  1  0
 18 58  1  0
 18 59  1  0
 19 60  1  0
 20 61  1  0
 21 62  1  0
 21 63  1  0
 22 64  1  0
 22 65  1  0
 23 66  1  0
 23 67  1  0
 24 68  1  0
 28 69  1  0
 28 70  1  0
 28 71  1  0
 33 72  1  0
 34 73  1  0
 37 74  1  0
 38 75  1  0
M  END
$$$$
