
     RDKit          3D

 37 38  0  0  0  0  0  0  0  0999 V2000
    3.8005   -3.0358    0.0729 C   0  0  0  0  0  0  0  0  0  0  0  0
    2.5214   -2.6135    0.5294 O   0  0  0  0  0  0  0  0  0  0  0  0
    2.1535   -1.3295    0.2399 C   0  0  0  0  0  0  0  0  0  0  0  0
    2.9515   -0.3639   -0.3688 C   0  0  0  0  0  0  0  0  0  0  0  0
    2.4532    0.9251   -0.6015 C   0  0  0  0  0  0  0  0  0  0  0  0
    1.1486    1.2627   -0.2306 C   0  0  0  0  0  0  0  0  0  0  0  0
    0.5771    2.4946   -0.4203 O   0  0  0  0  0  0  0  0  0  0  0  0
    1.3711    3.5002   -1.0369 C   0  0  0  0  0  0  0  0  0  0  0  0
    0.3343    0.2862    0.3764 C   0  0  0  0  0  0  0  0  0  0  0  0
   -1.0493    0.5850    0.8070 C   0  0  0  0  0  0  0  0  0  0  0  0
   -1.1872    1.0779    2.0449 C   0  0  0  0  0  0  0  0  0  0  0  0
   -2.5220    1.4015    2.5474 C   0  0  0  0  0  0  0  0  0  0  0  0
   -2.6901    1.8599    3.6703 O   0  0  0  0  0  0  0  0  0  0  0  0
   -3.5493    1.1417    1.6903 N   0  0  0  0  0  0  0  0  0  0  0  0
   -3.4464    0.6313    0.4203 C   0  0  0  0  0  0  0  0  0  0  0  0
   -4.8829    0.3710   -0.4029 S   0  0  0  0  0  0  0  0  0  0  0  0
   -2.1495    0.3598   -0.0321 N   0  0  0  0  0  0  0  0  0  0  0  0
   -1.9108   -0.1358   -1.4148 C   0  0  0  0  0  0  0  0  0  0  0  0
   -1.8397   -1.6602   -1.5552 C   0  0  0  0  0  0  0  0  0  0  0  0
   -2.2370   -2.4105   -0.4864 N   0  0  0  0  0  0  0  0  0  0  0  0
   -1.4887   -2.2117   -2.5958 O   0  0  0  0  0  0  0  0  0  0  0  0
    0.8512   -0.9976    0.6150 C   0  0  0  0  0  0  0  0  0  0  0  0
    3.8788   -2.9559   -1.0165 H   0  0  0  0  0  0  0  0  0  0  0  0
    3.9190   -4.0905    0.3390 H   0  0  0  0  0  0  0  0  0  0  0  0
    4.5994   -2.4753    0.5693 H   0  0  0  0  0  0  0  0  0  0  0  0
    3.9713   -0.5771   -0.6735 H   0  0  0  0  0  0  0  0  0  0  0  0
    3.1160    1.6412   -1.0766 H   0  0  0  0  0  0  0  0  0  0  0  0
    1.6552    3.2099   -2.0537 H   0  0  0  0  0  0  0  0  0  0  0  0
    2.2515    3.7352   -0.4300 H   0  0  0  0  0  0  0  0  0  0  0  0
    0.7641    4.4079   -1.1077 H   0  0  0  0  0  0  0  0  0  0  0  0
   -0.3569    1.2679    2.7138 H   0  0  0  0  0  0  0  0  0  0  0  0
   -4.4742    1.3581    2.0347 H   0  0  0  0  0  0  0  0  0  0  0  0
   -0.9860    0.2923   -1.8133 H   0  0  0  0  0  0  0  0  0  0  0  0
   -2.7058    0.2129   -2.0806 H   0  0  0  0  0  0  0  0  0  0  0  0
   -2.3019   -3.4098   -0.6302 H   0  0  0  0  0  0  0  0  0  0  0  0
   -2.7745   -1.9991    0.2637 H   0  0  0  0  0  0  0  0  0  0  0  0
    0.2344   -1.7559    1.0933 H   0  0  0  0  0  0  0  0  0  0  0  0
  1  2  1  0
  2  3  1  0
  3  4  2  0
  4  5  1  0
  5  6  2  0
  6  7  1  0
  7  8  1  0
  6  9  1  0
  9 10  1  0
 10 11  2  0
 11 12  1  0
 12 13  2  0
 12 14  1  0
 14 15  1  0
 15 16  2  0
 15 17  1  0
 17 18  1  0
 18 19  1  0
 19 20  1  0
 19 21  2  0
  9 22  2  0
 22  3  1  0
 17 10  1  0
  1 23  1  0
  1 24  1  0
  1 25  1  0
  4 26  1  0
  5 27  1  0
  8 28  1  0
  8 29  1  0
  8 30  1  0
 11 31  1  0
 14 32  1  0
 18 33  1  0
 18 34  1  0
 20 35  1  0
 20 36  1  0
 22 37  1  0
M  END
$$$$
