
     RDKit          3D

 47 48  0  0  0  0  0  0  0  0999 V2000
    4.3255    1.9114   -0.0222 C   0  0  0  0  0  0  0  0  0  0  0  0
    4.1747    0.5004   -0.0093 N   0  0  0  0  0  0  0  0  0  0  0  0
    5.3628   -0.1096    0.5341 C   0  0  0  0  0  0  0  0  0  0  0  0
    3.0278   -0.0399    0.6195 C   0  0  0  0  0  0  0  0  0  0  0  0
    1.7344    0.2758   -0.1763 C   0  0  0  0  0  0  0  0  0  0  0  0
    0.6329   -0.3216    0.5503 C   0  0  0  0  0  0  0  0  0  0  0  0
   -0.7106   -0.2810    0.1685 N   0  0  0  0  0  0  0  0  0  0  0  0
   -1.4620    0.9139    0.3227 C   0  0  0  0  0  0  0  0  0  0  0  0
   -0.7543    1.8970    0.9439 C   0  0  0  0  0  0  0  0  0  0  0  0
   -1.2877    3.1601    1.2177 C   0  0  0  0  0  0  0  0  0  0  0  0
   -2.5758    3.4012    0.8392 C   0  0  0  0  0  0  0  0  0  0  0  0
   -3.3372    2.4483    0.2100 C   0  0  0  0  0  0  0  0  0  0  0  0
   -2.7836    1.2103   -0.0474 C   0  0  0  0  0  0  0  0  0  0  0  0
   -3.7545    0.3254   -0.7296 C   0  0  0  0  0  0  0  0  0  0  0  0
   -3.8011   -1.0164   -0.0282 C   0  0  0  0  0  0  0  0  0  0  0  0
   -2.6468   -1.8291   -0.4736 C   0  0  0  0  0  0  0  0  0  0  0  0
   -3.0448   -3.0138   -1.0334 C   0  0  0  0  0  0  0  0  0  0  0  0
   -2.0825   -3.8974   -1.5519 C   0  0  0  0  0  0  0  0  0  0  0  0
   -0.7607   -3.5421   -1.4810 C   0  0  0  0  0  0  0  0  0  0  0  0
   -0.3836   -2.3273   -0.9045 C   0  0  0  0  0  0  0  0  0  0  0  0
   -1.3163   -1.4679   -0.3986 C   0  0  0  0  0  0  0  0  0  0  0  0
    0.6855    0.0000    0.0000 Cl  0  0  0  0  0  0  0  0  0  0  0  0
    4.7230    2.1836   -1.0465 H   0  0  0  0  0  0  0  0  0  0  0  0
    5.1637    2.2504    0.6584 H   0  0  0  0  0  0  0  0  0  0  0  0
    3.4383    2.5213    0.1189 H   0  0  0  0  0  0  0  0  0  0  0  0
    5.3820   -0.1715    1.6398 H   0  0  0  0  0  0  0  0  0  0  0  0
    6.2858    0.4539    0.2572 H   0  0  0  0  0  0  0  0  0  0  0  0
    5.4884   -1.1651    0.1642 H   0  0  0  0  0  0  0  0  0  0  0  0
    3.1538   -1.1408    0.6910 H   0  0  0  0  0  0  0  0  0  0  0  0
    2.8908    0.2939    1.6801 H   0  0  0  0  0  0  0  0  0  0  0  0
    1.8814   -0.0897   -1.2373 H   0  0  0  0  0  0  0  0  0  0  0  0
    1.8438    1.3593   -0.2973 H   0  0  0  0  0  0  0  0  0  0  0  0
    0.7917   -0.0103    1.6601 H   0  0  0  0  0  0  0  0  0  0  0  0
    0.8941   -1.4147    0.8179 H   0  0  0  0  0  0  0  0  0  0  0  0
    0.2495    1.6738    1.2344 H   0  0  0  0  0  0  0  0  0  0  0  0
   -0.6471    3.8623    1.7108 H   0  0  0  0  0  0  0  0  0  0  0  0
   -3.0066    4.3738    1.0430 H   0  0  0  0  0  0  0  0  0  0  0  0
   -4.3621    2.6187   -0.0990 H   0  0  0  0  0  0  0  0  0  0  0  0
   -3.5495    0.2078   -1.7991 H   0  0  0  0  0  0  0  0  0  0  0  0
   -4.7686    0.7646   -0.6363 H   0  0  0  0  0  0  0  0  0  0  0  0
   -3.8410   -0.8558    1.0489 H   0  0  0  0  0  0  0  0  0  0  0  0
   -4.7536   -1.5070   -0.3150 H   0  0  0  0  0  0  0  0  0  0  0  0
   -4.0633   -3.3297   -1.1108 H   0  0  0  0  0  0  0  0  0  0  0  0
   -2.3776   -4.8361   -1.9973 H   0  0  0  0  0  0  0  0  0  0  0  0
    0.0032   -4.1954   -1.8697 H   0  0  0  0  0  0  0  0  0  0  0  0
    0.6232   -2.0448   -0.8661 H   0  0  0  0  0  0  0  0  0  0  0  0
   -0.6855    0.0000    0.0000 H   0  0  0  0  0  0  0  0  0  0  0  0
  1  2  1  0
  2  3  1  0
  2  4  1  0
  4  5  1  0
  5  6  1  0
  6  7  1  0
  7  8  1  0
  8  9  2  0
  9 10  1  0
 10 11  2  0
 11 12  1  0
 12 13  2  0
 13 14  1  0
 14 15  1  0
 15 16  1  0
 16 17  2  0
 17 18  1  0
 18 19  2  0
 19 20  1  0
 20 21  2  0
 21  7  1  0
 13  8  1  0
 21 16  1  0
  1 23  1  0
  1 24  1  0
  1 25  1  0
  3 26  1  0
  3 27  1  0
  3 28  1  0
  4 29  1  0
  4 30  1  0
  5 31  1  0
  5 32  1  0
  6 33  1  0
  6 34  1  0
  9 35  1  0
 10 36  1  0
 11 37  1  0
 12 38  1  0
 14 39  1  0
 14 40  1  0
 15 41  1  0
 15 42  1  0
 17 43  1  0
 18 44  1  0
 19 45  1  0
 20 46  1  0
 22 47  1  0
M  END
$$$$
