
     RDKit          3D

 26 28  0  0  0  0  0  0  0  0999 V2000
   -0.3089    2.9969   -1.8762 N   0  0  0  0  0  0  0  0  0  0  0  0
   -0.9060    1.8464   -1.4001 C   0  0  0  0  0  0  0  0  0  0  0  0
   -0.1595    0.7303   -1.4363 N   0  0  0  0  0  0  0  0  0  0  0  0
   -0.6852   -0.4262   -0.9563 C   0  0  0  0  0  0  0  0  0  0  0  0
    0.0507   -1.5941   -0.9769 O   0  0  0  0  0  0  0  0  0  0  0  0
    1.4174   -1.4329   -1.3617 C   0  0  0  0  0  0  0  0  0  0  0  0
    2.2227   -1.0488   -0.1540 C   0  0  0  0  0  0  0  0  0  0  0  0
    2.1459   -1.5562    1.1311 C   0  0  0  0  0  0  0  0  0  0  0  0
    3.0798   -0.9365    1.9959 C   0  0  0  0  0  0  0  0  0  0  0  0
    3.2153   -1.4024    3.8176 Br  0  0  0  0  0  0  0  0  0  0  0  0
    3.8502    0.0118    1.3732 C   0  0  0  0  0  0  0  0  0  0  0  0
    3.4384    0.1571   -0.2819 S   0  0  0  0  0  0  0  0  0  0  0  0
   -1.9826   -0.4247   -0.4432 C   0  0  0  0  0  0  0  0  0  0  0  0
   -2.8023   -1.3902    0.1052 N   0  0  0  0  0  0  0  0  0  0  0  0
   -3.9184   -0.7594    0.4045 C   0  0  0  0  0  0  0  0  0  0  0  0
   -3.8563    0.5678    0.0782 N   0  0  0  0  0  0  0  0  0  0  0  0
   -2.6256    0.7991   -0.4631 C   0  0  0  0  0  0  0  0  0  0  0  0
   -2.1505    1.9672   -0.9133 N   0  0  0  0  0  0  0  0  0  0  0  0
   -0.7234    3.8083   -1.4403 H   0  0  0  0  0  0  0  0  0  0  0  0
    0.6965    2.9052   -1.8211 H   0  0  0  0  0  0  0  0  0  0  0  0
    1.7647   -2.4159   -1.7022 H   0  0  0  0  0  0  0  0  0  0  0  0
    1.5397   -0.7571   -2.2166 H   0  0  0  0  0  0  0  0  0  0  0  0
    1.4408   -2.3271    1.4202 H   0  0  0  0  0  0  0  0  0  0  0  0
    4.6315    0.6262    1.7982 H   0  0  0  0  0  0  0  0  0  0  0  0
   -4.7963   -1.2052    0.8541 H   0  0  0  0  0  0  0  0  0  0  0  0
   -4.5784    1.2606    0.2052 H   0  0  0  0  0  0  0  0  0  0  0  0
  1  2  1  0
  2  3  2  0
  3  4  1  0
  4  5  1  0
  5  6  1  0
  6  7  1  0
  7  8  2  0
  8  9  1  0
  9 10  1  0
  9 11  2  0
 11 12  1  0
  4 13  2  0
 13 14  1  0
 14 15  2  0
 15 16  1  0
 16 17  1  0
 17 18  2  0
 18  2  1  0
 12  7  1  0
 17 13  1  0
  1 19  1  0
  1 20  1  0
  6 21  1  0
  6 22  1  0
  8 23  1  0
 11 24  1  0
 15 25  1  0
 16 26  1  0
M  END
$$$$
