
     RDKit          3D

 65 68  0  0  0  0  0  0  0  0999 V2000
    2.6255    2.0963    0.9960 C   0  0  0  0  0  0  0  0  0  0  0  0
    2.7665    0.6510    0.8601 N   0  0  0  0  0  0  0  0  0  0  0  0
    1.5293   -0.1357    0.8576 C   0  0  0  0  0  0  0  0  0  0  0  0
    0.8818   -0.1967   -0.5431 C   0  0  0  0  0  0  0  0  0  0  0  0
   -0.3971   -0.9380   -0.6535 N   0  0  0  0  0  0  0  0  0  0  0  0
   -0.2916   -2.4004   -0.4237 C   0  0  0  0  0  0  0  0  0  0  0  0
   -1.5152   -3.1791   -0.9396 C   0  0  0  0  0  0  0  0  0  0  0  0
   -1.4182   -4.6596   -0.5680 C   0  0  0  0  0  0  0  0  0  0  0  0
   -0.0824   -5.0863   -0.3117 O   0  0  0  0  0  0  0  0  0  0  0  0
    0.8322   -4.5528   -1.2603 C   0  0  0  0  0  0  0  0  0  0  0  0
    0.9472   -3.0389   -1.1068 C   0  0  0  0  0  0  0  0  0  0  0  0
   -1.4911   -0.1994    0.0306 C   0  0  0  0  0  0  0  0  0  0  0  0
   -1.9887   -0.7612    1.3875 C   0  0  0  0  0  0  0  0  0  0  0  0
   -3.1315    0.0840    1.9684 C   0  0  0  0  0  0  0  0  0  0  0  0
   -4.2531    0.2692    0.9467 C   0  0  0  0  0  0  0  0  0  0  0  0
   -3.7091    0.8607   -0.2705 N   0  0  0  0  0  0  0  0  0  0  0  0
   -3.7551    2.2225   -0.5514 C   0  0  0  0  0  0  0  0  0  0  0  0
   -3.0275    2.7770   -1.3669 O   0  0  0  0  0  0  0  0  0  0  0  0
   -4.7470    3.0410    0.2008 C   0  0  0  0  0  0  0  0  0  0  0  0
   -6.2268    2.9004   -0.0809 C   0  0  0  0  0  0  0  0  0  0  0  0
   -5.5056    4.1385   -0.5140 C   0  0  0  0  0  0  0  0  0  0  0  0
   -2.6848    0.0484   -0.9305 C   0  0  0  0  0  0  0  0  0  0  0  0
    3.9421    0.0035    0.4790 C   0  0  0  0  0  0  0  0  0  0  0  0
    4.0383   -1.2150    0.3497 O   0  0  0  0  0  0  0  0  0  0  0  0
    5.1607    0.7934    0.2418 C   0  0  0  0  0  0  0  0  0  0  0  0
    6.2711    0.5930    1.0707 C   0  0  0  0  0  0  0  0  0  0  0  0
    7.4436    1.3103    0.8296 C   0  0  0  0  0  0  0  0  0  0  0  0
    7.4974    2.2033   -0.2395 C   0  0  0  0  0  0  0  0  0  0  0  0
    8.6251    2.8898   -0.4633 F   0  0  0  0  0  0  0  0  0  0  0  0
    6.4057    2.3906   -1.0799 C   0  0  0  0  0  0  0  0  0  0  0  0
    5.2395    1.6733   -0.8385 C   0  0  0  0  0  0  0  0  0  0  0  0
    4.1936    1.8480   -1.6588 F   0  0  0  0  0  0  0  0  0  0  0  0
    3.5708    2.5592    1.2840 H   0  0  0  0  0  0  0  0  0  0  0  0
    2.2912    2.5135    0.0424 H   0  0  0  0  0  0  0  0  0  0  0  0
    1.8870    2.3185    1.7722 H   0  0  0  0  0  0  0  0  0  0  0  0
    1.7561   -1.1482    1.2063 H   0  0  0  0  0  0  0  0  0  0  0  0
    0.8517    0.3084    1.5930 H   0  0  0  0  0  0  0  0  0  0  0  0
    1.6094   -0.5862   -1.2652 H   0  0  0  0  0  0  0  0  0  0  0  0
    0.7136    0.8284   -0.9027 H   0  0  0  0  0  0  0  0  0  0  0  0
   -0.1913   -2.5801    0.6551 H   0  0  0  0  0  0  0  0  0  0  0  0
   -2.4701   -2.8055   -0.5660 H   0  0  0  0  0  0  0  0  0  0  0  0
   -1.5665   -3.0873   -2.0327 H   0  0  0  0  0  0  0  0  0  0  0  0
   -1.8529   -5.2832   -1.3568 H   0  0  0  0  0  0  0  0  0  0  0  0
   -1.9914   -4.8500    0.3464 H   0  0  0  0  0  0  0  0  0  0  0  0
    0.5049   -4.8230   -2.2716 H   0  0  0  0  0  0  0  0  0  0  0  0
    1.8096   -5.0215   -1.1055 H   0  0  0  0  0  0  0  0  0  0  0  0
    1.1217   -2.6149   -2.1034 H   0  0  0  0  0  0  0  0  0  0  0  0
    1.8435   -2.8203   -0.5150 H   0  0  0  0  0  0  0  0  0  0  0  0
   -1.1246    0.8112    0.2670 H   0  0  0  0  0  0  0  0  0  0  0  0
   -2.3574   -1.7857    1.2862 H   0  0  0  0  0  0  0  0  0  0  0  0
   -1.1666   -0.7919    2.1110 H   0  0  0  0  0  0  0  0  0  0  0  0
   -2.7405    1.0642    2.2676 H   0  0  0  0  0  0  0  0  0  0  0  0
   -3.5247   -0.3981    2.8713 H   0  0  0  0  0  0  0  0  0  0  0  0
   -5.0448    0.8848    1.3784 H   0  0  0  0  0  0  0  0  0  0  0  0
   -4.6962   -0.6979    0.6810 H   0  0  0  0  0  0  0  0  0  0  0  0
   -4.4471    3.2693    1.2192 H   0  0  0  0  0  0  0  0  0  0  0  0
   -6.9107    2.9767    0.7560 H   0  0  0  0  0  0  0  0  0  0  0  0
   -6.5391    2.2031   -0.8489 H   0  0  0  0  0  0  0  0  0  0  0  0
   -5.3214    4.2783   -1.5727 H   0  0  0  0  0  0  0  0  0  0  0  0
   -5.6941    5.0558    0.0292 H   0  0  0  0  0  0  0  0  0  0  0  0
   -3.1655   -0.8854   -1.2363 H   0  0  0  0  0  0  0  0  0  0  0  0
   -2.3355    0.5436   -1.8452 H   0  0  0  0  0  0  0  0  0  0  0  0
    6.2241   -0.1200    1.8905 H   0  0  0  0  0  0  0  0  0  0  0  0
    8.3168    1.1732    1.4618 H   0  0  0  0  0  0  0  0  0  0  0  0
    6.4651    3.0801   -1.9142 H   0  0  0  0  0  0  0  0  0  0  0  0
  1  2  1  0
  2  3  1  0
  3  4  1  0
  4  5  1  0
  5  6  1  0
  6  7  1  0
  7  8  1  0
  8  9  1  0
  9 10  1  0
 10 11  1  0
  5 12  1  0
 12 13  1  0
 13 14  1  0
 14 15  1  0
 15 16  1  0
 16 17  1  0
 17 18  2  0
 17 19  1  0
 19 20  1  0
 20 21  1  0
 16 22  1  0
  2 23  1  0
 23 24  2  0
 23 25  1  0
 25 26  2  0
 26 27  1  0
 27 28  2  0
 28 29  1  0
 28 30  1  0
 30 31  2  0
 31 32  1  0
 11  6  1  0
 22 12  1  0
 31 25  1  0
 21 19  1  0
  1 33  1  0
  1 34  1  0
  1 35  1  0
  3 36  1  0
  3 37  1  0
  4 38  1  0
  4 39  1  0
  6 40  1  0
  7 41  1  0
  7 42  1  0
  8 43  1  0
  8 44  1  0
 10 45  1  0
 10 46  1  0
 11 47  1  0
 11 48  1  0
 12 49  1  0
 13 50  1  0
 13 51  1  0
 14 52  1  0
 14 53  1  0
 15 54  1  0
 15 55  1  0
 19 56  1  0
 20 57  1  0
 20 58  1  0
 21 59  1  0
 21 60  1  0
 22 61  1  0
 22 62  1  0
 26 63  1  0
 27 64  1  0
 30 65  1  0
M  END
$$$$
