
     RDKit          3D

 35 36  0  0  0  0  0  0  0  0999 V2000
    4.8101   -1.2628    0.4186 C   0  0  0  0  0  0  0  0  0  0  0  0
    4.8449    0.2542    0.5352 C   0  0  0  0  0  0  0  0  0  0  0  0
    6.2115    0.6655    0.4499 O   0  0  0  0  0  0  0  0  0  0  0  0
    4.0213    0.9582   -0.5567 C   0  0  0  0  0  0  0  0  0  0  0  0
    2.5889    0.8910   -0.3301 N   0  0  0  0  0  0  0  0  0  0  0  0
    1.7955   -0.0777   -0.9183 C   0  0  0  0  0  0  0  0  0  0  0  0
    2.2798   -0.9152   -1.6758 O   0  0  0  0  0  0  0  0  0  0  0  0
    0.3813   -0.0243   -0.5619 C   0  0  0  0  0  0  0  0  0  0  0  0
   -0.3337    0.9045    0.1781 C   0  0  0  0  0  0  0  0  0  0  0  0
   -1.7195    0.5676    0.2884 C   0  0  0  0  0  0  0  0  0  0  0  0
   -2.7691    1.2801    0.9742 C   0  0  0  0  0  0  0  0  0  0  0  0
   -2.5335    2.3212    1.5803 O   0  0  0  0  0  0  0  0  0  0  0  0
   -4.0239    0.6813    0.8801 N   0  0  0  0  0  0  0  0  0  0  0  0
   -5.1377    1.3341    1.5419 C   0  0  0  0  0  0  0  0  0  0  0  0
   -4.3179   -0.5161    0.2085 C   0  0  0  0  0  0  0  0  0  0  0  0
   -5.4673   -0.9667    0.1982 O   0  0  0  0  0  0  0  0  0  0  0  0
   -3.2643   -1.1707   -0.4408 N   0  0  0  0  0  0  0  0  0  0  0  0
   -3.5450   -2.4144   -1.1500 C   0  0  0  0  0  0  0  0  0  0  0  0
   -2.0089   -0.5916   -0.3689 C   0  0  0  0  0  0  0  0  0  0  0  0
   -0.6586   -1.2834   -1.1135 S   0  0  0  0  0  0  0  0  0  0  0  0
    5.4702   -1.7175    1.1654 H   0  0  0  0  0  0  0  0  0  0  0  0
    3.8013   -1.6569    0.5689 H   0  0  0  0  0  0  0  0  0  0  0  0
    5.1748   -1.5895   -0.5614 H   0  0  0  0  0  0  0  0  0  0  0  0
    4.4797    0.5428    1.5278 H   0  0  0  0  0  0  0  0  0  0  0  0
    6.2526    1.6152    0.6541 H   0  0  0  0  0  0  0  0  0  0  0  0
    4.2710    0.5587   -1.5465 H   0  0  0  0  0  0  0  0  0  0  0  0
    4.2793    2.0234   -0.5794 H   0  0  0  0  0  0  0  0  0  0  0  0
    2.1865    1.5335    0.3351 H   0  0  0  0  0  0  0  0  0  0  0  0
    0.0879    1.7962    0.6253 H   0  0  0  0  0  0  0  0  0  0  0  0
   -4.8514    2.2733    2.0218 H   0  0  0  0  0  0  0  0  0  0  0  0
   -5.9216    1.5385    0.8052 H   0  0  0  0  0  0  0  0  0  0  0  0
   -5.5445    0.6577    2.3010 H   0  0  0  0  0  0  0  0  0  0  0  0
   -2.9489   -3.2211   -0.7121 H   0  0  0  0  0  0  0  0  0  0  0  0
   -3.2922   -2.2910   -2.2077 H   0  0  0  0  0  0  0  0  0  0  0  0
   -4.5987   -2.6982   -1.0848 H   0  0  0  0  0  0  0  0  0  0  0  0
  1  2  1  0
  2  3  1  0
  2  4  1  0
  4  5  1  0
  5  6  1  0
  6  7  2  0
  6  8  1  0
  8  9  2  0
  9 10  1  0
 10 11  1  0
 11 12  2  0
 11 13  1  0
 13 14  1  0
 13 15  1  0
 15 16  2  0
 15 17  1  0
 17 18  1  0
 17 19  1  0
 19 20  1  0
 20  8  1  0
 19 10  2  0
  1 21  1  0
  1 22  1  0
  1 23  1  0
  2 24  1  0
  3 25  1  0
  4 26  1  0
  4 27  1  0
  5 28  1  0
  9 29  1  0
 14 30  1  0
 14 31  1  0
 14 32  1  0
 18 33  1  0
 18 34  1  0
 18 35  1  0
M  END
$$$$
