
     RDKit          3D

 45 47  0  0  0  0  0  0  0  0999 V2000
    4.5035   -0.7940   -1.5085 C   0  0  0  0  0  0  0  0  0  0  0  0
    3.4328   -0.8591   -0.5309 N   0  0  0  0  0  0  0  0  0  0  0  0
    3.1062    0.4713   -0.1510 C   0  0  0  0  0  0  0  0  0  0  0  0
    1.8952    0.5889    0.7558 C   0  0  0  0  0  0  0  0  0  0  0  0
    0.7609   -0.3057    0.4258 C   0  0  0  0  0  0  0  0  0  0  0  0
   -0.5119    0.0194    0.4434 C   0  0  0  0  0  0  0  0  0  0  0  0
   -0.9413    1.3848    0.8051 C   0  0  0  0  0  0  0  0  0  0  0  0
   -0.2454    1.8248    1.8855 C   0  0  0  0  0  0  0  0  0  0  0  0
   -0.4680    3.1059    2.3340 C   0  0  0  0  0  0  0  0  0  0  0  0
   -1.4063    3.8823    1.6486 C   0  0  0  0  0  0  0  0  0  0  0  0
   -2.1201    3.4200    0.5419 C   0  0  0  0  0  0  0  0  0  0  0  0
   -1.8805    2.1382    0.1117 C   0  0  0  0  0  0  0  0  0  0  0  0
   -2.7307    1.7340   -1.0306 C   0  0  0  0  0  0  0  0  0  0  0  0
   -3.0347    0.4842   -1.3882 C   0  0  0  0  0  0  0  0  0  0  0  0
   -2.6254   -0.7802   -0.7714 C   0  0  0  0  0  0  0  0  0  0  0  0
   -3.4659   -1.8386   -1.0291 C   0  0  0  0  0  0  0  0  0  0  0  0
   -3.2316   -3.0685   -0.4512 C   0  0  0  0  0  0  0  0  0  0  0  0
   -2.1282   -3.2289    0.4035 C   0  0  0  0  0  0  0  0  0  0  0  0
   -1.2834   -2.1872    0.6703 C   0  0  0  0  0  0  0  0  0  0  0  0
   -1.5385   -0.9843    0.0803 C   0  0  0  0  0  0  0  0  0  0  0  0
    1.1826   -1.6326   -0.0916 C   0  0  0  0  0  0  0  0  0  0  0  0
    2.3156   -1.5055   -1.1440 C   0  0  0  0  0  0  0  0  0  0  0  0
    0.6829    0.0000    0.0000 Cl  0  0  0  0  0  0  0  0  0  0  0  0
    4.1039   -0.7072   -2.5568 H   0  0  0  0  0  0  0  0  0  0  0  0
    5.1355    0.1108   -1.3705 H   0  0  0  0  0  0  0  0  0  0  0  0
    5.1435   -1.6856   -1.4912 H   0  0  0  0  0  0  0  0  0  0  0  0
    2.9340    1.1048   -1.0606 H   0  0  0  0  0  0  0  0  0  0  0  0
    3.9644    0.8968    0.3811 H   0  0  0  0  0  0  0  0  0  0  0  0
    2.3169    0.4456    1.7715 H   0  0  0  0  0  0  0  0  0  0  0  0
    1.6057    1.6564    0.6488 H   0  0  0  0  0  0  0  0  0  0  0  0
    0.4005    1.1284    2.3620 H   0  0  0  0  0  0  0  0  0  0  0  0
    0.0643    3.4985    3.1829 H   0  0  0  0  0  0  0  0  0  0  0  0
   -1.5725    4.8890    2.0105 H   0  0  0  0  0  0  0  0  0  0  0  0
   -2.8473    4.0448    0.0238 H   0  0  0  0  0  0  0  0  0  0  0  0
   -3.1253    2.5369   -1.5973 H   0  0  0  0  0  0  0  0  0  0  0  0
   -3.6641    0.3623   -2.2287 H   0  0  0  0  0  0  0  0  0  0  0  0
   -4.3273   -1.7281   -1.6917 H   0  0  0  0  0  0  0  0  0  0  0  0
   -3.8640   -3.9250   -0.6267 H   0  0  0  0  0  0  0  0  0  0  0  0
   -1.9390   -4.1678    0.8512 H   0  0  0  0  0  0  0  0  0  0  0  0
   -0.4693   -2.2433    1.3509 H   0  0  0  0  0  0  0  0  0  0  0  0
    1.6180   -2.3164    0.6421 H   0  0  0  0  0  0  0  0  0  0  0  0
    0.3744   -2.1495   -0.6486 H   0  0  0  0  0  0  0  0  0  0  0  0
    1.9587   -1.0693   -2.0769 H   0  0  0  0  0  0  0  0  0  0  0  0
    2.6041   -2.5515   -1.3269 H   0  0  0  0  0  0  0  0  0  0  0  0
   -0.6829    0.0000    0.0000 H   0  0  0  0  0  0  0  0  0  0  0  0
  1  2  1  0
  2  3  1  0
  3  4  1  0
  4  5  1  0
  5  6  2  3
  6  7  1  0
  7  8  2  0
  8  9  1  0
  9 10  2  0
 10 11  1  0
 11 12  2  0
 12 13  1  0
 13 14  2  0
 14 15  1  0
 15 16  2  0
 16 17  1  0
 17 18  2  0
 18 19  1  0
 19 20  2  0
  5 21  1  0
 21 22  1  0
 22  2  1  0
 20  6  1  0
 12  7  1  0
 20 15  1  0
  1 24  1  0
  1 25  1  0
  1 26  1  0
  3 27  1  0
  3 28  1  0
  4 29  1  0
  4 30  1  0
  8 31  1  0
  9 32  1  0
 10 33  1  0
 11 34  1  0
 13 35  1  0
 14 36  1  0
 16 37  1  0
 17 38  1  0
 18 39  1  0
 19 40  1  0
 21 41  1  0
 21 42  1  0
 22 43  1  0
 22 44  1  0
 23 45  1  0
M  END
$$$$
