
     RDKit          3D

 34 36  0  0  0  0  0  0  0  0999 V2000
    4.9917   -0.6792   -1.9806 O   0  0  0  0  0  0  0  0  0  0  0  0
    4.2728   -0.6074   -1.0018 C   0  0  0  0  0  0  0  0  0  0  0  0
    4.5265   -1.3218    0.1082 O   0  0  0  0  0  0  0  0  0  0  0  0
    3.0506    0.2236   -0.8796 C   0  0  0  0  0  0  0  0  0  0  0  0
    2.6337    0.9570   -1.9990 C   0  0  0  0  0  0  0  0  0  0  0  0
    1.4956    1.7632   -1.9306 C   0  0  0  0  0  0  0  0  0  0  0  0
    0.7621    1.8337   -0.7468 C   0  0  0  0  0  0  0  0  0  0  0  0
    1.1616    1.0813    0.3628 C   0  0  0  0  0  0  0  0  0  0  0  0
    0.2441    1.2050    1.8910 S   0  0  0  0  0  6  0  0  0  0  0  0
   -0.3713    2.5163    1.9112 O   0  0  0  0  0  0  0  0  0  0  0  0
    1.1432    0.8050    2.9562 O   0  0  0  0  0  0  0  0  0  0  0  0
   -0.9454    0.0080    1.7482 N   0  0  0  0  0  0  0  0  0  0  0  0
   -0.5018   -1.4151    1.8525 C   0  0  0  0  0  0  0  0  0  0  0  0
   -1.5015   -2.2453    1.0294 C   0  0  0  0  0  0  0  0  0  0  0  0
   -2.2690   -1.2005    0.2872 C   0  0  0  0  0  0  0  0  0  0  0  0
   -3.2444   -1.4011   -0.6782 C   0  0  0  0  0  0  0  0  0  0  0  0
   -3.9108   -0.2860   -1.1878 C   0  0  0  0  0  0  0  0  0  0  0  0
   -3.6148    0.9986   -0.7098 C   0  0  0  0  0  0  0  0  0  0  0  0
   -2.6341    1.1854    0.2690 C   0  0  0  0  0  0  0  0  0  0  0  0
   -1.9386    0.0799    0.7261 C   0  0  0  0  0  0  0  0  0  0  0  0
    2.3183    0.2950    0.3110 C   0  0  0  0  0  0  0  0  0  0  0  0
    5.3536   -1.8041   -0.1040 H   0  0  0  0  0  0  0  0  0  0  0  0
    3.2017    0.9102   -2.9270 H   0  0  0  0  0  0  0  0  0  0  0  0
    1.1863    2.3418   -2.7984 H   0  0  0  0  0  0  0  0  0  0  0  0
   -0.1113    2.4801   -0.6964 H   0  0  0  0  0  0  0  0  0  0  0  0
   -0.4963   -1.7333    2.9000 H   0  0  0  0  0  0  0  0  0  0  0  0
    0.5036   -1.5559    1.4458 H   0  0  0  0  0  0  0  0  0  0  0  0
   -0.9843   -2.9330    0.3536 H   0  0  0  0  0  0  0  0  0  0  0  0
   -2.1688   -2.8116    1.6874 H   0  0  0  0  0  0  0  0  0  0  0  0
   -3.5007   -2.3994   -1.0191 H   0  0  0  0  0  0  0  0  0  0  0  0
   -4.6841   -0.4149   -1.9419 H   0  0  0  0  0  0  0  0  0  0  0  0
   -4.1659    1.8557   -1.0903 H   0  0  0  0  0  0  0  0  0  0  0  0
   -2.4501    2.1804    0.6592 H   0  0  0  0  0  0  0  0  0  0  0  0
    2.6479   -0.2512    1.1922 H   0  0  0  0  0  0  0  0  0  0  0  0
  1  2  2  0
  2  3  1  0
  2  4  1  0
  4  5  2  0
  5  6  1  0
  6  7  2  0
  7  8  1  0
  8  9  1  0
  9 10  2  0
  9 11  2  0
  9 12  1  0
 12 13  1  0
 13 14  1  0
 14 15  1  0
 15 16  2  0
 16 17  1  0
 17 18  2  0
 18 19  1  0
 19 20  2  0
  8 21  2  0
 21  4  1  0
 20 12  1  0
 20 15  1  0
  3 22  1  0
  5 23  1  0
  6 24  1  0
  7 25  1  0
 13 26  1  0
 13 27  1  0
 14 28  1  0
 14 29  1  0
 16 30  1  0
 17 31  1  0
 18 32  1  0
 19 33  1  0
 21 34  1  0
M  END
$$$$
