
     RDKit          3D

 76 79  0  0  0  0  0  0  0  0999 V2000
   -0.3384    1.5160    6.1663 C   0  0  0  0  0  0  0  0  0  0  0  0
   -0.2764    0.5927    5.0832 O   0  0  0  0  0  0  0  0  0  0  0  0
   -1.2493    0.7101    4.1282 C   0  0  0  0  0  0  0  0  0  0  0  0
   -1.9057    1.9080    3.8386 C   0  0  0  0  0  0  0  0  0  0  0  0
   -2.8556    1.9717    2.8094 C   0  0  0  0  0  0  0  0  0  0  0  0
   -3.1768    0.8442    2.0385 C   0  0  0  0  0  0  0  0  0  0  0  0
   -4.1716    0.9118    0.9535 C   0  0  0  0  0  0  0  0  0  0  0  0
   -5.4363    1.4924    1.1620 C   0  0  0  0  0  0  0  0  0  0  0  0
   -6.3871    1.5560    0.1378 C   0  0  0  0  0  0  0  0  0  0  0  0
   -6.0947    1.0264   -1.1160 C   0  0  0  0  0  0  0  0  0  0  0  0
   -4.8519    0.4264   -1.3352 C   0  0  0  0  0  0  0  0  0  0  0  0
   -4.5109   -0.1270   -2.6632 C   0  0  0  0  0  0  0  0  0  0  0  0
   -3.5296    0.3399   -3.2350 O   0  0  0  0  0  0  0  0  0  0  0  0
   -5.3200   -1.1243   -3.2034 N   0  0  0  0  0  0  0  0  0  0  0  0
   -5.0825   -1.5466   -4.5724 C   0  0  0  0  0  0  0  0  0  0  0  0
   -6.3092   -1.8932   -2.4594 C   0  0  0  0  0  0  0  0  0  0  0  0
   -3.8893    0.3899   -0.3200 C   0  0  0  0  0  0  0  0  0  0  0  0
   -2.5114   -0.3534    2.3309 C   0  0  0  0  0  0  0  0  0  0  0  0
   -1.5523   -0.4144    3.3541 C   0  0  0  0  0  0  0  0  0  0  0  0
   -0.7136   -1.9563    3.6341 S   0  0  0  0  0  6  0  0  0  0  0  0
   -0.8456   -2.2911    5.0371 O   0  0  0  0  0  0  0  0  0  0  0  0
   -1.1476   -2.8954    2.6177 O   0  0  0  0  0  0  0  0  0  0  0  0
    0.9190   -1.5808    3.3573 N   0  0  0  0  0  0  0  0  0  0  0  0
    1.2643   -0.8906    2.1539 C   0  0  0  0  0  0  0  0  0  0  0  0
    1.9022    0.3433    2.2555 C   0  0  0  0  0  0  0  0  0  0  0  0
    2.2246    1.0471    1.1002 C   0  0  0  0  0  0  0  0  0  0  0  0
    1.9044    0.5195   -0.1544 C   0  0  0  0  0  0  0  0  0  0  0  0
    1.2583   -0.7138   -0.2853 C   0  0  0  0  0  0  0  0  0  0  0  0
    1.0005   -1.3360   -1.5050 N   0  0  0  0  0  0  0  0  0  0  0  0
    1.0503   -0.6322   -2.7947 C   0  0  0  0  0  0  0  0  0  0  0  0
    2.2864   -1.0832   -3.5927 C   0  0  0  0  0  0  0  0  0  0  0  0
    3.5263   -0.8287   -2.8763 N   0  0  0  0  0  0  0  0  0  0  0  0
    4.1485    0.4000   -2.9602 C   0  0  0  0  0  0  0  0  0  0  0  0
    3.8080    1.2690   -3.7574 O   0  0  0  0  0  0  0  0  0  0  0  0
    5.2294    0.6701   -1.9670 C   0  0  0  0  0  0  0  0  0  0  0  0
    5.5605    2.0044   -1.6988 C   0  0  0  0  0  0  0  0  0  0  0  0
    6.5363    2.3105   -0.7513 C   0  0  0  0  0  0  0  0  0  0  0  0
    7.1956    1.2854   -0.0730 C   0  0  0  0  0  0  0  0  0  0  0  0
    6.9001   -0.0549   -0.3504 C   0  0  0  0  0  0  0  0  0  0  0  0
    7.5954   -1.1534    0.3997 C   0  0  0  0  0  0  0  0  0  0  0  0
    5.9088   -0.3569   -1.2959 C   0  0  0  0  0  0  0  0  0  0  0  0
    0.9800   -1.4247    0.8940 C   0  0  0  0  0  0  0  0  0  0  0  0
    0.0377    2.4964    5.8579 H   0  0  0  0  0  0  0  0  0  0  0  0
    0.3164    1.1434    6.9602 H   0  0  0  0  0  0  0  0  0  0  0  0
   -1.3512    1.5935    6.5762 H   0  0  0  0  0  0  0  0  0  0  0  0
   -1.6829    2.8240    4.3764 H   0  0  0  0  0  0  0  0  0  0  0  0
   -3.3301    2.9292    2.5976 H   0  0  0  0  0  0  0  0  0  0  0  0
   -5.6960    1.8995    2.1381 H   0  0  0  0  0  0  0  0  0  0  0  0
   -7.3529    2.0199    0.3222 H   0  0  0  0  0  0  0  0  0  0  0  0
   -6.8257    1.0887   -1.9178 H   0  0  0  0  0  0  0  0  0  0  0  0
   -4.5897   -2.5236   -4.5584 H   0  0  0  0  0  0  0  0  0  0  0  0
   -4.4539   -0.8360   -5.1137 H   0  0  0  0  0  0  0  0  0  0  0  0
   -6.0427   -1.6286   -5.0913 H   0  0  0  0  0  0  0  0  0  0  0  0
   -6.2655   -1.7079   -1.3843 H   0  0  0  0  0  0  0  0  0  0  0  0
   -6.1252   -2.9597   -2.6238 H   0  0  0  0  0  0  0  0  0  0  0  0
   -7.3032   -1.6365   -2.8365 H   0  0  0  0  0  0  0  0  0  0  0  0
   -2.9135   -0.0428   -0.5353 H   0  0  0  0  0  0  0  0  0  0  0  0
   -2.7404   -1.2489    1.7549 H   0  0  0  0  0  0  0  0  0  0  0  0
    1.3270   -1.2215    4.2203 H   0  0  0  0  0  0  0  0  0  0  0  0
    2.1446    0.7707    3.2237 H   0  0  0  0  0  0  0  0  0  0  0  0
    2.7275    2.0084    1.1675 H   0  0  0  0  0  0  0  0  0  0  0  0
    2.1794    1.1056   -1.0257 H   0  0  0  0  0  0  0  0  0  0  0  0
    0.2350   -2.0049   -1.4507 H   0  0  0  0  0  0  0  0  0  0  0  0
    1.0238    0.4565   -2.6875 H   0  0  0  0  0  0  0  0  0  0  0  0
    0.1536   -0.9020   -3.3654 H   0  0  0  0  0  0  0  0  0  0  0  0
    2.3107   -0.5812   -4.5655 H   0  0  0  0  0  0  0  0  0  0  0  0
    2.2447   -2.1640   -3.7660 H   0  0  0  0  0  0  0  0  0  0  0  0
    3.5991   -1.3328   -2.0006 H   0  0  0  0  0  0  0  0  0  0  0  0
    5.0493    2.8100   -2.2225 H   0  0  0  0  0  0  0  0  0  0  0  0
    6.7799    3.3482   -0.5395 H   0  0  0  0  0  0  0  0  0  0  0  0
    7.9484    1.5387    0.6704 H   0  0  0  0  0  0  0  0  0  0  0  0
    7.6362   -2.0711   -0.1965 H   0  0  0  0  0  0  0  0  0  0  0  0
    7.0635   -1.3626    1.3330 H   0  0  0  0  0  0  0  0  0  0  0  0
    8.6271   -0.8714    0.6339 H   0  0  0  0  0  0  0  0  0  0  0  0
    5.6870   -1.3985   -1.5122 H   0  0  0  0  0  0  0  0  0  0  0  0
    0.5386   -2.4162    0.8220 H   0  0  0  0  0  0  0  0  0  0  0  0
  1  2  1  0
  2  3  1  0
  3  4  2  0
  4  5  1  0
  5  6  2  0
  6  7  1  0
  7  8  2  0
  8  9  1  0
  9 10  2  0
 10 11  1  0
 11 12  1  0
 12 13  2  0
 12 14  1  0
 14 15  1  0
 14 16  1  0
 11 17  2  0
  6 18  1  0
 18 19  2  0
 19 20  1  0
 20 21  2  0
 20 22  2  0
 20 23  1  0
 23 24  1  0
 24 25  2  0
 25 26  1  0
 26 27  2  0
 27 28  1  0
 28 29  1  0
 29 30  1  0
 30 31  1  0
 31 32  1  0
 32 33  1  0
 33 34  2  0
 33 35  1  0
 35 36  2  0
 36 37  1  0
 37 38  2  0
 38 39  1  0
 39 40  1  0
 39 41  2  0
 28 42  2  0
 19  3  1  0
 42 24  1  0
 17  7  1  0
 41 35  1  0
  1 43  1  0
  1 44  1  0
  1 45  1  0
  4 46  1  0
  5 47  1  0
  8 48  1  0
  9 49  1  0
 10 50  1  0
 15 51  1  0
 15 52  1  0
 15 53  1  0
 16 54  1  0
 16 55  1  0
 16 56  1  0
 17 57  1  0
 18 58  1  0
 23 59  1  0
 25 60  1  0
 26 61  1  0
 27 62  1  0
 29 63  1  0
 30 64  1  0
 30 65  1  0
 31 66  1  0
 31 67  1  0
 32 68  1  0
 36 69  1  0
 37 70  1  0
 38 71  1  0
 40 72  1  0
 40 73  1  0
 40 74  1  0
 41 75  1  0
 42 76  1  0
M  END
$$$$
