
     RDKit          3D

  8  7  0  0  0  0  0  0  0  0999 V2000
    1.1118   -0.2673   -0.2432 N   0  0  0  0  0  0  0  0  0  0  0  0
   -0.0258   -0.0314    0.4419 C   0  0  0  0  0  0  0  0  0  0  0  0
   -1.0783    0.3080   -0.3301 N   0  0  0  0  0  0  0  0  0  0  0  0
   -0.1216   -0.1480    2.0852 S   0  0  0  0  0  0  0  0  0  0  0  0
    1.9493   -0.3958    0.3135 H   0  0  0  0  0  0  0  0  0  0  0  0
    1.2468    0.2065   -1.1257 H   0  0  0  0  0  0  0  0  0  0  0  0
   -1.1065   -0.0357   -1.2801 H   0  0  0  0  0  0  0  0  0  0  0  0
   -1.9757    0.3637    0.1385 H   0  0  0  0  0  0  0  0  0  0  0  0
  1  2  1  0
  2  3  1  0
  2  4  2  0
  1  5  1  0
  1  6  1  0
  3  7  1  0
  3  8  1  0
M  END
$$$$
