
     RDKit          3D

 22 23  0  0  0  0  0  0  0  0999 V2000
    3.1661    0.7216   -0.4293 C   0  0  0  0  0  0  0  0  0  0  0  0
    2.4181    0.7716   -1.6037 C   0  0  0  0  0  0  0  0  0  0  0  0
    1.1473    0.1956   -1.6494 C   0  0  0  0  0  0  0  0  0  0  0  0
    0.6116   -0.4374   -0.5179 C   0  0  0  0  0  0  0  0  0  0  0  0
   -0.7608   -1.0592   -0.5671 C   0  0  0  0  0  0  0  0  0  0  0  0
   -1.7240   -0.3120    0.2224 N   0  0  0  0  0  0  0  0  0  0  0  0
   -2.3074   -0.7191    1.3910 C   0  0  0  0  0  0  0  0  0  0  0  0
   -3.1809    0.2910    1.7206 C   0  0  0  0  0  0  0  0  0  0  0  0
   -3.1496    1.2883    0.7806 N   0  0  0  0  0  0  0  0  0  0  0  0
   -2.2624    0.8996   -0.1077 C   0  0  0  0  0  0  0  0  0  0  0  0
    1.3752   -0.4810    0.6587 C   0  0  0  0  0  0  0  0  0  0  0  0
    2.6451    0.0963    0.7014 C   0  0  0  0  0  0  0  0  0  0  0  0
    4.1541    1.1734   -0.3939 H   0  0  0  0  0  0  0  0  0  0  0  0
    2.8248    1.2625   -2.4844 H   0  0  0  0  0  0  0  0  0  0  0  0
    0.5802    0.2486   -2.5764 H   0  0  0  0  0  0  0  0  0  0  0  0
   -1.1482   -1.1031   -1.5918 H   0  0  0  0  0  0  0  0  0  0  0  0
   -0.7232   -2.0874   -0.1889 H   0  0  0  0  0  0  0  0  0  0  0  0
   -2.0654   -1.6543    1.8753 H   0  0  0  0  0  0  0  0  0  0  0  0
   -3.8337    0.3515    2.5817 H   0  0  0  0  0  0  0  0  0  0  0  0
   -1.9762    1.4501   -0.9945 H   0  0  0  0  0  0  0  0  0  0  0  0
    0.9828   -0.9589    1.5541 H   0  0  0  0  0  0  0  0  0  0  0  0
    3.2267    0.0621    1.6192 H   0  0  0  0  0  0  0  0  0  0  0  0
  1  2  2  0
  2  3  1  0
  3  4  2  0
  4  5  1  0
  5  6  1  0
  6  7  1  0
  7  8  2  0
  8  9  1  0
  9 10  2  0
  4 11  1  0
 11 12  2  0
 12  1  1  0
 10  6  1  0
  1 13  1  0
  2 14  1  0
  3 15  1  0
  5 16  1  0
  5 17  1  0
  7 18  1  0
  8 19  1  0
 10 20  1  0
 11 21  1  0
 12 22  1  0
M  END
$$$$
