
     RDKit          3D

 59 62  0  0  0  0  0  0  0  0999 V2000
    3.3465    1.6768   -1.8758 O   0  0  0  0  0  0  0  0  0  0  0  0
    2.9458    2.0132   -0.7673 C   0  0  0  0  0  0  0  0  0  0  0  0
    3.3957    3.3297   -0.1497 C   0  0  0  0  0  0  0  0  0  0  0  0
    4.6569    3.1721    0.6609 C   0  0  0  0  0  0  0  0  0  0  0  0
    5.8893    3.0250    0.0109 C   0  0  0  0  0  0  0  0  0  0  0  0
    7.0675    2.8767    0.7452 C   0  0  0  0  0  0  0  0  0  0  0  0
    7.0225    2.8660    2.1370 C   0  0  0  0  0  0  0  0  0  0  0  0
    5.8000    2.9953    2.7952 C   0  0  0  0  0  0  0  0  0  0  0  0
    4.6212    3.1456    2.0618 C   0  0  0  0  0  0  0  0  0  0  0  0
    2.0885    1.3119    0.0523 N   0  0  0  0  0  0  0  0  0  0  0  0
    1.6578    0.0205   -0.1192 C   0  0  0  0  0  0  0  0  0  0  0  0
    0.8035   -0.5458    0.7078 N   0  0  0  0  0  0  0  0  0  0  0  0
    0.6149   -1.8822    0.4192 N   0  0  0  0  0  0  0  0  0  0  0  0
    1.3104   -2.2634   -0.6358 C   0  0  0  0  0  0  0  0  0  0  0  0
    1.3411   -3.6633   -1.1664 C   0  0  0  0  0  0  0  0  0  0  0  0
    0.7446   -3.7691   -2.5676 C   0  0  0  0  0  0  0  0  0  0  0  0
    0.3479   -5.4831   -3.0790 S   0  0  0  0  0  0  0  0  0  0  0  0
   -1.0349   -5.9279   -1.9586 C   0  0  0  0  0  0  0  0  0  0  0  0
   -2.4140   -5.3516   -2.3065 C   0  0  0  0  0  0  0  0  0  0  0  0
   -2.5642   -3.9081   -1.9637 C   0  0  0  0  0  0  0  0  0  0  0  0
   -2.6394   -2.9334   -2.8470 N   0  0  0  0  0  0  0  0  0  0  0  0
   -2.6444   -1.6877   -2.2461 N   0  0  0  0  0  0  0  0  0  0  0  0
   -2.6081   -1.7766   -0.9397 C   0  0  0  0  0  0  0  0  0  0  0  0
   -2.5648   -0.8115    0.0241 N   0  0  0  0  0  0  0  0  0  0  0  0
   -2.5106    0.5319   -0.2726 C   0  0  0  0  0  0  0  0  0  0  0  0
   -2.4716    1.0372   -1.3893 O   0  0  0  0  0  0  0  0  0  0  0  0
   -2.5010    1.4047    0.9725 C   0  0  0  0  0  0  0  0  0  0  0  0
   -3.8706    1.9428    1.3059 C   0  0  0  0  0  0  0  0  0  0  0  0
   -4.6803    1.3184    2.2663 C   0  0  0  0  0  0  0  0  0  0  0  0
   -5.9515    1.8220    2.5555 C   0  0  0  0  0  0  0  0  0  0  0  0
   -6.4287    2.9486    1.8852 C   0  0  0  0  0  0  0  0  0  0  0  0
   -5.6372    3.5674    0.9188 C   0  0  0  0  0  0  0  0  0  0  0  0
   -4.3679    3.0650    0.6275 C   0  0  0  0  0  0  0  0  0  0  0  0
   -2.6216   -3.3713   -0.3275 S   0  0  0  0  0  0  0  0  0  0  0  0
    2.2452   -1.0091   -1.3434 S   0  0  0  0  0  0  0  0  0  0  0  0
    3.5611    4.0522   -0.9579 H   0  0  0  0  0  0  0  0  0  0  0  0
    2.5904    3.7494    0.4651 H   0  0  0  0  0  0  0  0  0  0  0  0
    5.9406    3.0216   -1.0761 H   0  0  0  0  0  0  0  0  0  0  0  0
    8.0195    2.7695    0.2269 H   0  0  0  0  0  0  0  0  0  0  0  0
    7.9428    2.7522    2.7083 H   0  0  0  0  0  0  0  0  0  0  0  0
    5.7676    2.9853    3.8815 H   0  0  0  0  0  0  0  0  0  0  0  0
    3.6810    3.2438    2.5983 H   0  0  0  0  0  0  0  0  0  0  0  0
    1.7503    1.7383    0.9011 H   0  0  0  0  0  0  0  0  0  0  0  0
    0.7956   -4.2922   -0.4542 H   0  0  0  0  0  0  0  0  0  0  0  0
    2.3727   -4.0294   -1.1691 H   0  0  0  0  0  0  0  0  0  0  0  0
   -0.1196   -3.1238   -2.7097 H   0  0  0  0  0  0  0  0  0  0  0  0
    1.4899   -3.4121   -3.2871 H   0  0  0  0  0  0  0  0  0  0  0  0
   -0.7589   -5.7344   -0.9195 H   0  0  0  0  0  0  0  0  0  0  0  0
   -1.1108   -7.0198   -2.0407 H   0  0  0  0  0  0  0  0  0  0  0  0
   -3.1721   -5.9264   -1.7545 H   0  0  0  0  0  0  0  0  0  0  0  0
   -2.6325   -5.5057   -3.3719 H   0  0  0  0  0  0  0  0  0  0  0  0
   -2.5061   -1.1319    0.9742 H   0  0  0  0  0  0  0  0  0  0  0  0
   -1.7973    2.2327    0.8053 H   0  0  0  0  0  0  0  0  0  0  0  0
   -2.0960    0.8473    1.8285 H   0  0  0  0  0  0  0  0  0  0  0  0
   -4.3320    0.4367    2.7991 H   0  0  0  0  0  0  0  0  0  0  0  0
   -6.5738    1.3326    3.3016 H   0  0  0  0  0  0  0  0  0  0  0  0
   -7.4187    3.3389    2.1085 H   0  0  0  0  0  0  0  0  0  0  0  0
   -6.0109    4.4372    0.3840 H   0  0  0  0  0  0  0  0  0  0  0  0
   -3.7711    3.5512   -0.1429 H   0  0  0  0  0  0  0  0  0  0  0  0
  1  2  2  0
  2  3  1  0
  3  4  1  0
  4  5  2  0
  5  6  1  0
  6  7  2  0
  7  8  1  0
  8  9  2  0
  2 10  1  0
 10 11  1  0
 11 12  2  0
 12 13  1  0
 13 14  2  0
 14 15  1  0
 15 16  1  0
 16 17  1  0
 17 18  1  0
 18 19  1  0
 19 20  1  0
 20 21  2  0
 21 22  1  0
 22 23  2  0
 23 24  1  0
 24 25  1  0
 25 26  2  0
 25 27  1  0
 27 28  1  0
 28 29  2  0
 29 30  1  0
 30 31  2  0
 31 32  1  0
 32 33  2  0
 23 34  1  0
 14 35  1  0
  9  4  1  0
 35 11  1  0
 34 20  1  0
 33 28  1  0
  3 36  1  0
  3 37  1  0
  5 38  1  0
  6 39  1  0
  7 40  1  0
  8 41  1  0
  9 42  1  0
 10 43  1  0
 15 44  1  0
 15 45  1  0
 16 46  1  0
 16 47  1  0
 18 48  1  0
 18 49  1  0
 19 50  1  0
 19 51  1  0
 24 52  1  0
 27 53  1  0
 27 54  1  0
 29 55  1  0
 30 56  1  0
 31 57  1  0
 32 58  1  0
 33 59  1  0
M  END
$$$$
