
     RDKit          3D

 60 63  0  0  0  0  0  0  0  0999 V2000
   -5.0427    1.1604    3.0469 C   0  0  0  0  0  0  0  0  0  0  0  0
   -4.6337    2.1233    2.0841 O   0  0  0  0  0  0  0  0  0  0  0  0
   -3.4938    1.7078    1.3411 C   0  0  0  0  0  0  0  0  0  0  0  0
   -3.6904    0.5563    0.3338 C   0  0  0  0  0  0  0  0  0  0  0  0
   -4.8338    0.1911    0.0428 O   0  0  0  0  0  0  0  0  0  0  0  0
   -2.5618   -0.0442   -0.2473 N   0  0  0  0  0  0  0  0  0  0  0  0
   -2.7934   -1.1395   -1.2272 C   0  0  0  0  0  0  0  0  0  0  0  0
   -3.4153   -2.3877   -0.5915 C   0  0  0  0  0  0  0  0  0  0  0  0
   -3.5600   -3.5064   -1.6214 C   0  0  0  0  0  0  0  0  0  0  0  0
   -3.6863   -3.0374   -2.9643 O   0  0  0  0  0  0  0  0  0  0  0  0
   -4.4078   -1.8123   -3.0536 C   0  0  0  0  0  0  0  0  0  0  0  0
   -3.5633   -0.6824   -2.4806 C   0  0  0  0  0  0  0  0  0  0  0  0
   -1.1509    0.1714    0.1641 C   0  0  0  0  0  0  0  0  0  0  0  0
   -0.8393   -0.4052    1.5618 C   0  0  0  0  0  0  0  0  0  0  0  0
    0.1520    0.4574    2.3477 C   0  0  0  0  0  0  0  0  0  0  0  0
    1.2978    0.9619    1.4703 C   0  0  0  0  0  0  0  0  0  0  0  0
    0.8397    1.6284    0.2471 N   0  0  0  0  0  0  0  0  0  0  0  0
    1.7048    1.9167   -0.8244 C   0  0  0  0  0  0  0  0  0  0  0  0
    1.2596    2.1436   -1.9491 O   0  0  0  0  0  0  0  0  0  0  0  0
    3.1323    1.9273   -0.5596 C   0  0  0  0  0  0  0  0  0  0  0  0
    3.9087    2.5390    0.4083 C   0  0  0  0  0  0  0  0  0  0  0  0
    5.2558    2.1958    0.1341 C   0  0  0  0  0  0  0  0  0  0  0  0
    5.2303    1.3896   -0.9856 C   0  0  0  0  0  0  0  0  0  0  0  0
    6.2796    0.7011   -1.7793 C   0  0  0  0  0  0  0  0  0  0  0  0
    6.5018   -0.6480   -1.2909 N   0  0  0  0  0  0  0  0  0  0  0  0
    6.9832   -1.0250   -0.0731 C   0  0  0  0  0  0  0  0  0  0  0  0
    7.0949   -2.3320   -0.0273 N   0  0  0  0  0  0  0  0  0  0  0  0
    6.6826   -2.7171   -1.2713 C   0  0  0  0  0  0  0  0  0  0  0  0
    6.3287   -1.7222   -2.0884 N   0  0  0  0  0  0  0  0  0  0  0  0
    3.9478    1.2441   -1.4209 O   0  0  0  0  0  0  0  0  0  0  0  0
   -0.6047    1.6030   -0.0139 C   0  0  0  0  0  0  0  0  0  0  0  0
   -5.8958    1.5684    3.5964 H   0  0  0  0  0  0  0  0  0  0  0  0
   -5.3553    0.2279    2.5694 H   0  0  0  0  0  0  0  0  0  0  0  0
   -4.2348    0.9637    3.7587 H   0  0  0  0  0  0  0  0  0  0  0  0
   -2.6956    1.4796    2.0478 H   0  0  0  0  0  0  0  0  0  0  0  0
   -3.1961    2.5801    0.7507 H   0  0  0  0  0  0  0  0  0  0  0  0
   -1.8105   -1.4574   -1.5994 H   0  0  0  0  0  0  0  0  0  0  0  0
   -2.8237   -2.7376    0.2627 H   0  0  0  0  0  0  0  0  0  0  0  0
   -4.4099   -2.1640   -0.1902 H   0  0  0  0  0  0  0  0  0  0  0  0
   -4.4249   -4.1354   -1.3834 H   0  0  0  0  0  0  0  0  0  0  0  0
   -2.6763   -4.1531   -1.5950 H   0  0  0  0  0  0  0  0  0  0  0  0
   -5.3683   -1.9070   -2.5325 H   0  0  0  0  0  0  0  0  0  0  0  0
   -4.6257   -1.6182   -4.1086 H   0  0  0  0  0  0  0  0  0  0  0  0
   -4.1939    0.1966   -2.3170 H   0  0  0  0  0  0  0  0  0  0  0  0
   -2.8227   -0.3711   -3.2293 H   0  0  0  0  0  0  0  0  0  0  0  0
   -0.5369   -0.4223   -0.5272 H   0  0  0  0  0  0  0  0  0  0  0  0
   -0.4176   -1.4115    1.4351 H   0  0  0  0  0  0  0  0  0  0  0  0
   -1.7467   -0.5476    2.1595 H   0  0  0  0  0  0  0  0  0  0  0  0
    0.5512   -0.1117    3.1950 H   0  0  0  0  0  0  0  0  0  0  0  0
   -0.3798    1.3175    2.7739 H   0  0  0  0  0  0  0  0  0  0  0  0
    1.9016    1.6692    2.0458 H   0  0  0  0  0  0  0  0  0  0  0  0
    1.9395    0.1212    1.1811 H   0  0  0  0  0  0  0  0  0  0  0  0
    3.5445    3.1763    1.2028 H   0  0  0  0  0  0  0  0  0  0  0  0
    6.1343    2.5050    0.6840 H   0  0  0  0  0  0  0  0  0  0  0  0
    7.2368    1.2289   -1.7097 H   0  0  0  0  0  0  0  0  0  0  0  0
    5.9978    0.6425   -2.8361 H   0  0  0  0  0  0  0  0  0  0  0  0
    7.2269   -0.3318    0.7191 H   0  0  0  0  0  0  0  0  0  0  0  0
    6.6454   -3.7506   -1.5921 H   0  0  0  0  0  0  0  0  0  0  0  0
   -1.0454    2.3115    0.6909 H   0  0  0  0  0  0  0  0  0  0  0  0
   -0.8408    1.9722   -1.0174 H   0  0  0  0  0  0  0  0  0  0  0  0
  1  2  1  0
  2  3  1  0
  3  4  1  0
  4  5  2  0
  4  6  1  0
  6  7  1  0
  7  8  1  0
  8  9  1  0
  9 10  1  0
 10 11  1  0
 11 12  1  0
  6 13  1  0
 13 14  1  0
 14 15  1  0
 15 16  1  0
 16 17  1  0
 17 18  1  0
 18 19  2  0
 18 20  1  0
 20 21  2  0
 21 22  1  0
 22 23  2  0
 23 24  1  0
 24 25  1  0
 25 26  1  0
 26 27  2  0
 27 28  1  0
 28 29  2  0
 23 30  1  0
 17 31  1  0
 12  7  1  0
 31 13  1  0
 30 20  1  0
 29 25  1  0
  1 32  1  0
  1 33  1  0
  1 34  1  0
  3 35  1  0
  3 36  1  0
  7 37  1  0
  8 38  1  0
  8 39  1  0
  9 40  1  0
  9 41  1  0
 11 42  1  0
 11 43  1  0
 12 44  1  0
 12 45  1  0
 13 46  1  0
 14 47  1  0
 14 48  1  0
 15 49  1  0
 15 50  1  0
 16 51  1  0
 16 52  1  0
 21 53  1  0
 22 54  1  0
 24 55  1  0
 24 56  1  0
 26 57  1  0
 28 58  1  0
 31 59  1  0
 31 60  1  0
M  END
$$$$
