
     RDKit          3D

 47 50  0  0  0  0  0  0  0  0999 V2000
    0.3958   -0.2124   -0.1316 O   0  0  0  0  0  0  0  0  0  0  0  0
    1.1108   -0.7199    0.7304 C   0  0  0  0  0  0  0  0  0  0  0  0
    2.4953   -0.6304    0.7381 N   0  0  0  0  0  0  0  0  0  0  0  0
    3.3375    0.0198   -0.1839 C   0  0  0  0  0  0  0  0  0  0  0  0
    4.7150   -0.0404    0.0590 C   0  0  0  0  0  0  0  0  0  0  0  0
    5.6302    0.5777   -0.8041 C   0  0  0  0  0  0  0  0  0  0  0  0
    5.1778    1.2671   -1.9268 C   0  0  0  0  0  0  0  0  0  0  0  0
    5.9459    1.9139   -2.8506 O   0  0  0  0  0  0  0  0  0  0  0  0
    7.3510    1.8955   -2.6715 C   0  0  0  0  0  0  0  0  0  0  0  0
    7.8303    0.6332   -2.6984 F   0  0  0  0  0  0  0  0  0  0  0  0
    7.9271    2.5844   -3.6815 F   0  0  0  0  0  0  0  0  0  0  0  0
    7.7025    2.4852   -1.5085 F   0  0  0  0  0  0  0  0  0  0  0  0
    3.8040    1.3273   -2.1699 C   0  0  0  0  0  0  0  0  0  0  0  0
    2.8894    0.7100   -1.3078 C   0  0  0  0  0  0  0  0  0  0  0  0
    0.5390   -1.4764    1.8505 C   0  0  0  0  0  0  0  0  0  0  0  0
    1.5173   -2.0294    3.1544 S   0  0  0  0  0  0  0  0  0  0  0  0
    0.1840   -2.7231    3.9594 C   0  0  0  0  0  0  0  0  0  0  0  0
   -0.9876   -2.5467    3.2594 C   0  0  0  0  0  0  0  0  0  0  0  0
   -0.7889   -1.8285    2.0447 C   0  0  0  0  0  0  0  0  0  0  0  0
   -1.7694   -1.5296    1.1512 N   0  0  0  0  0  0  0  0  0  0  0  0
   -3.1731   -1.4581    1.5104 C   0  0  0  0  0  0  0  0  0  0  0  0
   -3.9924   -1.0214    0.3172 C   0  0  0  0  0  0  0  0  0  0  0  0
   -4.6378   -2.0044   -0.4419 C   0  0  0  0  0  0  0  0  0  0  0  0
   -5.3960   -1.6133   -1.5262 C   0  0  0  0  0  0  0  0  0  0  0  0
   -5.5537   -0.3309   -1.9064 N   0  0  0  0  0  0  0  0  0  0  0  0
   -4.9178    0.6207   -1.2038 C   0  0  0  0  0  0  0  0  0  0  0  0
   -5.0639    1.9394   -1.6126 C   0  0  0  0  0  0  0  0  0  0  0  0
   -4.4307    2.9936   -0.9521 C   0  0  0  0  0  0  0  0  0  0  0  0
   -3.6261    2.7292    0.1459 C   0  0  0  0  0  0  0  0  0  0  0  0
   -3.4656    1.4140    0.5806 C   0  0  0  0  0  0  0  0  0  0  0  0
   -4.1098    0.3377   -0.0771 C   0  0  0  0  0  0  0  0  0  0  0  0
    2.9497   -1.0997    1.5116 H   0  0  0  0  0  0  0  0  0  0  0  0
    5.1023   -0.5706    0.9261 H   0  0  0  0  0  0  0  0  0  0  0  0
    6.6854    0.4942   -0.5602 H   0  0  0  0  0  0  0  0  0  0  0  0
    3.4295    1.8601   -3.0419 H   0  0  0  0  0  0  0  0  0  0  0  0
    1.8349    0.7914   -1.5515 H   0  0  0  0  0  0  0  0  0  0  0  0
    0.3184   -3.2321    4.9043 H   0  0  0  0  0  0  0  0  0  0  0  0
   -1.9359   -2.9316    3.6109 H   0  0  0  0  0  0  0  0  0  0  0  0
   -1.5171   -0.9276    0.3579 H   0  0  0  0  0  0  0  0  0  0  0  0
   -3.5253   -2.4400    1.8514 H   0  0  0  0  0  0  0  0  0  0  0  0
   -3.3346   -0.7695    2.3485 H   0  0  0  0  0  0  0  0  0  0  0  0
   -4.5492   -3.0578   -0.1964 H   0  0  0  0  0  0  0  0  0  0  0  0
   -5.9147   -2.3442   -2.1400 H   0  0  0  0  0  0  0  0  0  0  0  0
   -5.6871    2.1515   -2.4785 H   0  0  0  0  0  0  0  0  0  0  0  0
   -4.5635    4.0129   -1.3041 H   0  0  0  0  0  0  0  0  0  0  0  0
   -3.1180    3.5403    0.6610 H   0  0  0  0  0  0  0  0  0  0  0  0
   -2.8150    1.2390    1.4342 H   0  0  0  0  0  0  0  0  0  0  0  0
  1  2  2  0
  2  3  1  0
  3  4  1  0
  4  5  2  0
  5  6  1  0
  6  7  2  0
  7  8  1  0
  8  9  1  0
  9 10  1  0
  9 11  1  0
  9 12  1  0
  7 13  1  0
 13 14  2  0
  2 15  1  0
 15 16  1  0
 16 17  1  0
 17 18  2  0
 18 19  1  0
 19 20  1  0
 20 21  1  0
 21 22  1  0
 22 23  2  0
 23 24  1  0
 24 25  2  0
 25 26  1  0
 26 27  2  0
 27 28  1  0
 28 29  2  0
 29 30  1  0
 30 31  2  0
 14  4  1  0
 19 15  2  0
 31 22  1  0
 31 26  1  0
  3 32  1  0
  5 33  1  0
  6 34  1  0
 13 35  1  0
 14 36  1  0
 17 37  1  0
 18 38  1  0
 20 39  1  0
 21 40  1  0
 21 41  1  0
 23 42  1  0
 24 43  1  0
 27 44  1  0
 28 45  1  0
 29 46  1  0
 30 47  1  0
M  END
$$$$
