
     RDKit          3D

 46 48  0  0  0  0  0  0  0  0999 V2000
   -4.4009    0.8527    3.0691 C   0  0  0  0  0  0  0  0  0  0  0  0
   -4.2696   -0.4805    2.5886 O   0  0  0  0  0  0  0  0  0  0  0  0
   -3.5900   -0.6539    1.4157 C   0  0  0  0  0  0  0  0  0  0  0  0
   -3.6137   -1.9558    0.9143 C   0  0  0  0  0  0  0  0  0  0  0  0
   -2.9695   -2.2678   -0.2837 C   0  0  0  0  0  0  0  0  0  0  0  0
   -2.2942   -1.2746   -0.9975 C   0  0  0  0  0  0  0  0  0  0  0  0
   -1.6473   -1.6316   -2.1456 O   0  0  0  0  0  0  0  0  0  0  0  0
   -2.5738   -1.8299   -3.2172 C   0  0  0  0  0  0  0  0  0  0  0  0
   -2.2199    0.0178   -0.4771 C   0  0  0  0  0  0  0  0  0  0  0  0
   -1.3764    1.3377   -1.3255 S   0  0  0  0  0  6  0  0  0  0  0  0
   -1.8849    2.5784   -0.7716 O   0  0  0  0  0  0  0  0  0  0  0  0
   -1.4365    1.1034   -2.7515 O   0  0  0  0  0  0  0  0  0  0  0  0
    0.2232    1.2112   -0.8235 N   0  0  0  0  0  0  0  0  0  0  0  0
    1.0980    0.1521   -1.3641 C   0  0  0  0  0  0  0  0  0  0  0  0
    1.9991   -0.2702   -0.1922 C   0  0  1  0  0  0  0  0  0  0  0  0
    3.3687   -0.7645   -0.6693 C   0  0  0  0  0  0  0  0  0  0  0  0
    4.4365   -0.8371    0.4238 C   0  0  0  0  0  0  0  0  0  0  0  0
    4.8216    0.4820    1.1036 C   0  0  0  0  0  0  0  0  0  0  0  0
    4.3588    1.7363    0.3903 C   0  0  0  0  0  0  0  0  0  0  0  0
    5.1406    2.5522   -0.0876 O   0  0  0  0  0  0  0  0  0  0  0  0
    3.0075    1.9310    0.3007 N   0  0  0  0  0  0  0  0  0  0  0  0
    2.0071    0.9610    0.7153 C   0  0  1  0  0  0  0  0  0  0  0  0
    0.5692    1.4801    0.5839 C   0  0  0  0  0  0  0  0  0  0  0  0
   -2.8929    0.3323    0.7191 C   0  0  0  0  0  0  0  0  0  0  0  0
   -5.0230    0.8237    3.9689 H   0  0  0  0  0  0  0  0  0  0  0  0
   -3.4266    1.2652    3.3507 H   0  0  0  0  0  0  0  0  0  0  0  0
   -4.9044    1.4911    2.3355 H   0  0  0  0  0  0  0  0  0  0  0  0
   -4.1440   -2.7338    1.4593 H   0  0  0  0  0  0  0  0  0  0  0  0
   -2.9934   -3.2899   -0.6531 H   0  0  0  0  0  0  0  0  0  0  0  0
   -3.3022   -1.0136   -3.2836 H   0  0  0  0  0  0  0  0  0  0  0  0
   -3.0885   -2.7900   -3.1078 H   0  0  0  0  0  0  0  0  0  0  0  0
   -2.0041   -1.8548   -4.1508 H   0  0  0  0  0  0  0  0  0  0  0  0
    0.5541   -0.7100   -1.7467 H   0  0  0  0  0  0  0  0  0  0  0  0
    1.6760    0.5836   -2.1889 H   0  0  0  0  0  0  0  0  0  0  0  0
    1.4984   -1.0846    0.3504 H   0  0  0  0  0  0  0  0  0  0  0  0
    3.7436   -0.1355   -1.4871 H   0  0  0  0  0  0  0  0  0  0  0  0
    3.2428   -1.7636   -1.1060 H   0  0  0  0  0  0  0  0  0  0  0  0
    4.1264   -1.5555    1.1929 H   0  0  0  0  0  0  0  0  0  0  0  0
    5.3427   -1.2627   -0.0266 H   0  0  0  0  0  0  0  0  0  0  0  0
    5.9126    0.5309    1.2073 H   0  0  0  0  0  0  0  0  0  0  0  0
    4.4316    0.5077    2.1282 H   0  0  0  0  0  0  0  0  0  0  0  0
    2.7309    2.7230   -0.2722 H   0  0  0  0  0  0  0  0  0  0  0  0
    2.2131    0.6934    1.7570 H   0  0  0  0  0  0  0  0  0  0  0  0
   -0.0849    0.9133    1.2533 H   0  0  0  0  0  0  0  0  0  0  0  0
    0.4948    2.5472    0.8113 H   0  0  0  0  0  0  0  0  0  0  0  0
   -2.8568    1.3523    1.0901 H   0  0  0  0  0  0  0  0  0  0  0  0
  1  2  1  0
  2  3  1  0
  3  4  2  0
  4  5  1  0
  5  6  2  0
  6  7  1  0
  7  8  1  0
  6  9  1  0
  9 10  1  0
 10 11  2  0
 10 12  2  0
 10 13  1  0
 13 14  1  0
 14 15  1  0
 15 16  1  0
 16 17  1  0
 17 18  1  0
 18 19  1  0
 19 20  2  0
 19 21  1  0
 21 22  1  0
 22 23  1  0
  9 24  2  0
 24  3  1  0
 23 13  1  0
 22 15  1  0
  1 25  1  0
  1 26  1  0
  1 27  1  0
  4 28  1  0
  5 29  1  0
  8 30  1  0
  8 31  1  0
  8 32  1  0
 14 33  1  0
 14 34  1  0
 15 35  1  1
 16 36  1  0
 16 37  1  0
 17 38  1  0
 17 39  1  0
 18 40  1  0
 18 41  1  0
 21 42  1  0
 22 43  1  1
 23 44  1  0
 23 45  1  0
 24 46  1  0
M  END
$$$$
