
     RDKit          3D

 70 74  0  0  0  0  0  0  0  0999 V2000
    6.4534    0.5668   -2.9834 O   0  0  0  0  0  0  0  0  0  0  0  0
    7.0595    0.1230   -2.0041 C   0  0  0  0  0  0  0  0  0  0  0  0
    6.4099   -0.1245   -0.8092 N   0  0  0  0  0  0  0  0  0  0  0  0
    4.9981    0.1577   -0.6258 C   0  0  0  0  0  0  0  0  0  0  0  0
    4.1163   -0.9285   -1.2376 C   0  0  0  0  0  0  0  0  0  0  0  0
    2.6315   -0.6033   -1.0827 C   0  0  0  0  0  0  0  0  0  0  0  0
    2.2373   -0.7369    0.3193 N   0  0  0  0  0  0  0  0  0  0  0  0
    0.8956   -0.3769    0.5964 C   0  0  0  0  0  0  0  0  0  0  0  0
    0.1611    0.2013   -0.3746 N   0  0  0  0  0  0  0  0  0  0  0  0
   -1.0937    0.5838   -0.0959 C   0  0  0  0  0  0  0  0  0  0  0  0
   -1.7759    1.1679   -1.1593 N   0  0  0  0  0  0  0  0  0  0  0  0
   -3.0870    1.6181   -1.3477 C   0  0  0  0  0  0  0  0  0  0  0  0
   -3.4219    2.2161   -2.5729 C   0  0  0  0  0  0  0  0  0  0  0  0
   -4.7120    2.6905   -2.8238 C   0  0  0  0  0  0  0  0  0  0  0  0
   -5.6961    2.5782   -1.8467 C   0  0  0  0  0  0  0  0  0  0  0  0
   -5.3954    1.9948   -0.6116 C   0  0  0  0  0  0  0  0  0  0  0  0
   -6.4574    1.8670    0.4603 C   0  0  0  0  0  0  0  0  0  0  0  0
   -7.6186    1.0648    0.0373 N   0  0  0  0  0  0  0  0  0  0  0  0
   -8.6988    1.1178    1.0471 C   0  0  0  0  0  0  0  0  0  0  0  0
   -8.4172    0.2906    2.3140 C   0  0  0  0  0  0  0  0  0  0  0  0
   -8.1250   -1.0747    1.9956 O   0  0  0  0  0  0  0  0  0  0  0  0
   -7.0181   -1.1625    1.0893 C   0  0  0  0  0  0  0  0  0  0  0  0
   -7.2792   -0.3577   -0.1955 C   0  0  0  0  0  0  0  0  0  0  0  0
   -4.0888    1.5277   -0.3751 C   0  0  0  0  0  0  0  0  0  0  0  0
   -1.6508    0.4301    1.1082 N   0  0  0  0  0  0  0  0  0  0  0  0
   -0.8871   -0.1296    2.0649 C   0  0  0  0  0  0  0  0  0  0  0  0
    0.4095   -0.5782    1.8905 C   0  0  0  0  0  0  0  0  0  0  0  0
    1.2234   -1.1736    3.0177 C   0  0  0  0  0  0  0  0  0  0  0  0
    0.5942   -2.0867    4.0468 C   0  0  0  0  0  0  0  0  0  0  0  0
    1.5288   -2.6558    3.0246 C   0  0  0  0  0  0  0  0  0  0  0  0
    8.5738   -0.1949   -2.0145 C   0  0  0  0  0  0  0  0  0  0  0  0
    9.0640   -1.5889   -1.5384 C   0  0  0  0  0  0  0  0  0  0  0  0
   10.3207   -0.8854   -0.9897 C   0  0  0  0  0  0  0  0  0  0  0  0
    9.4815    0.4039   -0.9060 C   0  0  0  0  0  0  0  0  0  0  0  0
    6.9311   -0.4901   -0.0245 H   0  0  0  0  0  0  0  0  0  0  0  0
    4.8287    0.2373    0.4527 H   0  0  0  0  0  0  0  0  0  0  0  0
    4.7776    1.1313   -1.0774 H   0  0  0  0  0  0  0  0  0  0  0  0
    4.3474   -1.8984   -0.7794 H   0  0  0  0  0  0  0  0  0  0  0  0
    4.3421   -1.0264   -2.3060 H   0  0  0  0  0  0  0  0  0  0  0  0
    2.4466    0.4123   -1.4540 H   0  0  0  0  0  0  0  0  0  0  0  0
    2.0528   -1.3056   -1.6958 H   0  0  0  0  0  0  0  0  0  0  0  0
    2.3842   -1.6827    0.6620 H   0  0  0  0  0  0  0  0  0  0  0  0
   -1.1609    1.2052   -1.9588 H   0  0  0  0  0  0  0  0  0  0  0  0
   -2.6725    2.3183   -3.3545 H   0  0  0  0  0  0  0  0  0  0  0  0
   -4.9473    3.1427   -3.7831 H   0  0  0  0  0  0  0  0  0  0  0  0
   -6.7035    2.9359   -2.0484 H   0  0  0  0  0  0  0  0  0  0  0  0
   -6.7862    2.8890    0.6934 H   0  0  0  0  0  0  0  0  0  0  0  0
   -6.0110    1.4791    1.3834 H   0  0  0  0  0  0  0  0  0  0  0  0
   -8.9234    2.1567    1.3169 H   0  0  0  0  0  0  0  0  0  0  0  0
   -9.6074    0.7241    0.5733 H   0  0  0  0  0  0  0  0  0  0  0  0
   -9.3036    0.2935    2.9572 H   0  0  0  0  0  0  0  0  0  0  0  0
   -7.5895    0.7090    2.8974 H   0  0  0  0  0  0  0  0  0  0  0  0
   -6.8898   -2.2206    0.8354 H   0  0  0  0  0  0  0  0  0  0  0  0
   -6.1045   -0.8349    1.5995 H   0  0  0  0  0  0  0  0  0  0  0  0
   -8.1339   -0.8118   -0.7132 H   0  0  0  0  0  0  0  0  0  0  0  0
   -6.4318   -0.4624   -0.8815 H   0  0  0  0  0  0  0  0  0  0  0  0
   -3.8697    1.0783    0.5883 H   0  0  0  0  0  0  0  0  0  0  0  0
   -1.3732   -0.2066    3.0337 H   0  0  0  0  0  0  0  0  0  0  0  0
    2.0194   -0.5259    3.3857 H   0  0  0  0  0  0  0  0  0  0  0  0
   -0.4523   -2.3560    3.9639 H   0  0  0  0  0  0  0  0  0  0  0  0
    0.9451   -2.0109    5.0704 H   0  0  0  0  0  0  0  0  0  0  0  0
    2.5124   -2.9683    3.3561 H   0  0  0  0  0  0  0  0  0  0  0  0
    1.1015   -3.2873    2.2535 H   0  0  0  0  0  0  0  0  0  0  0  0
    8.9860    0.0358   -3.0108 H   0  0  0  0  0  0  0  0  0  0  0  0
    8.4505   -2.0592   -0.7620 H   0  0  0  0  0  0  0  0  0  0  0  0
    9.2469   -2.3205   -2.3303 H   0  0  0  0  0  0  0  0  0  0  0  0
   10.7048   -1.2656   -0.0401 H   0  0  0  0  0  0  0  0  0  0  0  0
   11.1429   -0.8287   -1.7115 H   0  0  0  0  0  0  0  0  0  0  0  0
   10.0093    1.3231   -1.1737 H   0  0  0  0  0  0  0  0  0  0  0  0
    8.9960    0.5484    0.0652 H   0  0  0  0  0  0  0  0  0  0  0  0
  1  2  2  0
  2  3  1  0
  3  4  1  0
  4  5  1  0
  5  6  1  0
  6  7  1  0
  7  8  1  0
  8  9  2  0
  9 10  1  0
 10 11  1  0
 11 12  1  0
 12 13  2  0
 13 14  1  0
 14 15  2  0
 15 16  1  0
 16 17  1  0
 17 18  1  0
 18 19  1  0
 19 20  1  0
 20 21  1  0
 21 22  1  0
 22 23  1  0
 16 24  2  0
 10 25  2  0
 25 26  1  0
 26 27  2  0
 27 28  1  0
 28 29  1  0
 29 30  1  0
  2 31  1  0
 31 32  1  0
 32 33  1  0
 33 34  1  0
 27  8  1  0
 30 28  1  0
 34 31  1  0
 24 12  1  0
 23 18  1  0
  3 35  1  0
  4 36  1  0
  4 37  1  0
  5 38  1  0
  5 39  1  0
  6 40  1  0
  6 41  1  0
  7 42  1  0
 11 43  1  0
 13 44  1  0
 14 45  1  0
 15 46  1  0
 17 47  1  0
 17 48  1  0
 19 49  1  0
 19 50  1  0
 20 51  1  0
 20 52  1  0
 22 53  1  0
 22 54  1  0
 23 55  1  0
 23 56  1  0
 24 57  1  0
 26 58  1  0
 28 59  1  0
 29 60  1  0
 29 61  1  0
 30 62  1  0
 30 63  1  0
 31 64  1  0
 32 65  1  0
 32 66  1  0
 33 67  1  0
 33 68  1  0
 34 69  1  0
 34 70  1  0
M  END
$$$$
