
     RDKit          3D

 43 46  0  0  0  0  0  0  0  0999 V2000
    6.4295   -2.3179   -3.2317 N   0  0  0  0  0  0  0  0  0  0  0  0
    6.0978   -1.7177   -2.2952 C   0  0  0  0  0  0  0  0  0  0  0  0
    5.6794   -0.9806   -1.1386 C   0  0  0  0  0  0  0  0  0  0  0  0
    6.6195   -0.5894   -0.1846 C   0  0  0  0  0  0  0  0  0  0  0  0
    6.2356    0.1404    0.9433 C   0  0  0  0  0  0  0  0  0  0  0  0
    4.8786    0.4554    1.0844 C   0  0  0  0  0  0  0  0  0  0  0  0
    4.2433    1.1721    2.0703 N   0  0  0  0  0  0  0  0  0  0  0  0
    2.9103    1.2687    1.8032 C   0  0  0  0  0  0  0  0  0  0  0  0
    2.1282    1.9728    2.6142 O   0  0  0  0  0  0  0  0  0  0  0  0
    2.6375    0.5539    0.6488 C   0  0  0  0  0  0  0  0  0  0  0  0
    1.2775    0.4228    0.1303 C   0  0  0  0  0  0  0  0  0  0  0  0
    0.8789   -0.6686   -0.6312 C   0  0  0  0  0  0  0  0  0  0  0  0
   -0.4414   -0.7338   -1.0780 C   0  0  0  0  0  0  0  0  0  0  0  0
   -1.3410    0.2797   -0.7429 C   0  0  0  0  0  0  0  0  0  0  0  0
   -2.7678    0.2641   -1.2314 C   0  0  0  0  0  0  0  0  0  0  0  0
   -3.7503    0.4700   -0.1584 N   0  0  0  0  0  0  0  0  0  0  0  0
   -5.0729    0.8088   -0.7298 C   0  0  0  0  0  0  0  0  0  0  0  0
   -6.2142    0.5042    0.2504 C   0  0  0  0  0  0  0  0  0  0  0  0
   -6.3255   -0.8956    0.5416 O   0  0  0  0  0  0  0  0  0  0  0  0
   -5.0723   -1.5883    0.4702 C   0  0  0  0  0  0  0  0  0  0  0  0
   -3.8612   -0.6869    0.7594 C   0  0  0  0  0  0  0  0  0  0  0  0
   -0.8570    1.3249    0.0356 C   0  0  0  0  0  0  0  0  0  0  0  0
    0.4168    1.4144    0.4877 N   0  0  0  0  0  0  0  0  0  0  0  0
    3.9003    0.0658    0.1631 C   0  0  0  0  0  0  0  0  0  0  0  0
    4.3225   -0.6558   -0.9771 C   0  0  0  0  0  0  0  0  0  0  0  0
    7.6709   -0.8428   -0.3144 H   0  0  0  0  0  0  0  0  0  0  0  0
    6.9698    0.4558    1.6788 H   0  0  0  0  0  0  0  0  0  0  0  0
    4.6897    1.6033    2.8663 H   0  0  0  0  0  0  0  0  0  0  0  0
    1.2543    1.9973    2.1605 H   0  0  0  0  0  0  0  0  0  0  0  0
    1.5588   -1.4790   -0.8629 H   0  0  0  0  0  0  0  0  0  0  0  0
   -0.7596   -1.5822   -1.6788 H   0  0  0  0  0  0  0  0  0  0  0  0
   -2.8483    1.0736   -1.9698 H   0  0  0  0  0  0  0  0  0  0  0  0
   -2.9795   -0.6698   -1.7687 H   0  0  0  0  0  0  0  0  0  0  0  0
   -5.2509    0.2327   -1.6478 H   0  0  0  0  0  0  0  0  0  0  0  0
   -5.0854    1.8725   -0.9915 H   0  0  0  0  0  0  0  0  0  0  0  0
   -7.1708    0.8269   -0.1730 H   0  0  0  0  0  0  0  0  0  0  0  0
   -6.0775    1.0443    1.1947 H   0  0  0  0  0  0  0  0  0  0  0  0
   -5.1113   -2.4082    1.1946 H   0  0  0  0  0  0  0  0  0  0  0  0
   -4.9891   -2.0390   -0.5257 H   0  0  0  0  0  0  0  0  0  0  0  0
   -2.9477   -1.2913    0.7784 H   0  0  0  0  0  0  0  0  0  0  0  0
   -3.9752   -0.2759    1.7705 H   0  0  0  0  0  0  0  0  0  0  0  0
   -1.5065    2.1459    0.3318 H   0  0  0  0  0  0  0  0  0  0  0  0
    3.6060   -0.9472   -1.7400 H   0  0  0  0  0  0  0  0  0  0  0  0
  1  2  3  0
  2  3  1  0
  3  4  2  0
  4  5  1  0
  5  6  2  0
  6  7  1  0
  7  8  1  0
  8  9  1  0
  8 10  2  0
 10 11  1  0
 11 12  2  0
 12 13  1  0
 13 14  2  0
 14 15  1  0
 15 16  1  0
 16 17  1  0
 17 18  1  0
 18 19  1  0
 19 20  1  0
 20 21  1  0
 14 22  1  0
 22 23  2  0
 10 24  1  0
 24 25  2  0
 25  3  1  0
 24  6  1  0
 23 11  1  0
 21 16  1  0
  4 26  1  0
  5 27  1  0
  7 28  1  0
  9 29  1  0
 12 30  1  0
 13 31  1  0
 15 32  1  0
 15 33  1  0
 17 34  1  0
 17 35  1  0
 18 36  1  0
 18 37  1  0
 20 38  1  0
 20 39  1  0
 21 40  1  0
 21 41  1  0
 22 42  1  0
 25 43  1  0
M  END
$$$$
