
     RDKit          3D

 45 47  0  0  0  0  0  0  0  0999 V2000
    7.5397   -0.7460   -0.8213 C   0  0  0  0  0  0  0  0  0  0  0  0
    6.3505    0.0376   -0.3950 C   0  0  0  0  0  0  0  0  0  0  0  0
    5.0952   -0.5008   -0.6292 N   0  0  0  0  0  0  0  0  0  0  0  0
    4.1740    0.3198   -0.2046 C   0  0  0  0  0  0  0  0  0  0  0  0
    2.8165    0.1930   -0.2335 N   0  0  0  0  0  0  0  0  0  0  0  0
    2.1859   -0.8888   -0.7983 C   0  0  0  0  0  0  0  0  0  0  0  0
    2.6768   -1.8509   -1.3712 O   0  0  0  0  0  0  0  0  0  0  0  0
    0.6944   -0.7675   -0.6618 C   0  0  0  0  0  0  0  0  0  0  0  0
    0.0430   -0.6120   -1.8222 C   0  0  0  0  0  0  0  0  0  0  0  0
   -1.4218   -0.4078   -1.7854 C   0  0  0  0  0  0  0  0  0  0  0  0
   -2.0333   -0.2253   -2.8345 O   0  0  0  0  0  0  0  0  0  0  0  0
   -2.1061   -0.4048   -0.4454 C   0  0  0  0  0  0  0  0  0  0  0  0
   -3.4705   -0.2221   -0.4531 O   0  0  0  0  0  0  0  0  0  0  0  0
   -4.1535   -0.1886    0.7977 C   0  0  0  0  0  0  0  0  0  0  0  0
   -5.6337    0.0501    0.5991 C   0  0  0  0  0  0  0  0  0  0  0  0
   -6.5399   -0.3637    1.5884 C   0  0  0  0  0  0  0  0  0  0  0  0
   -7.9083   -0.1238    1.4463 C   0  0  0  0  0  0  0  0  0  0  0  0
   -8.3867    0.5413    0.3194 C   0  0  0  0  0  0  0  0  0  0  0  0
   -7.4977    0.9702   -0.6637 C   0  0  0  0  0  0  0  0  0  0  0  0
   -6.1290    0.7312   -0.5231 C   0  0  0  0  0  0  0  0  0  0  0  0
   -1.3116   -0.5842    0.6281 C   0  0  0  0  0  0  0  0  0  0  0  0
    0.0697   -0.7679    0.5933 N   0  0  0  0  0  0  0  0  0  0  0  0
    0.8045   -1.1395    1.8112 C   0  0  0  0  0  0  0  0  0  0  0  0
    4.7207    1.7673    0.5114 S   0  0  0  0  0  0  0  0  0  0  0  0
    6.3428    1.2785    0.2238 C   0  0  0  0  0  0  0  0  0  0  0  0
    7.4740    2.1551    0.6274 C   0  0  0  0  0  0  0  0  0  0  0  0
    8.2054   -0.9257    0.0284 H   0  0  0  0  0  0  0  0  0  0  0  0
    7.2447   -1.7172   -1.2311 H   0  0  0  0  0  0  0  0  0  0  0  0
    8.0954   -0.2053   -1.5935 H   0  0  0  0  0  0  0  0  0  0  0  0
    2.2758    0.9482    0.1597 H   0  0  0  0  0  0  0  0  0  0  0  0
    0.5218   -0.6111   -2.7932 H   0  0  0  0  0  0  0  0  0  0  0  0
   -4.0144   -1.1503    1.3064 H   0  0  0  0  0  0  0  0  0  0  0  0
   -3.7602    0.6255    1.4185 H   0  0  0  0  0  0  0  0  0  0  0  0
   -6.1860   -0.8811    2.4772 H   0  0  0  0  0  0  0  0  0  0  0  0
   -8.6015   -0.4560    2.2147 H   0  0  0  0  0  0  0  0  0  0  0  0
   -9.4516    0.7263    0.2067 H   0  0  0  0  0  0  0  0  0  0  0  0
   -7.8676    1.4907   -1.5432 H   0  0  0  0  0  0  0  0  0  0  0  0
   -5.4514    1.0751   -1.3034 H   0  0  0  0  0  0  0  0  0  0  0  0
   -1.7158   -0.6085    1.6342 H   0  0  0  0  0  0  0  0  0  0  0  0
    1.4482   -2.0081    1.6326 H   0  0  0  0  0  0  0  0  0  0  0  0
    1.4199   -0.3013    2.1530 H   0  0  0  0  0  0  0  0  0  0  0  0
    0.1257   -1.4069    2.6292 H   0  0  0  0  0  0  0  0  0  0  0  0
    7.4398    2.3624    1.7024 H   0  0  0  0  0  0  0  0  0  0  0  0
    7.4370    3.1072    0.0874 H   0  0  0  0  0  0  0  0  0  0  0  0
    8.4390    1.6858    0.4110 H   0  0  0  0  0  0  0  0  0  0  0  0
  1  2  1  0
  2  3  1  0
  3  4  2  0
  4  5  1  0
  5  6  1  0
  6  7  2  0
  6  8  1  0
  8  9  2  0
  9 10  1  0
 10 11  2  0
 10 12  1  0
 12 13  1  0
 13 14  1  0
 14 15  1  0
 15 16  2  0
 16 17  1  0
 17 18  2  0
 18 19  1  0
 19 20  2  0
 12 21  2  0
 21 22  1  0
 22 23  1  0
  4 24  1  0
 24 25  1  0
 25 26  1  0
 25  2  2  0
 22  8  1  0
 20 15  1  0
  1 27  1  0
  1 28  1  0
  1 29  1  0
  5 30  1  0
  9 31  1  0
 14 32  1  0
 14 33  1  0
 16 34  1  0
 17 35  1  0
 18 36  1  0
 19 37  1  0
 20 38  1  0
 21 39  1  0
 23 40  1  0
 23 41  1  0
 23 42  1  0
 26 43  1  0
 26 44  1  0
 26 45  1  0
M  END
$$$$
