
     RDKit          3D

 47 50  0  0  0  0  0  0  0  0999 V2000
   -1.7082   -3.2363   -0.1372 C   0  0  0  0  0  0  0  0  0  0  0  0
   -2.1953   -1.8133   -0.1595 C   0  0  0  0  0  0  0  0  0  0  0  0
   -2.8857   -1.3796   -1.3098 C   0  0  0  0  0  0  0  0  0  0  0  0
   -3.4178   -0.0911   -1.3885 C   0  0  0  0  0  0  0  0  0  0  0  0
   -3.2859    0.7875   -0.3183 C   0  0  0  0  0  0  0  0  0  0  0  0
   -2.6099    0.3796    0.8282 C   0  0  0  0  0  0  0  0  0  0  0  0
   -2.0422   -0.9047    0.9086 C   0  0  0  0  0  0  0  0  0  0  0  0
   -1.2012   -1.3088    2.4441 S   0  0  0  0  0  6  0  0  0  0  0  0
   -1.0839   -2.7464    2.5492 O   0  0  0  0  0  0  0  0  0  0  0  0
   -1.8396   -0.5457    3.4961 O   0  0  0  0  0  0  0  0  0  0  0  0
    0.3554   -0.6809    2.2172 N   0  0  0  0  0  0  0  0  0  0  0  0
    1.2495   -1.3873    1.2636 C   0  0  0  0  0  0  0  0  0  0  0  0
    2.6091   -0.6853    1.1458 C   0  0  0  0  0  0  0  0  0  0  0  0
    2.4718    0.7109    0.7208 N   0  0  0  0  0  0  0  0  0  0  0  0
    3.4671    1.4443    0.0948 C   0  0  0  0  0  0  0  0  0  0  0  0
    3.3261    2.6103   -0.2559 O   0  0  0  0  0  0  0  0  0  0  0  0
    4.7659    0.7545   -0.1454 C   0  0  0  0  0  0  0  0  0  0  0  0
    5.6836    1.2205   -1.2551 C   0  0  0  0  0  0  0  0  0  0  0  0
    4.9560   -0.0817   -1.3918 C   0  0  0  0  0  0  0  0  0  0  0  0
    1.2049    1.3707    1.0426 C   0  0  0  0  0  0  0  0  0  0  0  0
    0.5508    0.7953    2.3043 C   0  0  0  0  0  0  0  0  0  0  0  0
   -3.7565    2.0683   -0.3152 O   0  0  0  0  0  0  0  0  0  0  0  0
   -4.5981    2.4114   -1.4051 C   0  0  0  0  0  0  0  0  0  0  0  0
   -4.6598    1.5376   -2.6579 C   0  0  0  0  0  0  0  0  0  0  0  0
   -5.2239    1.8856   -3.6927 O   0  0  0  0  0  0  0  0  0  0  0  0
   -4.0752    0.3078   -2.5492 N   0  0  0  0  0  0  0  0  0  0  0  0
   -2.2939   -3.8239    0.5756 H   0  0  0  0  0  0  0  0  0  0  0  0
   -1.8247   -3.7131   -1.1172 H   0  0  0  0  0  0  0  0  0  0  0  0
   -0.6446   -3.2910    0.1052 H   0  0  0  0  0  0  0  0  0  0  0  0
   -3.0162   -2.0626   -2.1479 H   0  0  0  0  0  0  0  0  0  0  0  0
   -2.5389    1.0726    1.6648 H   0  0  0  0  0  0  0  0  0  0  0  0
    0.7826   -1.4130    0.2734 H   0  0  0  0  0  0  0  0  0  0  0  0
    1.4098   -2.4146    1.6070 H   0  0  0  0  0  0  0  0  0  0  0  0
    3.2435   -1.2321    0.4434 H   0  0  0  0  0  0  0  0  0  0  0  0
    3.1173   -0.6728    2.1170 H   0  0  0  0  0  0  0  0  0  0  0  0
    5.2639    0.4262    0.7616 H   0  0  0  0  0  0  0  0  0  0  0  0
    5.3623    2.0530   -1.8725 H   0  0  0  0  0  0  0  0  0  0  0  0
    6.7516    1.1965   -1.0719 H   0  0  0  0  0  0  0  0  0  0  0  0
    4.1458   -0.1278   -2.1113 H   0  0  0  0  0  0  0  0  0  0  0  0
    5.5302   -0.9963   -1.3083 H   0  0  0  0  0  0  0  0  0  0  0  0
    1.3593    2.4479    1.1636 H   0  0  0  0  0  0  0  0  0  0  0  0
    0.5468    1.2266    0.1778 H   0  0  0  0  0  0  0  0  0  0  0  0
    1.1957    0.9826    3.1719 H   0  0  0  0  0  0  0  0  0  0  0  0
   -0.3879    1.3203    2.4950 H   0  0  0  0  0  0  0  0  0  0  0  0
   -4.2936    3.4114   -1.7337 H   0  0  0  0  0  0  0  0  0  0  0  0
   -5.6207    2.4890   -1.0183 H   0  0  0  0  0  0  0  0  0  0  0  0
   -4.1453   -0.3020   -3.3530 H   0  0  0  0  0  0  0  0  0  0  0  0
  1  2  1  0
  2  3  2  0
  3  4  1  0
  4  5  2  0
  5  6  1  0
  6  7  2  0
  7  8  1  0
  8  9  2  0
  8 10  2  0
  8 11  1  0
 11 12  1  0
 12 13  1  0
 13 14  1  0
 14 15  1  0
 15 16  2  0
 15 17  1  0
 17 18  1  0
 18 19  1  0
 14 20  1  0
 20 21  1  0
  5 22  1  0
 22 23  1  0
 23 24  1  0
 24 25  2  0
 24 26  1  0
  7  2  1  0
 21 11  1  0
 26  4  1  0
 19 17  1  0
  1 27  1  0
  1 28  1  0
  1 29  1  0
  3 30  1  0
  6 31  1  0
 12 32  1  0
 12 33  1  0
 13 34  1  0
 13 35  1  0
 17 36  1  0
 18 37  1  0
 18 38  1  0
 19 39  1  0
 19 40  1  0
 20 41  1  0
 20 42  1  0
 21 43  1  0
 21 44  1  0
 23 45  1  0
 23 46  1  0
 26 47  1  0
M  END
$$$$
