
     RDKit          3D

 46 49  0  0  0  0  0  0  0  0999 V2000
   -1.8621    3.0721   -0.0845 O   0  0  0  0  0  0  0  0  0  0  0  0
   -2.3359    1.9354   -0.1349 C   0  0  0  0  0  0  0  0  0  0  0  0
   -3.6586    1.6854   -0.6621 C   0  0  0  0  0  0  0  0  0  0  0  0
   -4.2888    0.6175   -1.2669 C   0  0  0  0  0  0  0  0  0  0  0  0
   -5.5844    0.9368   -1.5909 N   0  0  0  0  0  0  0  0  0  0  0  0
   -5.6922    2.1865   -1.2048 C   0  0  0  0  0  0  0  0  0  0  0  0
   -4.5755    2.7140   -0.6402 O   0  0  0  0  0  0  0  0  0  0  0  0
   -1.5831    0.8638    0.3268 N   0  0  0  0  0  0  0  0  0  0  0  0
   -2.0260   -0.4932    0.6262 C   0  0  0  0  0  0  0  0  0  0  0  0
   -0.9511   -1.0066    1.5896 C   0  0  1  0  0  0  0  0  0  0  0  0
   -1.0350   -2.4871    1.9244 C   0  0  0  0  0  0  0  0  0  0  0  0
   -0.4085   -3.4459    0.9353 C   0  0  0  0  0  0  0  0  0  0  0  0
    1.0808   -3.1922    0.8080 C   0  0  0  0  0  0  0  0  0  0  0  0
    1.3508   -2.2574   -0.3374 C   0  0  0  0  0  0  0  0  0  0  0  0
    1.9721   -2.6784   -1.3149 O   0  0  0  0  0  0  0  0  0  0  0  0
    0.8637   -0.9556   -0.2469 N   0  0  0  0  0  0  0  0  0  0  0  0
    1.2609   -0.0716   -1.3611 C   0  0  0  0  0  0  0  0  0  0  0  0
    2.4871    0.7761   -1.0817 C   0  0  0  0  0  0  0  0  0  0  0  0
    2.4710    2.1500   -1.3733 C   0  0  0  0  0  0  0  0  0  0  0  0
    3.5956    2.9442   -1.1408 C   0  0  0  0  0  0  0  0  0  0  0  0
    4.7589    2.3736   -0.6312 C   0  0  0  0  0  0  0  0  0  0  0  0
    4.8006    1.0079   -0.3624 C   0  0  0  0  0  0  0  0  0  0  0  0
    3.6752    0.2133   -0.5925 C   0  0  0  0  0  0  0  0  0  0  0  0
    0.3398   -0.3536    1.0203 C   0  0  1  0  0  0  0  0  0  0  0  0
   -0.2379    1.0790    0.8584 C   0  0  0  0  0  0  0  0  0  0  0  0
   -3.8857   -0.3561   -1.5037 H   0  0  0  0  0  0  0  0  0  0  0  0
   -6.5507    2.8390   -1.2816 H   0  0  0  0  0  0  0  0  0  0  0  0
   -3.0206   -0.4861    1.0812 H   0  0  0  0  0  0  0  0  0  0  0  0
   -2.0423   -1.0670   -0.3054 H   0  0  0  0  0  0  0  0  0  0  0  0
   -1.1483   -0.5073    2.5538 H   0  0  0  0  0  0  0  0  0  0  0  0
   -0.5529   -2.6437    2.8993 H   0  0  0  0  0  0  0  0  0  0  0  0
   -2.0868   -2.7642    2.0699 H   0  0  0  0  0  0  0  0  0  0  0  0
   -0.9172   -3.3853   -0.0339 H   0  0  0  0  0  0  0  0  0  0  0  0
   -0.5613   -4.4654    1.3103 H   0  0  0  0  0  0  0  0  0  0  0  0
    1.5844   -4.1397    0.5785 H   0  0  0  0  0  0  0  0  0  0  0  0
    1.5401   -2.8105    1.7257 H   0  0  0  0  0  0  0  0  0  0  0  0
    0.3974    0.5497   -1.6217 H   0  0  0  0  0  0  0  0  0  0  0  0
    1.4640   -0.6568   -2.2663 H   0  0  0  0  0  0  0  0  0  0  0  0
    1.5759    2.6172   -1.7810 H   0  0  0  0  0  0  0  0  0  0  0  0
    3.5638    4.0078   -1.3634 H   0  0  0  0  0  0  0  0  0  0  0  0
    5.6363    2.9903   -0.4555 H   0  0  0  0  0  0  0  0  0  0  0  0
    5.7137    0.5560    0.0164 H   0  0  0  0  0  0  0  0  0  0  0  0
    3.7429   -0.8548   -0.4010 H   0  0  0  0  0  0  0  0  0  0  0  0
    1.1569   -0.3661    1.7497 H   0  0  0  0  0  0  0  0  0  0  0  0
   -0.3518    1.5580    1.8401 H   0  0  0  0  0  0  0  0  0  0  0  0
    0.3247    1.7711    0.2363 H   0  0  0  0  0  0  0  0  0  0  0  0
  1  2  2  0
  2  3  1  0
  3  4  2  0
  4  5  1  0
  5  6  2  0
  6  7  1  0
  2  8  1  0
  8  9  1  0
  9 10  1  0
 10 11  1  0
 11 12  1  0
 12 13  1  0
 13 14  1  0
 14 15  2  0
 14 16  1  0
 16 17  1  0
 17 18  1  0
 18 19  2  0
 19 20  1  0
 20 21  2  0
 21 22  1  0
 22 23  2  0
 16 24  1  0
 24 25  1  0
  7  3  1  0
 25  8  1  0
 24 10  1  0
 23 18  1  0
  4 26  1  0
  6 27  1  0
  9 28  1  0
  9 29  1  0
 10 30  1  1
 11 31  1  0
 11 32  1  0
 12 33  1  0
 12 34  1  0
 13 35  1  0
 13 36  1  0
 17 37  1  0
 17 38  1  0
 19 39  1  0
 20 40  1  0
 21 41  1  0
 22 42  1  0
 23 43  1  0
 24 44  1  1
 25 45  1  0
 25 46  1  0
M  END
$$$$
