
     RDKit          3D

 32 34  0  0  0  0  0  0  0  0999 V2000
    0.1920    1.5016   -2.1460 O   0  0  0  0  0  0  0  0  0  0  0  0
   -0.1281    0.6511   -1.3270 C   0  0  0  0  0  0  0  0  0  0  0  0
   -1.5715    0.2838   -1.0845 C   0  0  0  0  0  0  0  0  0  0  0  0
   -2.1901    1.2838   -0.1033 C   0  0  0  0  0  0  0  0  0  0  0  0
   -3.4221    0.7278    0.5962 C   0  0  0  0  0  0  0  0  0  0  0  0
   -3.0971   -0.5809    1.3037 C   0  0  0  0  0  0  0  0  0  0  0  0
   -2.5867   -1.6249    0.3171 C   0  0  0  0  0  0  0  0  0  0  0  0
   -1.4314   -1.1290   -0.5445 C   0  0  0  0  0  0  0  0  0  0  0  0
   -0.0918   -1.0715    0.1531 C   0  0  0  0  0  0  0  0  0  0  0  0
    0.2053   -1.8042    1.0855 O   0  0  0  0  0  0  0  0  0  0  0  0
    0.6641   -0.0961   -0.4740 N   0  0  0  0  0  0  0  0  0  0  0  0
    2.0621    0.1203   -0.2558 C   0  0  0  0  0  0  0  0  0  0  0  0
    2.7120    1.2748   -0.7310 C   0  0  0  0  0  0  0  0  0  0  0  0
    4.0805    1.4871   -0.5182 C   0  0  0  0  0  0  0  0  0  0  0  0
    4.8219    0.5450    0.1747 C   0  0  0  0  0  0  0  0  0  0  0  0
    6.1295    0.7465    0.3788 F   0  0  0  0  0  0  0  0  0  0  0  0
    4.2191   -0.6042    0.6576 C   0  0  0  0  0  0  0  0  0  0  0  0
    2.8505   -0.8134    0.4430 C   0  0  0  0  0  0  0  0  0  0  0  0
   -2.1262    0.2714   -2.0291 H   0  0  0  0  0  0  0  0  0  0  0  0
   -1.4569    1.5860    0.6565 H   0  0  0  0  0  0  0  0  0  0  0  0
   -2.4549    2.2026   -0.6409 H   0  0  0  0  0  0  0  0  0  0  0  0
   -3.7921    1.4585    1.3243 H   0  0  0  0  0  0  0  0  0  0  0  0
   -4.2238    0.5680   -0.1348 H   0  0  0  0  0  0  0  0  0  0  0  0
   -3.9940   -0.9604    1.8062 H   0  0  0  0  0  0  0  0  0  0  0  0
   -2.3451   -0.4054    2.0825 H   0  0  0  0  0  0  0  0  0  0  0  0
   -3.4157   -1.9060   -0.3454 H   0  0  0  0  0  0  0  0  0  0  0  0
   -2.3032   -2.5323    0.8629 H   0  0  0  0  0  0  0  0  0  0  0  0
   -1.2960   -1.8341   -1.3775 H   0  0  0  0  0  0  0  0  0  0  0  0
    2.1788    2.0561   -1.2654 H   0  0  0  0  0  0  0  0  0  0  0  0
    4.5634    2.3855   -0.8901 H   0  0  0  0  0  0  0  0  0  0  0  0
    4.8110   -1.3372    1.1970 H   0  0  0  0  0  0  0  0  0  0  0  0
    2.4363   -1.7409    0.8285 H   0  0  0  0  0  0  0  0  0  0  0  0
  1  2  2  0
  2  3  1  0
  3  4  1  0
  4  5  1  0
  5  6  1  0
  6  7  1  0
  7  8  1  0
  8  9  1  0
  9 10  2  0
  9 11  1  0
 11 12  1  0
 12 13  2  0
 13 14  1  0
 14 15  2  0
 15 16  1  0
 15 17  1  0
 17 18  2  0
 11  2  1  0
 18 12  1  0
  8  3  1  0
  3 19  1  0
  4 20  1  0
  4 21  1  0
  5 22  1  0
  5 23  1  0
  6 24  1  0
  6 25  1  0
  7 26  1  0
  7 27  1  0
  8 28  1  0
 13 29  1  0
 14 30  1  0
 17 31  1  0
 18 32  1  0
M  END
$$$$
