
     RDKit          3D

 34 35  0  0  0  0  0  0  0  0999 V2000
   -6.5642    1.3846   -1.1761 C   0  0  0  0  0  0  0  0  0  0  0  0
   -5.1483    1.4049   -1.3104 O   0  0  0  0  0  0  0  0  0  0  0  0
   -4.4343    0.6313   -0.4362 C   0  0  0  0  0  0  0  0  0  0  0  0
   -4.9654   -0.1700    0.5716 C   0  0  0  0  0  0  0  0  0  0  0  0
   -4.1121   -0.9088    1.3931 C   0  0  0  0  0  0  0  0  0  0  0  0
   -2.7272   -0.8513    1.2129 C   0  0  0  0  0  0  0  0  0  0  0  0
   -2.1809   -0.0539    0.2084 C   0  0  0  0  0  0  0  0  0  0  0  0
   -0.7966    0.0648   -0.0445 N   0  0  0  0  0  0  0  0  0  0  0  0
    0.2331   -0.5654    0.6241 C   0  0  0  0  0  0  0  0  0  0  0  0
    0.1404   -1.3488    1.5598 O   0  0  0  0  0  0  0  0  0  0  0  0
    1.5657   -0.1853    0.0710 C   0  0  0  0  0  0  0  0  0  0  0  0
    2.6810   -0.7273    0.5851 C   0  0  0  0  0  0  0  0  0  0  0  0
    4.0333   -0.4291    0.0983 C   0  0  0  0  0  0  0  0  0  0  0  0
    4.9687   -1.4702    0.0236 C   0  0  0  0  0  0  0  0  0  0  0  0
    6.2741   -1.2245   -0.4124 C   0  0  0  0  0  0  0  0  0  0  0  0
    6.6535    0.0681   -0.7645 C   0  0  0  0  0  0  0  0  0  0  0  0
    8.2594    0.3731   -1.3002 Cl  0  0  0  0  0  0  0  0  0  0  0  0
    5.7410    1.1169   -0.6793 C   0  0  0  0  0  0  0  0  0  0  0  0
    4.4353    0.8695   -0.2439 C   0  0  0  0  0  0  0  0  0  0  0  0
   -3.0464    0.6840   -0.6107 C   0  0  0  0  0  0  0  0  0  0  0  0
   -6.8735    1.7688   -0.1984 H   0  0  0  0  0  0  0  0  0  0  0  0
   -6.9631    0.3800   -1.3515 H   0  0  0  0  0  0  0  0  0  0  0  0
   -6.9817    2.0466   -1.9409 H   0  0  0  0  0  0  0  0  0  0  0  0
   -6.0332   -0.2440    0.7463 H   0  0  0  0  0  0  0  0  0  0  0  0
   -4.5240   -1.5352    2.1808 H   0  0  0  0  0  0  0  0  0  0  0  0
   -2.1047   -1.4431    1.8766 H   0  0  0  0  0  0  0  0  0  0  0  0
   -0.5505    0.6811   -0.8070 H   0  0  0  0  0  0  0  0  0  0  0  0
    1.6021    0.5163   -0.7517 H   0  0  0  0  0  0  0  0  0  0  0  0
    2.6160   -1.4536    1.3943 H   0  0  0  0  0  0  0  0  0  0  0  0
    4.6866   -2.4852    0.2978 H   0  0  0  0  0  0  0  0  0  0  0  0
    6.9855   -2.0438   -0.4715 H   0  0  0  0  0  0  0  0  0  0  0  0
    6.0392    2.1284   -0.9418 H   0  0  0  0  0  0  0  0  0  0  0  0
    3.7449    1.7055   -0.1617 H   0  0  0  0  0  0  0  0  0  0  0  0
   -2.6536    1.3157   -1.4033 H   0  0  0  0  0  0  0  0  0  0  0  0
  1  2  1  0
  2  3  1  0
  3  4  2  0
  4  5  1  0
  5  6  2  0
  6  7  1  0
  7  8  1  0
  8  9  1  0
  9 10  2  0
  9 11  1  0
 11 12  2  0
 12 13  1  0
 13 14  2  0
 14 15  1  0
 15 16  2  0
 16 17  1  0
 16 18  1  0
 18 19  2  0
  7 20  2  0
 20  3  1  0
 19 13  1  0
  1 21  1  0
  1 22  1  0
  1 23  1  0
  4 24  1  0
  5 25  1  0
  6 26  1  0
  8 27  1  0
 11 28  1  0
 12 29  1  0
 14 30  1  0
 15 31  1  0
 18 32  1  0
 19 33  1  0
 20 34  1  0
M  END
$$$$
