
     RDKit          3D

 42 44  0  0  0  0  0  0  0  0999 V2000
    1.8100    1.5408    1.1056 C   0  0  0  0  0  0  0  0  0  0  0  0
    2.2702    0.3853    0.2981 N   0  0  0  0  0  0  0  0  0  0  0  0
    3.6721    0.4387   -0.0357 C   0  0  0  0  0  0  0  0  0  0  0  0
    4.6744    0.1639    0.8992 C   0  0  0  0  0  0  0  0  0  0  0  0
    6.0172    0.3038    0.5435 C   0  0  0  0  0  0  0  0  0  0  0  0
    6.3594    0.7376   -0.7371 C   0  0  0  0  0  0  0  0  0  0  0  0
    5.3603    1.0385   -1.6623 C   0  0  0  0  0  0  0  0  0  0  0  0
    4.0175    0.8985   -1.3084 C   0  0  0  0  0  0  0  0  0  0  0  0
    1.7450   -1.1498    0.8634 S   0  0  0  0  0  6  0  0  0  0  0  0
    1.9816   -1.2121    2.2922 O   0  0  0  0  0  0  0  0  0  0  0  0
    2.2308   -2.1840   -0.0261 O   0  0  0  0  0  0  0  0  0  0  0  0
   -0.0165   -1.0511    0.6058 C   0  0  0  0  0  0  0  0  0  0  0  0
   -0.8878   -0.9806    1.7063 C   0  0  0  0  0  0  0  0  0  0  0  0
   -2.2711   -0.9253    1.5017 C   0  0  0  0  0  0  0  0  0  0  0  0
   -2.7494   -0.9198    0.2017 C   0  0  0  0  0  0  0  0  0  0  0  0
   -1.8798   -1.0397   -0.8840 C   0  0  0  0  0  0  0  0  0  0  0  0
   -0.5060   -1.1004   -0.7043 C   0  0  0  0  0  0  0  0  0  0  0  0
   -2.6319   -1.1673   -2.1712 C   0  0  0  0  0  0  0  0  0  0  0  0
   -4.0789   -0.8564   -1.7498 C   0  0  0  0  0  0  0  0  0  0  0  0
   -4.0968   -0.9313   -0.2606 N   0  0  0  0  0  0  0  0  0  0  0  0
   -5.3321   -0.1409    0.5614 S   0  0  0  0  0  6  0  0  0  0  0  0
   -4.8562    1.5734    0.4326 C   0  0  0  0  0  0  0  0  0  0  0  0
   -6.5469   -0.3090   -0.2108 O   0  0  0  0  0  0  0  0  0  0  0  0
   -5.2953   -0.5006    1.9632 O   0  0  0  0  0  0  0  0  0  0  0  0
    2.1406    2.4780    0.6441 H   0  0  0  0  0  0  0  0  0  0  0  0
    0.7182    1.5780    1.1413 H   0  0  0  0  0  0  0  0  0  0  0  0
    2.2063    1.5010    2.1249 H   0  0  0  0  0  0  0  0  0  0  0  0
    4.4260   -0.1626    1.9056 H   0  0  0  0  0  0  0  0  0  0  0  0
    6.7959    0.0745    1.2666 H   0  0  0  0  0  0  0  0  0  0  0  0
    7.4058    0.8429   -1.0131 H   0  0  0  0  0  0  0  0  0  0  0  0
    5.6271    1.3809   -2.6587 H   0  0  0  0  0  0  0  0  0  0  0  0
    3.2425    1.1376   -2.0307 H   0  0  0  0  0  0  0  0  0  0  0  0
   -0.4998   -0.9904    2.7233 H   0  0  0  0  0  0  0  0  0  0  0  0
   -2.9369   -0.9113    2.3585 H   0  0  0  0  0  0  0  0  0  0  0  0
    0.1686   -1.2083   -1.5496 H   0  0  0  0  0  0  0  0  0  0  0  0
   -2.2781   -0.4629   -2.9297 H   0  0  0  0  0  0  0  0  0  0  0  0
   -2.5513   -2.1902   -2.5538 H   0  0  0  0  0  0  0  0  0  0  0  0
   -4.3520    0.1470   -2.0937 H   0  0  0  0  0  0  0  0  0  0  0  0
   -4.7782   -1.5783   -2.1829 H   0  0  0  0  0  0  0  0  0  0  0  0
   -5.6214    2.1674    0.9381 H   0  0  0  0  0  0  0  0  0  0  0  0
   -3.8954    1.7218    0.9278 H   0  0  0  0  0  0  0  0  0  0  0  0
   -4.8077    1.8626   -0.6177 H   0  0  0  0  0  0  0  0  0  0  0  0
  1  2  1  0
  2  3  1  0
  3  4  2  0
  4  5  1  0
  5  6  2  0
  6  7  1  0
  7  8  2  0
  2  9  1  0
  9 10  2  0
  9 11  2  0
  9 12  1  0
 12 13  2  0
 13 14  1  0
 14 15  2  0
 15 16  1  0
 16 17  2  0
 16 18  1  0
 18 19  1  0
 19 20  1  0
 20 21  1  0
 21 22  1  0
 21 23  2  0
 21 24  2  0
  8  3  1  0
 17 12  1  0
 20 15  1  0
  1 25  1  0
  1 26  1  0
  1 27  1  0
  4 28  1  0
  5 29  1  0
  6 30  1  0
  7 31  1  0
  8 32  1  0
 13 33  1  0
 14 34  1  0
 17 35  1  0
 18 36  1  0
 18 37  1  0
 19 38  1  0
 19 39  1  0
 22 40  1  0
 22 41  1  0
 22 42  1  0
M  END
$$$$
