
     RDKit          3D

 74 74  0  0  0  0  0  0  0  0999 V2000
    7.1146   -3.9228   -0.0472 C   0  0  0  0  0  0  0  0  0  0  0  0
    6.1197   -2.8662    0.3980 C   0  0  0  0  0  0  0  0  0  0  0  0
    4.8133   -3.3102    0.0362 O   0  0  0  0  0  0  0  0  0  0  0  0
    3.7638   -2.4984    0.3667 C   0  0  0  0  0  0  0  0  0  0  0  0
    3.8544   -1.2565    0.9980 C   0  0  0  0  0  0  0  0  0  0  0  0
    2.6959   -0.5233    1.2774 C   0  0  0  0  0  0  0  0  0  0  0  0
    1.4447   -1.0268    0.9075 C   0  0  0  0  0  0  0  0  0  0  0  0
   -0.0288   -0.1090    1.3016 S   0  0  0  0  0  6  0  0  0  0  0  0
   -1.1031   -1.0587    1.5018 O   0  0  0  0  0  0  0  0  0  0  0  0
    0.3133    0.8385    2.3432 O   0  0  0  0  0  0  0  0  0  0  0  0
   -0.3514    0.7861   -0.1114 N   0  0  0  0  0  0  0  0  0  0  0  0
   -0.8672    0.0673   -1.3126 C   0  0  0  0  0  0  0  0  0  0  0  0
   -2.3282   -0.3502   -1.1288 C   0  0  0  0  0  0  0  0  0  0  0  0
   -2.5166   -1.8580   -1.1961 C   0  0  0  0  0  0  0  0  0  0  0  0
   -1.6224   -2.5930   -1.6201 O   0  0  0  0  0  0  0  0  0  0  0  0
   -3.7641   -2.3612   -0.8264 N   0  0  0  0  0  0  0  0  0  0  0  0
   -4.7404   -1.5780   -0.0599 C   0  0  0  0  0  0  0  0  0  0  0  0
   -6.1580   -2.1777   -0.0937 C   0  0  0  0  0  0  0  0  0  0  0  0
   -6.1948   -3.6109    0.2386 N   0  0  0  0  0  0  0  0  0  0  0  0
   -5.3097   -4.3326   -0.6932 C   0  0  0  0  0  0  0  0  0  0  0  0
   -3.8620   -3.8161   -0.6707 C   0  0  0  0  0  0  0  0  0  0  0  0
    0.5919    1.8963   -0.4268 C   0  0  0  0  0  0  0  0  0  0  0  0
   -0.1222    3.2462   -0.2189 C   0  0  0  0  0  0  0  0  0  0  0  0
    0.6865    4.4059   -0.6204 N   0  0  0  0  0  0  0  0  0  0  0  0
    1.9328    4.6084    0.1262 C   0  0  0  0  0  0  0  0  0  0  0  0
    1.8845    4.4742    1.6466 C   0  0  0  0  0  0  0  0  0  0  0  0
   -0.1086    5.6229   -0.8203 C   0  0  0  0  0  0  0  0  0  0  0  0
   -0.7420    6.2506    0.4146 C   0  0  0  0  0  0  0  0  0  0  0  0
    1.3434   -2.2804    0.3035 C   0  0  0  0  0  0  0  0  0  0  0  0
    2.5051   -3.0044    0.0257 C   0  0  0  0  0  0  0  0  0  0  0  0
    0.9090    1.3049   -0.7771 O   0  0  0  0  0  0  0  0  0  0  0  0
    0.5222    0.3119   -0.1727 C   0  0  0  0  0  0  0  0  0  0  0  0
    1.4487   -0.5485    0.3253 O   0  0  0  0  0  0  0  0  0  0  0  0
   -0.9279   -0.1168    0.0744 C   0  0  0  0  0  0  0  0  0  0  0  0
   -1.8253    0.8738   -0.1900 F   0  0  0  0  0  0  0  0  0  0  0  0
   -1.1492   -0.4963    1.3652 F   0  0  0  0  0  0  0  0  0  0  0  0
   -1.2890   -1.1770   -0.7033 F   0  0  0  0  0  0  0  0  0  0  0  0
    7.0538   -4.0772   -1.1293 H   0  0  0  0  0  0  0  0  0  0  0  0
    6.8920   -4.8852    0.4248 H   0  0  0  0  0  0  0  0  0  0  0  0
    8.1359   -3.6297    0.2111 H   0  0  0  0  0  0  0  0  0  0  0  0
    6.1921   -2.7420    1.4847 H   0  0  0  0  0  0  0  0  0  0  0  0
    6.3530   -1.9213   -0.1061 H   0  0  0  0  0  0  0  0  0  0  0  0
    4.8093   -0.8334    1.2925 H   0  0  0  0  0  0  0  0  0  0  0  0
    2.7808    0.4336    1.7881 H   0  0  0  0  0  0  0  0  0  0  0  0
   -0.1843   -0.7425   -1.5796 H   0  0  0  0  0  0  0  0  0  0  0  0
   -0.8440    0.7631   -2.1618 H   0  0  0  0  0  0  0  0  0  0  0  0
   -2.7233    0.0470   -0.1903 H   0  0  0  0  0  0  0  0  0  0  0  0
   -2.9251    0.0714   -1.9472 H   0  0  0  0  0  0  0  0  0  0  0  0
   -4.7877   -0.5575   -0.4504 H   0  0  0  0  0  0  0  0  0  0  0  0
   -4.3747   -1.5272    0.9731 H   0  0  0  0  0  0  0  0  0  0  0  0
   -6.7978   -1.6346    0.6101 H   0  0  0  0  0  0  0  0  0  0  0  0
   -6.5943   -2.0328   -1.0900 H   0  0  0  0  0  0  0  0  0  0  0  0
   -5.8287   -3.7318    1.1840 H   0  0  0  0  0  0  0  0  0  0  0  0
   -5.3191   -5.3974   -0.4336 H   0  0  0  0  0  0  0  0  0  0  0  0
   -5.7173   -4.2527   -1.7092 H   0  0  0  0  0  0  0  0  0  0  0  0
   -3.2884   -4.3163   -1.4589 H   0  0  0  0  0  0  0  0  0  0  0  0
   -3.3898   -4.0670    0.2879 H   0  0  0  0  0  0  0  0  0  0  0  0
    0.9536    1.8094   -1.4581 H   0  0  0  0  0  0  0  0  0  0  0  0
    1.4823    1.8403    0.2039 H   0  0  0  0  0  0  0  0  0  0  0  0
   -0.4621    3.3339    0.8201 H   0  0  0  0  0  0  0  0  0  0  0  0
   -1.0341    3.2223   -0.8310 H   0  0  0  0  0  0  0  0  0  0  0  0
    2.6648    3.8806   -0.2467 H   0  0  0  0  0  0  0  0  0  0  0  0
    2.3631    5.5855   -0.1287 H   0  0  0  0  0  0  0  0  0  0  0  0
    2.8750    4.6867    2.0634 H   0  0  0  0  0  0  0  0  0  0  0  0
    1.6159    3.4619    1.9599 H   0  0  0  0  0  0  0  0  0  0  0  0
    1.1819    5.1714    2.1056 H   0  0  0  0  0  0  0  0  0  0  0  0
   -0.9059    5.4032   -1.5418 H   0  0  0  0  0  0  0  0  0  0  0  0
    0.5132    6.3782   -1.3181 H   0  0  0  0  0  0  0  0  0  0  0  0
   -1.4256    7.0516    0.1111 H   0  0  0  0  0  0  0  0  0  0  0  0
    0.0111    6.7023    1.0655 H   0  0  0  0  0  0  0  0  0  0  0  0
   -1.3230    5.5250    0.9921 H   0  0  0  0  0  0  0  0  0  0  0  0
    0.3751   -2.7035    0.0450 H   0  0  0  0  0  0  0  0  0  0  0  0
    2.4278   -3.9770   -0.4565 H   0  0  0  0  0  0  0  0  0  0  0  0
    2.3113   -0.1519    0.0781 H   0  0  0  0  0  0  0  0  0  0  0  0
  1  2  1  0
  2  3  1  0
  3  4  1  0
  4  5  2  0
  5  6  1  0
  6  7  2  0
  7  8  1  0
  8  9  2  0
  8 10  2  0
  8 11  1  0
 11 12  1  0
 12 13  1  0
 13 14  1  0
 14 15  2  0
 14 16  1  0
 16 17  1  0
 17 18  1  0
 18 19  1  0
 19 20  1  0
 20 21  1  0
 11 22  1  0
 22 23  1  0
 23 24  1  0
 24 25  1  0
 25 26  1  0
 24 27  1  0
 27 28  1  0
  7 29  1  0
 29 30  2  0
 31 32  2  0
 32 33  1  0
 32 34  1  0
 34 35  1  0
 34 36  1  0
 34 37  1  0
 30  4  1  0
 21 16  1  0
  1 38  1  0
  1 39  1  0
  1 40  1  0
  2 41  1  0
  2 42  1  0
  5 43  1  0
  6 44  1  0
 12 45  1  0
 12 46  1  0
 13 47  1  0
 13 48  1  0
 17 49  1  0
 17 50  1  0
 18 51  1  0
 18 52  1  0
 19 53  1  0
 20 54  1  0
 20 55  1  0
 21 56  1  0
 21 57  1  0
 22 58  1  0
 22 59  1  0
 23 60  1  0
 23 61  1  0
 25 62  1  0
 25 63  1  0
 26 64  1  0
 26 65  1  0
 26 66  1  0
 27 67  1  0
 27 68  1  0
 28 69  1  0
 28 70  1  0
 28 71  1  0
 29 72  1  0
 30 73  1  0
 33 74  1  0
M  END
$$$$
