
     RDKit          3D

 54 55  0  0  0  0  0  0  0  0999 V2000
    7.6028   -1.5956    2.1802 C   0  0  0  0  0  0  0  0  0  0  0  0
    6.8899   -0.7536    1.4966 C   0  0  0  0  0  0  0  0  0  0  0  0
    6.1365    0.1118    0.7836 C   0  0  0  0  0  0  0  0  0  0  0  0
    6.6805    1.1417   -0.0042 C   0  0  0  0  0  0  0  0  0  0  0  0
    5.8088    1.9783   -0.7430 C   0  0  0  0  0  0  0  0  0  0  0  0
    4.4848    1.7695   -0.6684 C   0  0  0  0  0  0  0  0  0  0  0  0
    3.8783    0.7519    0.1107 C   0  0  0  0  0  0  0  0  0  0  0  0
    2.4744    0.5523    0.0731 N   0  0  0  0  0  0  0  0  0  0  0  0
    1.6964   -0.2587    0.9779 C   0  0  0  0  0  0  0  0  0  0  0  0
    2.2239   -0.8990    1.9531 N   0  0  0  0  0  0  0  0  0  0  0  0
    1.4731   -1.6954    2.7896 C   0  0  0  0  0  0  0  0  0  0  0  0
    0.1515   -1.8151    2.5748 N   0  0  0  0  0  0  0  0  0  0  0  0
   -0.4280   -1.1403    1.5213 C   0  0  0  0  0  0  0  0  0  0  0  0
   -1.8206   -1.3351    1.4262 C   0  0  0  0  0  0  0  0  0  0  0  0
   -2.3966   -0.5835    0.3461 C   0  0  0  0  0  0  0  0  0  0  0  0
   -3.7527   -0.7671    0.2054 O   0  0  0  0  0  0  0  0  0  0  0  0
   -4.5144   -1.7286    0.9457 C   0  0  0  0  0  0  0  0  0  0  0  0
   -4.0610   -3.0959    0.4391 C   0  0  0  0  0  0  0  0  0  0  0  0
   -4.5739   -4.2085    0.9779 O   0  0  0  0  0  0  0  0  0  0  0  0
   -5.9591   -4.3378    0.8338 C   0  0  0  0  0  0  0  0  0  0  0  0
   -1.6654    0.2029   -0.4439 C   0  0  0  0  0  0  0  0  0  0  0  0
   -2.2197    0.9322   -1.4521 O   0  0  0  0  0  0  0  0  0  0  0  0
   -1.7720    1.8827   -2.3288 C   0  0  0  0  0  0  0  0  0  0  0  0
   -1.4172    3.1834   -1.5384 C   0  0  0  0  0  0  0  0  0  0  0  0
   -0.9559    4.1709   -2.3693 O   0  0  0  0  0  0  0  0  0  0  0  0
   -1.9093    4.5575   -3.2777 C   0  0  0  0  0  0  0  0  0  0  0  0
   -0.2678    0.3507   -0.2998 C   0  0  0  0  0  0  0  0  0  0  0  0
    0.3456   -0.3603    0.7237 C   0  0  0  0  0  0  0  0  0  0  0  0
    4.7198   -0.0407    0.8043 C   0  0  0  0  0  0  0  0  0  0  0  0
    0.6925    0.0000    0.0000 Cl  0  0  0  0  0  0  0  0  0  0  0  0
    8.2514   -2.3721    2.8233 H   0  0  0  0  0  0  0  0  0  0  0  0
    7.7363    1.2660   -0.0173 H   0  0  0  0  0  0  0  0  0  0  0  0
    6.2613    2.7544   -1.3510 H   0  0  0  0  0  0  0  0  0  0  0  0
    3.8193    2.4297   -1.2823 H   0  0  0  0  0  0  0  0  0  0  0  0
    2.0080    1.0370   -0.6938 H   0  0  0  0  0  0  0  0  0  0  0  0
    1.9342   -2.2199    3.5826 H   0  0  0  0  0  0  0  0  0  0  0  0
   -2.4032   -1.9196    2.0623 H   0  0  0  0  0  0  0  0  0  0  0  0
   -5.6151   -1.6093    0.7275 H   0  0  0  0  0  0  0  0  0  0  0  0
   -4.4080   -1.6357    2.0312 H   0  0  0  0  0  0  0  0  0  0  0  0
   -4.4069   -3.0903   -0.7056 H   0  0  0  0  0  0  0  0  0  0  0  0
   -2.9581   -3.1554    0.3366 H   0  0  0  0  0  0  0  0  0  0  0  0
   -6.4655   -3.6044    1.4937 H   0  0  0  0  0  0  0  0  0  0  0  0
   -6.2450   -4.0379   -0.2365 H   0  0  0  0  0  0  0  0  0  0  0  0
   -6.3419   -5.3373    0.9508 H   0  0  0  0  0  0  0  0  0  0  0  0
   -2.3296    2.0691   -3.2277 H   0  0  0  0  0  0  0  0  0  0  0  0
   -0.7259    1.5709   -2.7054 H   0  0  0  0  0  0  0  0  0  0  0  0
   -2.3137    3.4761   -0.9386 H   0  0  0  0  0  0  0  0  0  0  0  0
   -0.6586    2.9099   -0.8117 H   0  0  0  0  0  0  0  0  0  0  0  0
   -2.8732    4.9091   -2.7680 H   0  0  0  0  0  0  0  0  0  0  0  0
   -1.5624    5.5590   -3.7395 H   0  0  0  0  0  0  0  0  0  0  0  0
   -2.2020    3.8800   -4.0681 H   0  0  0  0  0  0  0  0  0  0  0  0
    0.2885    0.9548   -0.9648 H   0  0  0  0  0  0  0  0  0  0  0  0
    4.3572   -0.8047    1.4646 H   0  0  0  0  0  0  0  0  0  0  0  0
   -0.6925    0.0000    0.0000 H   0  0  0  0  0  0  0  0  0  0  0  0
  1  2  3  0
  2  3  1  0
  3  4  2  0
  4  5  1  0
  5  6  2  0
  6  7  1  0
  7  8  1  0
  8  9  1  0
  9 10  2  0
 10 11  1  0
 11 12  2  0
 12 13  1  0
 13 14  2  0
 14 15  1  0
 15 16  1  0
 16 17  1  0
 17 18  1  0
 18 19  1  0
 19 20  1  0
 15 21  2  0
 21 22  1  0
 22 23  1  0
 23 24  1  0
 24 25  1  0
 25 26  1  0
 21 27  1  0
 27 28  2  0
  7 29  2  0
 29  3  1  0
 28  9  1  0
 28 13  1  0
  1 31  1  0
  4 32  1  0
  5 33  1  0
  6 34  1  0
  8 35  1  0
 11 36  1  0
 14 37  1  0
 17 38  1  0
 17 39  1  0
 18 40  1  0
 18 41  1  0
 20 42  1  0
 20 43  1  0
 20 44  1  0
 23 45  1  0
 23 46  1  0
 24 47  1  0
 24 48  1  0
 26 49  1  0
 26 50  1  0
 26 51  1  0
 27 52  1  0
 29 53  1  0
 30 54  1  0
M  END
$$$$
