
     RDKit          3D

 93 99  0  0  0  0  0  0  0  0999 V2000
   11.8396    2.2828   -0.4505 C   0  0  0  0  0  0  0  0  0  0  0  0
   12.3678    0.8885   -0.7583 C   0  0  0  0  0  0  0  0  0  0  0  0
   11.8225   -0.2360    0.1483 C   0  0  1  0  0  0  0  0  0  0  0  0
   12.0986   -0.0152    1.6599 C   0  0  2  0  0  0  0  0  0  0  0  0
   13.5891    0.0714    1.9757 C   0  0  0  0  0  0  0  0  0  0  0  0
   11.5849   -1.1127    2.4252 O   0  0  0  0  0  0  0  0  0  0  0  0
   10.4136   -0.5153   -0.1597 N   0  0  0  0  0  0  0  0  0  0  0  0
   10.0756   -1.2433   -1.2778 N   0  0  0  0  0  0  0  0  0  0  0  0
    8.7895   -1.1133   -1.3536 C   0  0  0  0  0  0  0  0  0  0  0  0
    8.2129   -0.3389   -0.4076 N   0  0  0  0  0  0  0  0  0  0  0  0
    6.8421   -0.0031   -0.2873 C   0  0  0  0  0  0  0  0  0  0  0  0
    6.3705    0.7784    0.7707 C   0  0  0  0  0  0  0  0  0  0  0  0
    5.0159    1.1283    0.8703 C   0  0  0  0  0  0  0  0  0  0  0  0
    4.0769    0.7279   -0.0852 C   0  0  0  0  0  0  0  0  0  0  0  0
    2.7575    1.1393    0.0430 N   0  0  0  0  0  0  0  0  0  0  0  0
    2.0201    0.5495    1.1847 C   0  0  0  0  0  0  0  0  0  0  0  0
    0.5796    1.0977    1.2640 C   0  0  0  0  0  0  0  0  0  0  0  0
   -0.1904    0.8691    0.0192 N   0  0  0  0  0  0  0  0  0  0  0  0
   -1.3108    0.0342    0.0644 C   0  0  0  0  0  0  0  0  0  0  0  0
   -1.3834   -1.1249    0.8425 C   0  0  0  0  0  0  0  0  0  0  0  0
   -2.5286   -1.9303    0.8229 C   0  0  0  0  0  0  0  0  0  0  0  0
   -3.6230   -1.6024    0.0208 C   0  0  0  0  0  0  0  0  0  0  0  0
   -4.6709   -2.4758    0.0963 O   0  0  0  0  0  0  0  0  0  0  0  0
   -5.7127   -2.3748   -0.8750 C   0  0  0  0  0  0  0  0  0  0  0  0
   -6.8680   -1.5377   -0.3375 C   0  0  2  0  0  0  0  0  0  0  0  0
   -7.5618   -2.1661    0.8543 C   0  0  0  0  0  0  0  0  0  0  0  0
   -8.9284   -1.7255    0.8194 O   0  0  0  0  0  0  0  0  0  0  0  0
   -9.1907   -0.9701   -0.3813 C   0  0  1  0  0  0  0  0  0  0  0  0
  -10.5314   -1.4375   -0.9964 C   0  0  0  0  0  0  0  0  0  0  0  0
  -11.6923   -1.3075   -0.1390 N   0  0  0  0  0  0  0  0  0  0  0  0
  -12.4511   -0.1994    0.0885 C   0  0  0  0  0  0  0  0  0  0  0  0
  -13.4876   -0.5177    0.8303 N   0  0  0  0  0  0  0  0  0  0  0  0
  -13.3334   -1.8624    1.0067 C   0  0  0  0  0  0  0  0  0  0  0  0
  -12.2763   -2.4001    0.3937 N   0  0  0  0  0  0  0  0  0  0  0  0
   -9.2007    0.5409   -0.1063 C   0  0  0  0  0  0  0  0  0  0  0  0
   -9.1694    1.4620   -1.1751 C   0  0  0  0  0  0  0  0  0  0  0  0
   -9.1968    2.8405   -0.9416 C   0  0  0  0  0  0  0  0  0  0  0  0
   -9.2704    3.3164    0.3609 C   0  0  0  0  0  0  0  0  0  0  0  0
   -9.3009    4.6376    0.5788 F   0  0  0  0  0  0  0  0  0  0  0  0
   -9.3178    2.4420    1.4332 C   0  0  0  0  0  0  0  0  0  0  0  0
   -9.2836    1.0700    1.1953 C   0  0  0  0  0  0  0  0  0  0  0  0
   -9.3566    0.2660    2.2642 F   0  0  0  0  0  0  0  0  0  0  0  0
   -8.0215   -1.3780   -1.3078 C   0  0  0  0  0  0  0  0  0  0  0  0
   -3.5695   -0.4442   -0.7479 C   0  0  0  0  0  0  0  0  0  0  0  0
   -2.4191    0.3539   -0.7317 C   0  0  0  0  0  0  0  0  0  0  0  0
    0.6294    0.6506   -1.1982 C   0  0  0  0  0  0  0  0  0  0  0  0
    1.9444    1.4572   -1.1516 C   0  0  0  0  0  0  0  0  0  0  0  0
    4.5422   -0.0732   -1.1299 C   0  0  0  0  0  0  0  0  0  0  0  0
    5.8972   -0.4352   -1.2300 C   0  0  0  0  0  0  0  0  0  0  0  0
    9.2681    0.0904    0.3811 C   0  0  0  0  0  0  0  0  0  0  0  0
    9.2607    0.8337    1.3508 O   0  0  0  0  0  0  0  0  0  0  0  0
   10.7518    2.3319   -0.5433 H   0  0  0  0  0  0  0  0  0  0  0  0
   12.2630    3.0056   -1.1565 H   0  0  0  0  0  0  0  0  0  0  0  0
   12.1177    2.6066    0.5562 H   0  0  0  0  0  0  0  0  0  0  0  0
   12.1311    0.6567   -1.8044 H   0  0  0  0  0  0  0  0  0  0  0  0
   13.4625    0.9097   -0.6981 H   0  0  0  0  0  0  0  0  0  0  0  0
   12.3419   -1.1625   -0.1363 H   0  0  0  0  0  0  0  0  0  0  0  0
   11.6174    0.8943    2.0329 H   0  0  0  0  0  0  0  0  0  0  0  0
   14.1180   -0.8180    1.6121 H   0  0  0  0  0  0  0  0  0  0  0  0
   14.0483    0.9605    1.5346 H   0  0  0  0  0  0  0  0  0  0  0  0
   13.7461    0.1068    3.0607 H   0  0  0  0  0  0  0  0  0  0  0  0
   10.6176   -0.9929    2.4533 H   0  0  0  0  0  0  0  0  0  0  0  0
    8.1815   -1.5866   -2.1309 H   0  0  0  0  0  0  0  0  0  0  0  0
    7.0291    1.1565    1.5467 H   0  0  0  0  0  0  0  0  0  0  0  0
    4.7038    1.7626    1.6972 H   0  0  0  0  0  0  0  0  0  0  0  0
    2.5278    0.7817    2.1282 H   0  0  0  0  0  0  0  0  0  0  0  0
    1.9908   -0.5425    1.0766 H   0  0  0  0  0  0  0  0  0  0  0  0
    0.6294    2.1842    1.4128 H   0  0  0  0  0  0  0  0  0  0  0  0
    0.0733    0.6966    2.1489 H   0  0  0  0  0  0  0  0  0  0  0  0
   -0.5452   -1.4347    1.4596 H   0  0  0  0  0  0  0  0  0  0  0  0
   -2.5577   -2.8299    1.4328 H   0  0  0  0  0  0  0  0  0  0  0  0
   -5.3507   -2.0100   -1.8435 H   0  0  0  0  0  0  0  0  0  0  0  0
   -6.0566   -3.3995   -1.0655 H   0  0  0  0  0  0  0  0  0  0  0  0
   -6.5011   -0.5475   -0.0415 H   0  0  0  0  0  0  0  0  0  0  0  0
   -7.1112   -1.8690    1.8058 H   0  0  0  0  0  0  0  0  0  0  0  0
   -7.5737   -3.2602    0.8037 H   0  0  0  0  0  0  0  0  0  0  0  0
  -10.4687   -2.5031   -1.2538 H   0  0  0  0  0  0  0  0  0  0  0  0
  -10.7589   -0.8945   -1.9226 H   0  0  0  0  0  0  0  0  0  0  0  0
  -12.2198    0.7859   -0.2928 H   0  0  0  0  0  0  0  0  0  0  0  0
  -14.0177   -2.4678    1.5867 H   0  0  0  0  0  0  0  0  0  0  0  0
   -9.1235    1.1244   -2.2084 H   0  0  0  0  0  0  0  0  0  0  0  0
   -9.1649    3.5475   -1.7666 H   0  0  0  0  0  0  0  0  0  0  0  0
   -9.3888    2.8192    2.4480 H   0  0  0  0  0  0  0  0  0  0  0  0
   -8.2300   -2.3484   -1.7794 H   0  0  0  0  0  0  0  0  0  0  0  0
   -7.7936   -0.6720   -2.1106 H   0  0  0  0  0  0  0  0  0  0  0  0
   -4.4001   -0.1178   -1.3623 H   0  0  0  0  0  0  0  0  0  0  0  0
   -2.3960    1.2629   -1.3306 H   0  0  0  0  0  0  0  0  0  0  0  0
    0.8720   -0.4154   -1.3026 H   0  0  0  0  0  0  0  0  0  0  0  0
    0.0635    0.9567   -2.0874 H   0  0  0  0  0  0  0  0  0  0  0  0
    1.7005    2.5265   -1.1049 H   0  0  0  0  0  0  0  0  0  0  0  0
    2.4934    1.3145   -2.0882 H   0  0  0  0  0  0  0  0  0  0  0  0
    3.8548   -0.4509   -1.8811 H   0  0  0  0  0  0  0  0  0  0  0  0
    6.1712   -1.0557   -2.0782 H   0  0  0  0  0  0  0  0  0  0  0  0
  1  2  1  0
  2  3  1  0
  3  4  1  0
  4  5  1  0
  4  6  1  0
  3  7  1  0
  7  8  1  0
  8  9  2  0
  9 10  1  0
 10 11  1  0
 11 12  2  0
 12 13  1  0
 13 14  2  0
 14 15  1  0
 15 16  1  0
 16 17  1  0
 17 18  1  0
 18 19  1  0
 19 20  2  0
 20 21  1  0
 21 22  2  0
 22 23  1  0
 23 24  1  0
 24 25  1  0
 25 26  1  0
 26 27  1  0
 27 28  1  0
 28 29  1  6
 29 30  1  0
 30 31  1  0
 31 32  2  0
 32 33  1  0
 33 34  2  0
 28 35  1  0
 35 36  2  0
 36 37  1  0
 37 38  2  0
 38 39  1  0
 38 40  1  0
 40 41  2  0
 41 42  1  0
 28 43  1  0
 22 44  1  0
 44 45  2  0
 18 46  1  0
 46 47  1  0
 14 48  1  0
 48 49  2  0
 10 50  1  0
 50 51  2  0
 50  7  1  0
 49 11  1  0
 47 15  1  0
 45 19  1  0
 43 25  1  0
 34 30  1  0
 41 35  1  0
  1 52  1  0
  1 53  1  0
  1 54  1  0
  2 55  1  0
  2 56  1  0
  3 57  1  6
  4 58  1  1
  5 59  1  0
  5 60  1  0
  5 61  1  0
  6 62  1  0
  9 63  1  0
 12 64  1  0
 13 65  1  0
 16 66  1  0
 16 67  1  0
 17 68  1  0
 17 69  1  0
 20 70  1  0
 21 71  1  0
 24 72  1  0
 24 73  1  0
 25 74  1  1
 26 75  1  0
 26 76  1  0
 29 77  1  0
 29 78  1  0
 31 79  1  0
 33 80  1  0
 36 81  1  0
 37 82  1  0
 40 83  1  0
 43 84  1  0
 43 85  1  0
 44 86  1  0
 45 87  1  0
 46 88  1  0
 46 89  1  0
 47 90  1  0
 47 91  1  0
 48 92  1  0
 49 93  1  0
M  END
$$$$
