
     RDKit          3D

 38 40  0  0  0  0  0  0  0  0999 V2000
   -3.8123    1.2232    1.2675 O   0  0  0  0  0  0  0  0  0  0  0  0
   -3.6824    0.0113    1.1893 C   0  0  0  0  0  0  0  0  0  0  0  0
   -4.5653   -0.9555    1.9435 C   0  0  0  0  0  0  0  0  0  0  0  0
   -4.3198   -2.2726    1.2360 C   0  0  0  0  0  0  0  0  0  0  0  0
   -2.8884   -2.1505    0.7589 C   0  0  0  0  0  0  0  0  0  0  0  0
   -2.7200   -0.7402    0.4945 N   0  0  0  0  0  0  0  0  0  0  0  0
   -1.6355   -0.2247   -0.2673 C   0  0  0  0  0  0  0  0  0  0  0  0
   -1.5481    1.1352   -0.6005 C   0  0  0  0  0  0  0  0  0  0  0  0
   -0.4789    1.6354   -1.3538 C   0  0  0  0  0  0  0  0  0  0  0  0
    0.5303    0.7721   -1.7744 C   0  0  0  0  0  0  0  0  0  0  0  0
    1.8868    1.4076   -2.7323 S   0  0  0  0  0  6  0  0  0  0  0  0
    1.3721    2.4831   -3.5529 O   0  0  0  0  0  0  0  0  0  0  0  0
    2.5834    0.2834   -3.3214 O   0  0  0  0  0  0  0  0  0  0  0  0
    2.8807    2.1265   -1.5675 N   0  0  0  0  0  0  0  0  0  0  0  0
    3.2829    1.3402   -0.4429 C   0  0  0  0  0  0  0  0  0  0  0  0
    4.1215    0.2375   -0.5954 C   0  0  0  0  0  0  0  0  0  0  0  0
    4.4657   -0.5325    0.5193 C   0  0  0  0  0  0  0  0  0  0  0  0
    3.9720   -0.2024    1.7843 C   0  0  0  0  0  0  0  0  0  0  0  0
    3.1343    0.9017    1.9396 C   0  0  0  0  0  0  0  0  0  0  0  0
    2.7972    1.6643    0.8268 C   0  0  0  0  0  0  0  0  0  0  0  0
    1.9875    2.7238    0.9768 F   0  0  0  0  0  0  0  0  0  0  0  0
    0.4623   -0.5870   -1.4740 C   0  0  0  0  0  0  0  0  0  0  0  0
   -0.6132   -1.0758   -0.7229 C   0  0  0  0  0  0  0  0  0  0  0  0
   -4.2394   -0.9901    2.9877 H   0  0  0  0  0  0  0  0  0  0  0  0
   -5.6144   -0.6553    1.8852 H   0  0  0  0  0  0  0  0  0  0  0  0
   -4.4823   -3.1422    1.8787 H   0  0  0  0  0  0  0  0  0  0  0  0
   -4.9941   -2.3581    0.3746 H   0  0  0  0  0  0  0  0  0  0  0  0
   -2.7346   -2.7546   -0.1405 H   0  0  0  0  0  0  0  0  0  0  0  0
   -2.1817   -2.4483    1.5416 H   0  0  0  0  0  0  0  0  0  0  0  0
   -2.3157    1.8434   -0.3013 H   0  0  0  0  0  0  0  0  0  0  0  0
   -0.4512    2.6938   -1.6036 H   0  0  0  0  0  0  0  0  0  0  0  0
    2.5512    3.0680   -1.3457 H   0  0  0  0  0  0  0  0  0  0  0  0
    4.5179   -0.0259   -1.5733 H   0  0  0  0  0  0  0  0  0  0  0  0
    5.1231   -1.3911    0.3994 H   0  0  0  0  0  0  0  0  0  0  0  0
    4.2442   -0.8049    2.6479 H   0  0  0  0  0  0  0  0  0  0  0  0
    2.7434    1.1710    2.9157 H   0  0  0  0  0  0  0  0  0  0  0  0
    1.2376   -1.2717   -1.8113 H   0  0  0  0  0  0  0  0  0  0  0  0
   -0.6169   -2.1381   -0.4973 H   0  0  0  0  0  0  0  0  0  0  0  0
  1  2  2  0
  2  3  1  0
  3  4  1  0
  4  5  1  0
  5  6  1  0
  6  7  1  0
  7  8  2  0
  8  9  1  0
  9 10  2  0
 10 11  1  0
 11 12  2  0
 11 13  2  0
 11 14  1  0
 14 15  1  0
 15 16  2  0
 16 17  1  0
 17 18  2  0
 18 19  1  0
 19 20  2  0
 20 21  1  0
 10 22  1  0
 22 23  2  0
  6  2  1  0
 23  7  1  0
 20 15  1  0
  3 24  1  0
  3 25  1  0
  4 26  1  0
  4 27  1  0
  5 28  1  0
  5 29  1  0
  8 30  1  0
  9 31  1  0
 14 32  1  0
 16 33  1  0
 17 34  1  0
 18 35  1  0
 19 36  1  0
 22 37  1  0
 23 38  1  0
M  END
$$$$
