
     RDKit          3D

 54 57  0  0  0  0  0  0  0  0999 V2000
    6.4799    2.0849    2.5599 C   0  0  0  0  0  0  0  0  0  0  0  0
    5.8876    0.8748    1.8571 C   0  0  0  0  0  0  0  0  0  0  0  0
    6.0811    0.9556    0.3455 C   0  0  0  0  0  0  0  0  0  0  0  0
    5.5559   -0.2182   -0.3215 N   0  0  0  0  0  0  0  0  0  0  0  0
    4.2166   -0.3440   -0.6275 C   0  0  0  0  0  0  0  0  0  0  0  0
    3.3902    0.5313   -0.4030 O   0  0  0  0  0  0  0  0  0  0  0  0
    3.8852   -1.6909   -1.2498 C   0  0  0  0  0  0  0  0  0  0  0  0
    2.4363   -1.8784   -1.7272 C   0  0  0  0  0  0  0  0  0  0  0  0
    2.0925   -0.9953   -2.9355 C   0  0  0  0  0  0  0  0  0  0  0  0
    0.6049   -1.0903   -3.2571 C   0  0  0  0  0  0  0  0  0  0  0  0
   -0.2379   -0.6933   -2.1347 N   0  0  0  0  0  0  0  0  0  0  0  0
   -1.5897   -0.4849   -2.3936 C   0  0  0  0  0  0  0  0  0  0  0  0
   -2.1223   -0.7413   -3.4707 O   0  0  0  0  0  0  0  0  0  0  0  0
   -2.4418    0.0854   -1.3292 C   0  0  0  0  0  0  0  0  0  0  0  0
   -2.1492    1.3549   -0.8002 C   0  0  0  0  0  0  0  0  0  0  0  0
   -2.9557    1.9249    0.1920 C   0  0  0  0  0  0  0  0  0  0  0  0
   -4.0445    1.1594    0.5928 C   0  0  0  0  0  0  0  0  0  0  0  0
   -4.9755    1.4804    1.5350 O   0  0  0  0  0  0  0  0  0  0  0  0
   -5.8222    0.4023    1.5439 C   0  0  0  0  0  0  0  0  0  0  0  0
   -7.0634    0.3208    2.4802 C   0  0  0  0  0  0  0  0  0  0  0  0
   -8.3704   -0.1911    1.9309 C   0  0  0  0  0  0  0  0  0  0  0  0
   -8.2133    1.2684    2.2479 C   0  0  0  0  0  0  0  0  0  0  0  0
   -5.4988   -0.5597    0.7001 N   0  0  0  0  0  0  0  0  0  0  0  0
   -4.3706   -0.0867    0.0815 C   0  0  0  0  0  0  0  0  0  0  0  0
   -3.5653   -0.6486   -0.9148 C   0  0  0  0  0  0  0  0  0  0  0  0
    0.3832   -0.6361   -0.8082 C   0  0  0  0  0  0  0  0  0  0  0  0
    1.3924   -1.7657   -0.5981 C   0  0  0  0  0  0  0  0  0  0  0  0
    7.5552    2.1608    2.3695 H   0  0  0  0  0  0  0  0  0  0  0  0
    6.3310    2.0050    3.6412 H   0  0  0  0  0  0  0  0  0  0  0  0
    6.0039    3.0097    2.2186 H   0  0  0  0  0  0  0  0  0  0  0  0
    4.8203    0.8028    2.0977 H   0  0  0  0  0  0  0  0  0  0  0  0
    6.3592   -0.0370    2.2436 H   0  0  0  0  0  0  0  0  0  0  0  0
    5.5853    1.8459   -0.0568 H   0  0  0  0  0  0  0  0  0  0  0  0
    7.1456    1.0148    0.0965 H   0  0  0  0  0  0  0  0  0  0  0  0
    6.1613   -1.0221   -0.4246 H   0  0  0  0  0  0  0  0  0  0  0  0
    4.1148   -2.4601   -0.5012 H   0  0  0  0  0  0  0  0  0  0  0  0
    4.5644   -1.8477   -2.0975 H   0  0  0  0  0  0  0  0  0  0  0  0
    2.3847   -2.9188   -2.0825 H   0  0  0  0  0  0  0  0  0  0  0  0
    2.6792   -1.3119   -3.8061 H   0  0  0  0  0  0  0  0  0  0  0  0
    2.3538    0.0516   -2.7429 H   0  0  0  0  0  0  0  0  0  0  0  0
    0.3365   -2.1205   -3.5217 H   0  0  0  0  0  0  0  0  0  0  0  0
    0.3650   -0.4591   -4.1206 H   0  0  0  0  0  0  0  0  0  0  0  0
   -1.2890    1.9095   -1.1716 H   0  0  0  0  0  0  0  0  0  0  0  0
   -2.7522    2.8989    0.6201 H   0  0  0  0  0  0  0  0  0  0  0  0
   -6.8211    0.0661    3.5053 H   0  0  0  0  0  0  0  0  0  0  0  0
   -8.4057   -0.4912    0.8882 H   0  0  0  0  0  0  0  0  0  0  0  0
   -8.9889   -0.7944    2.5847 H   0  0  0  0  0  0  0  0  0  0  0  0
   -8.1536    1.9625    1.4168 H   0  0  0  0  0  0  0  0  0  0  0  0
   -8.7264    1.6598    3.1184 H   0  0  0  0  0  0  0  0  0  0  0  0
   -3.8021   -1.6150   -1.3454 H   0  0  0  0  0  0  0  0  0  0  0  0
    0.8659    0.3425   -0.7212 H   0  0  0  0  0  0  0  0  0  0  0  0
   -0.3770   -0.6985   -0.0244 H   0  0  0  0  0  0  0  0  0  0  0  0
    1.8692   -1.6600    0.3831 H   0  0  0  0  0  0  0  0  0  0  0  0
    0.8358   -2.7123   -0.5582 H   0  0  0  0  0  0  0  0  0  0  0  0
  1  2  1  0
  2  3  1  0
  3  4  1  0
  4  5  1  0
  5  6  2  0
  5  7  1  0
  7  8  1  0
  8  9  1  0
  9 10  1  0
 10 11  1  0
 11 12  1  0
 12 13  2  0
 12 14  1  0
 14 15  2  0
 15 16  1  0
 16 17  2  0
 17 18  1  0
 18 19  1  0
 19 20  1  0
 20 21  1  0
 21 22  1  0
 19 23  2  0
 23 24  1  0
 24 25  2  0
 11 26  1  0
 26 27  1  0
 27  8  1  0
 25 14  1  0
 24 17  1  0
 22 20  1  0
  1 28  1  0
  1 29  1  0
  1 30  1  0
  2 31  1  0
  2 32  1  0
  3 33  1  0
  3 34  1  0
  4 35  1  0
  7 36  1  0
  7 37  1  0
  8 38  1  0
  9 39  1  0
  9 40  1  0
 10 41  1  0
 10 42  1  0
 15 43  1  0
 16 44  1  0
 20 45  1  0
 21 46  1  0
 21 47  1  0
 22 48  1  0
 22 49  1  0
 25 50  1  0
 26 51  1  0
 26 52  1  0
 27 53  1  0
 27 54  1  0
M  END
$$$$
