
     RDKit          3D

 38 39  0  0  0  0  0  0  0  0999 V2000
   -2.6540   -2.1996   -1.1691 C   0  0  0  0  0  0  0  0  0  0  0  0
   -2.0751   -1.0756   -0.3472 C   0  0  0  0  0  0  0  0  0  0  0  0
   -0.7076   -0.9830   -0.4609 N   0  0  0  0  0  0  0  0  0  0  0  0
   -0.0672   -0.0452    0.1679 C   0  0  0  0  0  0  0  0  0  0  0  0
    1.3032    0.0750    0.0763 N   0  0  0  0  0  0  0  0  0  0  0  0
    2.0619    1.2729    0.4609 C   0  0  0  0  0  0  0  0  0  0  0  0
    3.3638    1.4250   -0.3564 C   0  0  0  0  0  0  0  0  0  0  0  0
    4.2733    0.2645   -0.3246 N   0  0  0  0  0  0  0  0  0  0  0  0
    5.3411    0.4273    0.6578 C   0  0  0  0  0  0  0  0  0  0  0  0
    3.5366   -0.9962   -0.0926 C   0  0  0  0  0  0  0  0  0  0  0  0
    2.0836   -0.9736   -0.6096 C   0  0  0  0  0  0  0  0  0  0  0  0
   -0.7434    0.8459    0.9510 N   0  0  0  0  0  0  0  0  0  0  0  0
   -2.0901    0.8163    1.1338 C   0  0  0  0  0  0  0  0  0  0  0  0
   -2.6595    1.6252    1.8600 O   0  0  0  0  0  0  0  0  0  0  0  0
   -2.8230   -0.2405    0.3989 C   0  0  0  0  0  0  0  0  0  0  0  0
   -4.3149   -0.2796    0.6077 C   0  0  0  0  0  0  0  0  0  0  0  0
   -5.0453    0.7869   -0.2078 C   0  0  0  0  0  0  0  0  0  0  0  0
   -5.0150    0.4735   -1.5974 O   0  0  0  0  0  0  0  0  0  0  0  0
   -2.4429   -3.1611   -0.6897 H   0  0  0  0  0  0  0  0  0  0  0  0
   -2.2004   -2.2090   -2.1669 H   0  0  0  0  0  0  0  0  0  0  0  0
   -3.7327   -2.1202   -1.3206 H   0  0  0  0  0  0  0  0  0  0  0  0
    2.2945    1.2203    1.5308 H   0  0  0  0  0  0  0  0  0  0  0  0
    1.4611    2.1740    0.2920 H   0  0  0  0  0  0  0  0  0  0  0  0
    3.8822    2.3439   -0.0553 H   0  0  0  0  0  0  0  0  0  0  0  0
    3.0846    1.5805   -1.4071 H   0  0  0  0  0  0  0  0  0  0  0  0
    5.9521    1.3047    0.4184 H   0  0  0  0  0  0  0  0  0  0  0  0
    6.0142   -0.4371    0.6418 H   0  0  0  0  0  0  0  0  0  0  0  0
    4.9525    0.5456    1.6756 H   0  0  0  0  0  0  0  0  0  0  0  0
    3.5013   -1.2260    0.9816 H   0  0  0  0  0  0  0  0  0  0  0  0
    4.0808   -1.8134   -0.5797 H   0  0  0  0  0  0  0  0  0  0  0  0
    1.6468   -1.9616   -0.4210 H   0  0  0  0  0  0  0  0  0  0  0  0
    2.0619   -0.7994   -1.6922 H   0  0  0  0  0  0  0  0  0  0  0  0
   -0.2502    1.5403    1.4816 H   0  0  0  0  0  0  0  0  0  0  0  0
   -4.7175   -1.2675    0.3611 H   0  0  0  0  0  0  0  0  0  0  0  0
   -4.5335   -0.1320    1.6727 H   0  0  0  0  0  0  0  0  0  0  0  0
   -6.0973    0.8182    0.0931 H   0  0  0  0  0  0  0  0  0  0  0  0
   -4.6280    1.7887   -0.0632 H   0  0  0  0  0  0  0  0  0  0  0  0
   -4.0979    0.5919   -1.9017 H   0  0  0  0  0  0  0  0  0  0  0  0
  1  2  1  0
  2  3  1  0
  3  4  2  0
  4  5  1  0
  5  6  1  0
  6  7  1  0
  7  8  1  0
  8  9  1  0
  8 10  1  0
 10 11  1  0
  4 12  1  0
 12 13  1  0
 13 14  2  0
 13 15  1  0
 15 16  1  0
 16 17  1  0
 17 18  1  0
 15  2  2  0
 11  5  1  0
  1 19  1  0
  1 20  1  0
  1 21  1  0
  6 22  1  0
  6 23  1  0
  7 24  1  0
  7 25  1  0
  9 26  1  0
  9 27  1  0
  9 28  1  0
 10 29  1  0
 10 30  1  0
 11 31  1  0
 11 32  1  0
 12 33  1  0
 16 34  1  0
 16 35  1  0
 17 36  1  0
 17 37  1  0
 18 38  1  0
M  END
$$$$
