
     RDKit          3D

 51 52  0  0  0  0  0  0  0  0999 V2000
    6.2292   -1.3480   -2.7525 C   0  0  0  0  0  0  0  0  0  0  0  0
    6.0755   -0.4430   -1.6595 O   0  0  0  0  0  0  0  0  0  0  0  0
    4.7996   -0.2566   -1.1127 C   0  0  0  0  0  0  0  0  0  0  0  0
    3.6982   -0.9198   -1.5997 C   0  0  0  0  0  0  0  0  0  0  0  0
    2.4644   -0.7069   -1.0329 C   0  0  0  0  0  0  0  0  0  0  0  0
    2.3394    0.1761    0.0271 C   0  0  0  0  0  0  0  0  0  0  0  0
    1.0081    0.4000    0.6321 C   0  0  0  0  0  0  0  0  0  0  0  0
    0.7905    1.2517    1.6792 C   0  0  0  0  0  0  0  0  0  0  0  0
   -0.5038    1.4093    2.2028 C   0  0  0  0  0  0  0  0  0  0  0  0
   -0.9649    2.1236    3.2418 N   0  0  0  0  0  0  0  0  0  0  0  0
   -2.2703    1.9138    3.4025 C   0  0  0  0  0  0  0  0  0  0  0  0
   -2.6633    1.0198    2.4142 C   0  0  0  0  0  0  0  0  0  0  0  0
   -1.5498    0.7372    1.6931 N   0  0  0  0  0  0  0  0  0  0  0  0
   -1.3291   -0.0864    0.6696 C   0  0  0  0  0  0  0  0  0  0  0  0
   -2.3468   -0.6982   -0.0741 N   0  0  0  0  0  0  0  0  0  0  0  0
   -3.6832   -0.3570   -0.2838 C   0  0  0  0  0  0  0  0  0  0  0  0
   -4.0310    0.9113    0.0024 N   0  0  0  0  0  0  0  0  0  0  0  0
   -5.2298    1.3813   -0.3065 C   0  0  0  0  0  0  0  0  0  0  0  0
   -6.1710    0.6022   -0.9302 C   0  0  0  0  0  0  0  0  0  0  0  0
   -5.8444   -0.6872   -1.2305 C   0  0  0  0  0  0  0  0  0  0  0  0
   -4.5824   -1.1994   -0.9100 C   0  0  0  0  0  0  0  0  0  0  0  0
   -4.2985   -2.6043   -1.2046 C   0  0  0  0  0  0  0  0  0  0  0  0
   -5.3426   -3.3293   -1.9008 N   0  0  0  0  0  0  0  0  0  0  0  0
   -3.2568   -3.2232   -0.9159 O   0  0  0  0  0  0  0  0  0  0  0  0
   -0.0559   -0.2449    0.1571 N   0  0  0  0  0  0  0  0  0  0  0  0
    3.4481    0.8271    0.4979 C   0  0  0  0  0  0  0  0  0  0  0  0
    4.6888    0.6187   -0.0654 C   0  0  0  0  0  0  0  0  0  0  0  0
    5.8280    1.2797    0.4093 O   0  0  0  0  0  0  0  0  0  0  0  0
    5.7436    2.1802    1.4790 C   0  0  0  0  0  0  0  0  0  0  0  0
    0.6908    0.0000    0.0000 Cl  0  0  0  0  0  0  0  0  0  0  0  0
    0.6890    0.0000    0.0000 Cl  0  0  0  0  0  0  0  0  0  0  0  0
    5.4948   -1.1793   -3.5390 H   0  0  0  0  0  0  0  0  0  0  0  0
    7.2746   -1.3296   -3.0942 H   0  0  0  0  0  0  0  0  0  0  0  0
    6.0363   -2.3691   -2.3239 H   0  0  0  0  0  0  0  0  0  0  0  0
    3.8198   -1.6024   -2.4256 H   0  0  0  0  0  0  0  0  0  0  0  0
    1.5710   -1.1904   -1.3645 H   0  0  0  0  0  0  0  0  0  0  0  0
    1.5844    1.8060    2.1148 H   0  0  0  0  0  0  0  0  0  0  0  0
   -2.9546    2.3369    4.1519 H   0  0  0  0  0  0  0  0  0  0  0  0
   -3.6675    0.6319    2.3348 H   0  0  0  0  0  0  0  0  0  0  0  0
   -2.0496   -1.5954   -0.6053 H   0  0  0  0  0  0  0  0  0  0  0  0
   -5.5111    2.4151   -0.0723 H   0  0  0  0  0  0  0  0  0  0  0  0
   -7.1624    0.9919   -1.1860 H   0  0  0  0  0  0  0  0  0  0  0  0
   -6.5767   -1.3305   -1.7281 H   0  0  0  0  0  0  0  0  0  0  0  0
   -6.0645   -3.7706   -1.3042 H   0  0  0  0  0  0  0  0  0  0  0  0
   -5.3931   -3.4192   -2.9198 H   0  0  0  0  0  0  0  0  0  0  0  0
    3.3796    1.5351    1.3396 H   0  0  0  0  0  0  0  0  0  0  0  0
    4.9926    2.9779    1.2813 H   0  0  0  0  0  0  0  0  0  0  0  0
    6.7385    2.7002    1.5606 H   0  0  0  0  0  0  0  0  0  0  0  0
    5.4980    1.6639    2.4518 H   0  0  0  0  0  0  0  0  0  0  0  0
   -0.6908    0.0000    0.0000 H   0  0  0  0  0  0  0  0  0  0  0  0
   -0.6890    0.0000    0.0000 H   0  0  0  0  0  0  0  0  0  0  0  0
  1  2  1  0
  2  3  1  0
  3  4  2  0
  4  5  1  0
  5  6  2  0
  6  7  1  0
  7  8  2  0
  8  9  1  0
  9 10  2  0
 10 11  1  0
 11 12  2  0
 12 13  1  0
 13 14  1  0
 14 15  1  0
 15 16  1  0
 16 17  2  0
 17 18  1  0
 18 19  2  0
 19 20  1  0
 20 21  2  0
 21 22  1  0
 22 23  1  0
 22 24  2  0
 14 25  2  0
  6 26  1  0
 26 27  2  0
 27 28  1  0
 28 29  1  0
 27  3  1  0
 25  7  1  0
 13  9  1  0
 21 16  1  0
  1 32  1  0
  1 33  1  0
  1 34  1  0
  4 35  1  0
  5 36  1  0
  8 37  1  0
 11 38  1  0
 12 39  1  0
 15 40  1  0
 18 41  1  0
 19 42  1  0
 20 43  1  0
 23 44  1  0
 23 45  1  0
 26 46  1  0
 29 47  1  0
 29 48  1  0
 29 49  1  0
 30 50  1  0
 31 51  1  0
M  END
$$$$
