
     RDKit          3D

 28 30  0  0  0  0  0  0  0  0999 V2000
    5.1425   -0.2914   -0.4161 O   0  0  0  0  0  0  0  0  0  0  0  0
    3.9221   -0.2172   -0.3803 C   0  0  0  0  0  0  0  0  0  0  0  0
    3.2326   -0.0352   -1.5260 O   0  0  0  0  0  0  0  0  0  0  0  0
    3.0781   -0.3143    0.8802 C   0  0  0  0  0  0  0  0  0  0  0  0
    1.6502   -0.1898    0.6082 N   0  0  0  0  0  0  0  0  0  0  0  0
    0.9588   -1.3528    0.2803 C   0  0  0  0  0  0  0  0  0  0  0  0
    1.4795   -2.4648    0.2427 O   0  0  0  0  0  0  0  0  0  0  0  0
   -0.4795   -1.2088   -0.0392 C   0  0  0  0  0  0  0  0  0  0  0  0
   -1.2379   -2.3480   -0.3383 C   0  0  0  0  0  0  0  0  0  0  0  0
   -2.5916   -2.2234   -0.6383 C   0  0  0  0  0  0  0  0  0  0  0  0
   -3.1894   -0.9630   -0.6416 C   0  0  0  0  0  0  0  0  0  0  0  0
   -2.4415    0.1879   -0.3460 C   0  0  0  0  0  0  0  0  0  0  0  0
   -3.0335    1.4611   -0.3504 C   0  0  0  0  0  0  0  0  0  0  0  0
   -2.2814    2.5992   -0.0589 C   0  0  0  0  0  0  0  0  0  0  0  0
   -0.9276    2.4776    0.2415 C   0  0  0  0  0  0  0  0  0  0  0  0
   -0.3237    1.2136    0.2519 C   0  0  0  0  0  0  0  0  0  0  0  0
   -1.0652    0.0626   -0.0394 C   0  0  0  0  0  0  0  0  0  0  0  0
    1.1162    1.0954    0.5744 C   0  0  0  0  0  0  0  0  0  0  0  0
    1.7737    2.1099    0.7923 O   0  0  0  0  0  0  0  0  0  0  0  0
    3.9294    0.0027   -2.2143 H   0  0  0  0  0  0  0  0  0  0  0  0
    3.2830   -1.2827    1.3483 H   0  0  0  0  0  0  0  0  0  0  0  0
    3.3965    0.4824    1.5604 H   0  0  0  0  0  0  0  0  0  0  0  0
   -0.7753   -3.3335   -0.3380 H   0  0  0  0  0  0  0  0  0  0  0  0
   -3.1811   -3.1073   -0.8705 H   0  0  0  0  0  0  0  0  0  0  0  0
   -4.2490   -0.8859   -0.8798 H   0  0  0  0  0  0  0  0  0  0  0  0
   -4.0906    1.5767   -0.5839 H   0  0  0  0  0  0  0  0  0  0  0  0
   -2.7510    3.5802   -0.0671 H   0  0  0  0  0  0  0  0  0  0  0  0
   -0.3443    3.3687    0.4671 H   0  0  0  0  0  0  0  0  0  0  0  0
  1  2  2  0
  2  3  1  0
  2  4  1  0
  4  5  1  0
  5  6  1  0
  6  7  2  0
  6  8  1  0
  8  9  1  0
  9 10  2  0
 10 11  1  0
 11 12  2  0
 12 13  1  0
 13 14  2  0
 14 15  1  0
 15 16  2  0
 16 17  1  0
 16 18  1  0
 18 19  2  0
 18  5  1  0
 17  8  2  0
 17 12  1  0
  3 20  1  0
  4 21  1  0
  4 22  1  0
  9 23  1  0
 10 24  1  0
 11 25  1  0
 13 26  1  0
 14 27  1  0
 15 28  1  0
M  END
$$$$
