
     RDKit          3D

 54 56  0  0  0  0  0  0  0  0999 V2000
    3.2077   -0.7198    4.1390 C   0  0  0  0  0  0  0  0  0  0  0  0
    4.0167   -0.6258    2.9737 O   0  0  0  0  0  0  0  0  0  0  0  0
    3.4258   -0.2219    1.8033 C   0  0  0  0  0  0  0  0  0  0  0  0
    2.0712    0.1130    1.6900 C   0  0  0  0  0  0  0  0  0  0  0  0
    1.5441    0.4950    0.4560 C   0  0  0  0  0  0  0  0  0  0  0  0
    0.1839    0.8421    0.3936 N   0  0  0  0  0  0  0  0  0  0  0  0
   -0.5315    1.3338   -0.6995 C   0  0  0  0  0  0  0  0  0  0  0  0
    0.0089    2.1814   -1.6693 C   0  0  0  0  0  0  0  0  0  0  0  0
   -0.7031    2.6878   -2.7109 N   0  0  0  0  0  0  0  0  0  0  0  0
   -2.0073    2.3123   -2.7524 C   0  0  0  0  0  0  0  0  0  0  0  0
   -2.7786    2.8231   -3.8465 C   0  0  0  0  0  0  0  0  0  0  0  0
   -3.4126    3.2328   -4.7310 N   0  0  0  0  0  0  0  0  0  0  0  0
   -2.5665    1.4813   -1.7863 C   0  0  0  0  0  0  0  0  0  0  0  0
   -3.8985    1.1411   -1.9001 O   0  0  0  0  0  0  0  0  0  0  0  0
   -4.4435    0.3263   -0.8416 C   0  0  2  0  0  0  0  0  0  0  0  0
   -4.2130   -1.1413   -1.1905 C   0  0  0  0  0  0  0  0  0  0  0  0
   -5.9479    0.7021   -0.7490 C   0  0  0  0  0  0  0  0  0  0  0  0
   -6.8159    0.1046    0.2753 N   0  0  0  0  0  0  0  0  0  0  0  0
   -6.2291    0.0823    1.6076 C   0  0  0  0  0  0  0  0  0  0  0  0
   -7.3767   -1.1858   -0.0999 C   0  0  0  0  0  0  0  0  0  0  0  0
   -1.8407    0.9885   -0.7492 N   0  0  0  0  0  0  0  0  0  0  0  0
    2.3198    0.5785   -0.6388 N   0  0  0  0  0  0  0  0  0  0  0  0
    3.6297    0.2511   -0.5158 C   0  0  0  0  0  0  0  0  0  0  0  0
    4.2412   -0.1593    0.6641 C   0  0  0  0  0  0  0  0  0  0  0  0
    5.6605   -0.4793    0.6805 C   0  0  0  0  0  0  0  0  0  0  0  0
    6.6468   -0.2880    1.6765 C   0  0  0  0  0  0  0  0  0  0  0  0
    7.8551   -0.7157    1.2989 N   0  0  0  0  0  0  0  0  0  0  0  0
    7.6454   -1.1979    0.0627 N   0  0  0  0  0  0  0  0  0  0  0  0
    8.7473   -1.7703   -0.6717 C   0  0  0  0  0  0  0  0  0  0  0  0
    6.3514   -1.0760   -0.3565 C   0  0  0  0  0  0  0  0  0  0  0  0
    2.4096   -1.4576    4.0068 H   0  0  0  0  0  0  0  0  0  0  0  0
    3.8442   -1.0616    4.9608 H   0  0  0  0  0  0  0  0  0  0  0  0
    2.8024    0.2586    4.4168 H   0  0  0  0  0  0  0  0  0  0  0  0
    1.4090    0.0896    2.5469 H   0  0  0  0  0  0  0  0  0  0  0  0
   -0.4133    0.1955    0.8950 H   0  0  0  0  0  0  0  0  0  0  0  0
    1.0467    2.4966   -1.6315 H   0  0  0  0  0  0  0  0  0  0  0  0
   -3.9769    0.5724    0.1196 H   0  0  0  0  0  0  0  0  0  0  0  0
   -4.8006   -1.4310   -2.0685 H   0  0  0  0  0  0  0  0  0  0  0  0
   -4.4722   -1.7977   -0.3567 H   0  0  0  0  0  0  0  0  0  0  0  0
   -3.1646   -1.3304   -1.4433 H   0  0  0  0  0  0  0  0  0  0  0  0
   -5.9870    1.7897   -0.5909 H   0  0  0  0  0  0  0  0  0  0  0  0
   -6.4088    0.5799   -1.7395 H   0  0  0  0  0  0  0  0  0  0  0  0
   -5.3970   -0.6253    1.6873 H   0  0  0  0  0  0  0  0  0  0  0  0
   -5.8678    1.0775    1.8894 H   0  0  0  0  0  0  0  0  0  0  0  0
   -6.9822   -0.1983    2.3525 H   0  0  0  0  0  0  0  0  0  0  0  0
   -6.6357   -1.9886   -0.1167 H   0  0  0  0  0  0  0  0  0  0  0  0
   -7.8532   -1.1343   -1.0850 H   0  0  0  0  0  0  0  0  0  0  0  0
   -8.1628   -1.4753    0.6070 H   0  0  0  0  0  0  0  0  0  0  0  0
    4.1942    0.3495   -1.4400 H   0  0  0  0  0  0  0  0  0  0  0  0
    6.5349    0.1521    2.6591 H   0  0  0  0  0  0  0  0  0  0  0  0
    9.1359   -2.6192   -0.1037 H   0  0  0  0  0  0  0  0  0  0  0  0
    8.3970   -2.1054   -1.6510 H   0  0  0  0  0  0  0  0  0  0  0  0
    9.5162   -1.0033   -0.7929 H   0  0  0  0  0  0  0  0  0  0  0  0
    6.0413   -1.4295   -1.3300 H   0  0  0  0  0  0  0  0  0  0  0  0
  1  2  1  0
  2  3  1  0
  3  4  2  0
  4  5  1  0
  5  6  1  0
  6  7  1  0
  7  8  2  0
  8  9  1  0
  9 10  2  0
 10 11  1  0
 11 12  3  0
 10 13  1  0
 13 14  1  0
 14 15  1  0
 15 16  1  0
 15 17  1  0
 17 18  1  0
 18 19  1  0
 18 20  1  0
 13 21  2  0
  5 22  2  0
 22 23  1  0
 23 24  2  0
 24 25  1  0
 25 26  1  0
 26 27  2  0
 27 28  1  0
 28 29  1  0
 28 30  1  0
 24  3  1  0
 30 25  2  0
 21  7  1  0
  1 31  1  0
  1 32  1  0
  1 33  1  0
  4 34  1  0
  6 35  1  0
  8 36  1  0
 15 37  1  1
 16 38  1  0
 16 39  1  0
 16 40  1  0
 17 41  1  0
 17 42  1  0
 19 43  1  0
 19 44  1  0
 19 45  1  0
 20 46  1  0
 20 47  1  0
 20 48  1  0
 23 49  1  0
 26 50  1  0
 29 51  1  0
 29 52  1  0
 29 53  1  0
 30 54  1  0
M  END
$$$$
