
     RDKit          3D

 37 38  0  0  0  0  0  0  0  0999 V2000
   -4.8080    1.2364    0.3498 C   0  0  0  0  0  0  0  0  0  0  0  0
   -4.2857   -0.2049    0.4032 C   0  0  0  0  0  0  0  0  0  0  0  0
   -4.9597   -1.0808   -0.6553 C   0  0  0  0  0  0  0  0  0  0  0  0
   -2.7672   -0.3079    0.3308 C   0  0  0  0  0  0  0  0  0  0  0  0
   -2.0295   -0.9891    1.3137 C   0  0  0  0  0  0  0  0  0  0  0  0
   -2.6115   -1.6759    2.3448 O   0  0  0  0  0  0  0  0  0  0  0  0
   -0.6321   -1.0241    1.2982 C   0  0  0  0  0  0  0  0  0  0  0  0
    0.0840   -0.3983    0.2770 C   0  0  0  0  0  0  0  0  0  0  0  0
    1.5509   -0.4883    0.2757 C   0  0  0  0  0  0  0  0  0  0  0  0
    2.3608    0.5160   -0.0973 C   0  0  0  0  0  0  0  0  0  0  0  0
    3.8280    0.4253   -0.0945 C   0  0  0  0  0  0  0  0  0  0  0  0
    4.5354   -0.2211    0.9277 C   0  0  0  0  0  0  0  0  0  0  0  0
    5.9322   -0.2607    0.9105 C   0  0  0  0  0  0  0  0  0  0  0  0
    6.6357    0.3542   -0.1229 C   0  0  0  0  0  0  0  0  0  0  0  0
    5.9441    1.0139   -1.1365 C   0  0  0  0  0  0  0  0  0  0  0  0
    4.5475    1.0542   -1.1190 C   0  0  0  0  0  0  0  0  0  0  0  0
   -0.6284    0.2330   -0.7458 C   0  0  0  0  0  0  0  0  0  0  0  0
   -2.0283    0.2754   -0.7130 C   0  0  0  0  0  0  0  0  0  0  0  0
   -2.6887    0.8912   -1.7417 O   0  0  0  0  0  0  0  0  0  0  0  0
   -4.7022    1.6903   -0.6393 H   0  0  0  0  0  0  0  0  0  0  0  0
   -5.8753    1.2602    0.5980 H   0  0  0  0  0  0  0  0  0  0  0  0
   -4.2834    1.8708    1.0726 H   0  0  0  0  0  0  0  0  0  0  0  0
   -4.6202   -0.5768    1.3781 H   0  0  0  0  0  0  0  0  0  0  0  0
   -6.0477   -1.0697   -0.5279 H   0  0  0  0  0  0  0  0  0  0  0  0
   -4.6243   -2.1207   -0.5736 H   0  0  0  0  0  0  0  0  0  0  0  0
   -4.7424   -0.7402   -1.6728 H   0  0  0  0  0  0  0  0  0  0  0  0
   -3.4736   -2.0060    2.0462 H   0  0  0  0  0  0  0  0  0  0  0  0
   -0.1116   -1.5506    2.0950 H   0  0  0  0  0  0  0  0  0  0  0  0
    1.9596   -1.4378    0.6139 H   0  0  0  0  0  0  0  0  0  0  0  0
    1.9544    1.4675   -0.4306 H   0  0  0  0  0  0  0  0  0  0  0  0
    4.0087   -0.6902    1.7551 H   0  0  0  0  0  0  0  0  0  0  0  0
    6.4695   -0.7670    1.7082 H   0  0  0  0  0  0  0  0  0  0  0  0
    7.7220    0.3239   -0.1352 H   0  0  0  0  0  0  0  0  0  0  0  0
    6.4908    1.4991   -1.9408 H   0  0  0  0  0  0  0  0  0  0  0  0
    4.0261    1.5747   -1.9188 H   0  0  0  0  0  0  0  0  0  0  0  0
   -0.0897    0.6829   -1.5745 H   0  0  0  0  0  0  0  0  0  0  0  0
   -2.0403    1.2412   -2.3739 H   0  0  0  0  0  0  0  0  0  0  0  0
  1  2  1  0
  2  3  1  0
  2  4  1  0
  4  5  2  0
  5  6  1  0
  5  7  1  0
  7  8  2  0
  8  9  1  0
  9 10  2  0
 10 11  1  0
 11 12  2  0
 12 13  1  0
 13 14  2  0
 14 15  1  0
 15 16  2  0
  8 17  1  0
 17 18  2  0
 18 19  1  0
 18  4  1  0
 16 11  1  0
  1 20  1  0
  1 21  1  0
  1 22  1  0
  2 23  1  0
  3 24  1  0
  3 25  1  0
  3 26  1  0
  6 27  1  0
  7 28  1  0
  9 29  1  0
 10 30  1  0
 12 31  1  0
 13 32  1  0
 14 33  1  0
 15 34  1  0
 16 35  1  0
 17 36  1  0
 19 37  1  0
M  END
$$$$
