
     RDKit          3D

 43 45  0  0  0  0  0  0  0  0999 V2000
    5.4160    1.0426    1.0872 C   0  0  0  0  0  0  0  0  0  0  0  0
    4.1433    0.8099    0.3283 C   0  0  0  0  0  0  0  0  0  0  0  0
    2.9074    1.0783    0.9192 C   0  0  0  0  0  0  0  0  0  0  0  0
    1.7274    0.8902    0.1979 C   0  0  0  0  0  0  0  0  0  0  0  0
    1.7579    0.4329   -1.1271 C   0  0  0  0  0  0  0  0  0  0  0  0
    0.2025    0.2253   -1.9951 S   0  0  0  0  0  0  0  0  0  0  0  0
   -0.5240   -1.1250   -1.0507 C   0  0  0  0  0  0  0  0  0  0  0  0
   -0.0398   -2.4197   -1.3045 C   0  0  0  0  0  0  0  0  0  0  0  0
   -0.5369   -3.5159   -0.6031 C   0  0  0  0  0  0  0  0  0  0  0  0
   -1.5260   -3.3290    0.3544 C   0  0  0  0  0  0  0  0  0  0  0  0
   -2.0188   -2.0464    0.6109 C   0  0  0  0  0  0  0  0  0  0  0  0
   -1.5342   -0.9184   -0.0773 C   0  0  0  0  0  0  0  0  0  0  0  0
   -2.0559    0.3663    0.1724 N   0  0  0  0  0  0  0  0  0  0  0  0
   -3.1370    0.7239   -0.7749 C   0  0  0  0  0  0  0  0  0  0  0  0
   -3.8897    1.9858   -0.2976 C   0  0  0  0  0  0  0  0  0  0  0  0
   -4.5336    1.8593    1.0258 N   0  0  0  0  0  0  0  0  0  0  0  0
   -3.8124    0.8960    1.8821 C   0  0  0  0  0  0  0  0  0  0  0  0
   -2.3049    0.7573    1.5766 C   0  0  0  0  0  0  0  0  0  0  0  0
    2.9989    0.1863   -1.7445 C   0  0  0  0  0  0  0  0  0  0  0  0
    3.1051   -0.2731   -3.1733 C   0  0  0  0  0  0  0  0  0  0  0  0
    4.1802    0.3799   -1.0045 C   0  0  0  0  0  0  0  0  0  0  0  0
    5.7671    2.0661    0.9242 H   0  0  0  0  0  0  0  0  0  0  0  0
    5.2654    0.8869    2.1607 H   0  0  0  0  0  0  0  0  0  0  0  0
    6.1956    0.3444    0.7647 H   0  0  0  0  0  0  0  0  0  0  0  0
    2.8507    1.4371    1.9440 H   0  0  0  0  0  0  0  0  0  0  0  0
    0.7757    1.1079    0.6781 H   0  0  0  0  0  0  0  0  0  0  0  0
    0.7362   -2.5787   -2.0490 H   0  0  0  0  0  0  0  0  0  0  0  0
   -0.1513   -4.5115   -0.8052 H   0  0  0  0  0  0  0  0  0  0  0  0
   -1.9212   -4.1808    0.9018 H   0  0  0  0  0  0  0  0  0  0  0  0
   -2.8068   -1.9426    1.3503 H   0  0  0  0  0  0  0  0  0  0  0  0
   -3.8562   -0.1009   -0.8724 H   0  0  0  0  0  0  0  0  0  0  0  0
   -2.7211    0.9201   -1.7690 H   0  0  0  0  0  0  0  0  0  0  0  0
   -3.1861    2.8262   -0.2512 H   0  0  0  0  0  0  0  0  0  0  0  0
   -4.6530    2.2587   -1.0348 H   0  0  0  0  0  0  0  0  0  0  0  0
   -5.4912    1.5307    0.9074 H   0  0  0  0  0  0  0  0  0  0  0  0
   -4.2899   -0.0853    1.7727 H   0  0  0  0  0  0  0  0  0  0  0  0
   -3.9460    1.1984    2.9262 H   0  0  0  0  0  0  0  0  0  0  0  0
   -1.8361    0.0682    2.2893 H   0  0  0  0  0  0  0  0  0  0  0  0
   -1.8205    1.7287    1.7392 H   0  0  0  0  0  0  0  0  0  0  0  0
    4.1497   -0.4044   -3.4760 H   0  0  0  0  0  0  0  0  0  0  0  0
    2.6060   -1.2382   -3.3046 H   0  0  0  0  0  0  0  0  0  0  0  0
    2.6629    0.4671   -3.8477 H   0  0  0  0  0  0  0  0  0  0  0  0
    5.1447    0.1952   -1.4747 H   0  0  0  0  0  0  0  0  0  0  0  0
  1  2  1  0
  2  3  2  0
  3  4  1  0
  4  5  2  0
  5  6  1  0
  6  7  1  0
  7  8  2  0
  8  9  1  0
  9 10  2  0
 10 11  1  0
 11 12  2  0
 12 13  1  0
 13 14  1  0
 14 15  1  0
 15 16  1  0
 16 17  1  0
 17 18  1  0
  5 19  1  0
 19 20  1  0
 19 21  2  0
 21  2  1  0
 12  7  1  0
 18 13  1  0
  1 22  1  0
  1 23  1  0
  1 24  1  0
  3 25  1  0
  4 26  1  0
  8 27  1  0
  9 28  1  0
 10 29  1  0
 11 30  1  0
 14 31  1  0
 14 32  1  0
 15 33  1  0
 15 34  1  0
 16 35  1  0
 17 36  1  0
 17 37  1  0
 18 38  1  0
 18 39  1  0
 20 40  1  0
 20 41  1  0
 20 42  1  0
 21 43  1  0
M  END
$$$$
