
     RDKit          3D

 78 82  0  0  0  0  0  0  0  0999 V2000
   -7.8367    2.5083   -2.5781 C   0  0  0  0  0  0  0  0  0  0  0  0
   -7.5826    2.1043   -1.2333 O   0  0  0  0  0  0  0  0  0  0  0  0
   -6.2833    1.6595   -1.0386 C   0  0  0  0  0  0  0  0  0  0  0  0
   -5.3999    1.7171   -2.0577 N   0  0  0  0  0  0  0  0  0  0  0  0
   -4.1508    1.2630   -1.7923 C   0  0  0  0  0  0  0  0  0  0  0  0
   -3.7175    0.7923   -0.5528 C   0  0  0  0  0  0  0  0  0  0  0  0
   -2.3451    0.3013   -0.3660 C   0  0  0  0  0  0  0  0  0  0  0  0
   -2.0270   -0.6913   -1.2223 N   0  0  0  0  0  0  0  0  0  0  0  0
   -0.8373   -1.2836   -1.1014 C   0  0  0  0  0  0  0  0  0  0  0  0
   -0.5092   -2.2948   -1.9848 N   0  0  0  0  0  0  0  0  0  0  0  0
   -1.6294   -2.8966   -2.7216 C   0  0  0  0  0  0  0  0  0  0  0  0
   -1.1221   -4.0698   -3.5718 C   0  0  0  0  0  0  0  0  0  0  0  0
   -0.4941   -5.1115   -2.8040 O   0  0  0  0  0  0  0  0  0  0  0  0
    0.0970   -4.6452   -1.5816 C   0  0  0  0  0  0  0  0  0  0  0  0
    0.6011   -3.1946   -1.6546 C   0  0  0  0  0  0  0  0  0  0  0  0
    0.0499   -0.9111   -0.1721 N   0  0  0  0  0  0  0  0  0  0  0  0
   -0.2338    0.0932    0.6696 C   0  0  0  0  0  0  0  0  0  0  0  0
    0.7036    0.4808    1.6422 C   0  0  0  0  0  0  0  0  0  0  0  0
    2.0196   -0.2637    1.7960 C   0  0  0  0  0  0  0  0  0  0  0  0
    3.2083    0.5971    1.6354 N   0  0  0  0  0  0  0  0  0  0  0  0
    4.4298   -0.0984    2.0684 C   0  0  0  0  0  0  0  0  0  0  0  0
    5.1890   -0.7730    0.9291 C   0  0  0  0  0  0  0  0  0  0  0  0
    5.6329    0.2452   -0.1468 C   0  0  0  0  0  0  0  0  0  0  0  0
    7.1532    0.5687   -0.1101 C   0  0  0  0  0  0  0  0  0  0  0  0
    7.5587    1.5417   -1.2234 C   0  0  0  0  0  0  0  0  0  0  0  0
    7.6403    1.1075    1.2389 C   0  0  0  0  0  0  0  0  0  0  0  0
    7.8690   -0.6566   -0.3352 O   0  0  0  0  0  0  0  0  0  0  0  0
    4.7327    1.4953   -0.1296 C   0  0  0  0  0  0  0  0  0  0  0  0
    3.3004    1.1289    0.2642 C   0  0  0  0  0  0  0  0  0  0  0  0
    0.4328    1.5471    2.5210 C   0  0  0  0  0  0  0  0  0  0  0  0
   -0.7633    2.2305    2.4263 C   0  0  0  0  0  0  0  0  0  0  0  0
   -1.0163    3.2533    3.2508 F   0  0  0  0  0  0  0  0  0  0  0  0
   -1.7081    1.8589    1.4854 C   0  0  0  0  0  0  0  0  0  0  0  0
   -1.4569    0.7744    0.6081 C   0  0  0  0  0  0  0  0  0  0  0  0
   -4.6704    0.7572    0.4764 C   0  0  0  0  0  0  0  0  0  0  0  0
   -5.9802    1.1699    0.2384 C   0  0  0  0  0  0  0  0  0  0  0  0
   -6.9718    1.2394    1.2767 N   0  0  0  0  0  0  0  0  0  0  0  0
   -7.2020   -0.0570    2.3240 S   0  0  0  0  0  6  0  0  0  0  0  0
   -6.4539    0.5735    3.8144 C   0  0  0  0  0  0  0  0  0  0  0  0
   -8.6283   -0.1289    2.5572 O   0  0  0  0  0  0  0  0  0  0  0  0
   -6.4502   -1.2071    1.8775 O   0  0  0  0  0  0  0  0  0  0  0  0
   -7.2456    3.3919   -2.8336 H   0  0  0  0  0  0  0  0  0  0  0  0
   -7.6592    1.6902   -3.2846 H   0  0  0  0  0  0  0  0  0  0  0  0
   -8.8930    2.7798   -2.6510 H   0  0  0  0  0  0  0  0  0  0  0  0
   -3.4740    1.2854   -2.6428 H   0  0  0  0  0  0  0  0  0  0  0  0
   -2.3825   -3.2693   -2.0144 H   0  0  0  0  0  0  0  0  0  0  0  0
   -2.0991   -2.1555   -3.3805 H   0  0  0  0  0  0  0  0  0  0  0  0
   -0.3931   -3.7200   -4.3105 H   0  0  0  0  0  0  0  0  0  0  0  0
   -1.9542   -4.5219   -4.1219 H   0  0  0  0  0  0  0  0  0  0  0  0
   -0.6510   -4.7488   -0.7871 H   0  0  0  0  0  0  0  0  0  0  0  0
    0.9250   -5.3200   -1.3431 H   0  0  0  0  0  0  0  0  0  0  0  0
    1.3498   -3.1094   -2.4531 H   0  0  0  0  0  0  0  0  0  0  0  0
    1.1029   -2.9515   -0.7096 H   0  0  0  0  0  0  0  0  0  0  0  0
    2.0843   -1.1321    1.1298 H   0  0  0  0  0  0  0  0  0  0  0  0
    2.0069   -0.6744    2.8146 H   0  0  0  0  0  0  0  0  0  0  0  0
    4.2189   -0.8266    2.8592 H   0  0  0  0  0  0  0  0  0  0  0  0
    5.0802    0.6459    2.5390 H   0  0  0  0  0  0  0  0  0  0  0  0
    4.5336   -1.5198    0.4621 H   0  0  0  0  0  0  0  0  0  0  0  0
    6.0395   -1.3376    1.3257 H   0  0  0  0  0  0  0  0  0  0  0  0
    5.4528   -0.2630   -1.1033 H   0  0  0  0  0  0  0  0  0  0  0  0
    7.1619    2.5495   -1.0535 H   0  0  0  0  0  0  0  0  0  0  0  0
    8.6492    1.6160   -1.2983 H   0  0  0  0  0  0  0  0  0  0  0  0
    7.2099    1.1854   -2.2002 H   0  0  0  0  0  0  0  0  0  0  0  0
    8.7224    1.2901    1.2146 H   0  0  0  0  0  0  0  0  0  0  0  0
    7.1514    2.0480    1.5174 H   0  0  0  0  0  0  0  0  0  0  0  0
    7.4830    0.3794    2.0428 H   0  0  0  0  0  0  0  0  0  0  0  0
    7.6541   -0.9728   -1.2286 H   0  0  0  0  0  0  0  0  0  0  0  0
    4.7249    1.9538   -1.1229 H   0  0  0  0  0  0  0  0  0  0  0  0
    5.1130    2.2564    0.5593 H   0  0  0  0  0  0  0  0  0  0  0  0
    2.6749    2.0268    0.1890 H   0  0  0  0  0  0  0  0  0  0  0  0
    2.9160    0.4103   -0.4726 H   0  0  0  0  0  0  0  0  0  0  0  0
    1.1627    1.8455    3.2696 H   0  0  0  0  0  0  0  0  0  0  0  0
   -2.6278    2.4331    1.4355 H   0  0  0  0  0  0  0  0  0  0  0  0
   -4.3822    0.3767    1.4506 H   0  0  0  0  0  0  0  0  0  0  0  0
   -7.8797    1.5737    0.9363 H   0  0  0  0  0  0  0  0  0  0  0  0
   -7.0341    1.4245    4.1739 H   0  0  0  0  0  0  0  0  0  0  0  0
   -5.4239    0.8645    3.6053 H   0  0  0  0  0  0  0  0  0  0  0  0
   -6.4661   -0.2292    4.5542 H   0  0  0  0  0  0  0  0  0  0  0  0
  1  2  1  0
  2  3  1  0
  3  4  2  0
  4  5  1  0
  5  6  2  0
  6  7  1  0
  7  8  2  0
  8  9  1  0
  9 10  1  0
 10 11  1  0
 11 12  1  0
 12 13  1  0
 13 14  1  0
 14 15  1  0
  9 16  2  0
 16 17  1  0
 17 18  2  0
 18 19  1  0
 19 20  1  0
 20 21  1  0
 21 22  1  0
 22 23  1  0
 23 24  1  0
 24 25  1  0
 24 26  1  0
 24 27  1  0
 23 28  1  0
 28 29  1  0
 18 30  1  0
 30 31  2  0
 31 32  1  0
 31 33  1  0
 33 34  2  0
  6 35  1  0
 35 36  2  0
 36 37  1  0
 37 38  1  0
 38 39  1  0
 38 40  2  0
 38 41  2  0
 36  3  1  0
 34  7  1  0
 15 10  1  0
 34 17  1  0
 29 20  1  0
  1 42  1  0
  1 43  1  0
  1 44  1  0
  5 45  1  0
 11 46  1  0
 11 47  1  0
 12 48  1  0
 12 49  1  0
 14 50  1  0
 14 51  1  0
 15 52  1  0
 15 53  1  0
 19 54  1  0
 19 55  1  0
 21 56  1  0
 21 57  1  0
 22 58  1  0
 22 59  1  0
 23 60  1  0
 25 61  1  0
 25 62  1  0
 25 63  1  0
 26 64  1  0
 26 65  1  0
 26 66  1  0
 27 67  1  0
 28 68  1  0
 28 69  1  0
 29 70  1  0
 29 71  1  0
 30 72  1  0
 33 73  1  0
 35 74  1  0
 37 75  1  0
 39 76  1  0
 39 77  1  0
 39 78  1  0
M  END
$$$$
