
     RDKit          3D

 26 27  0  0  0  0  0  0  0  0999 V2000
   -3.3885   -0.8325   -0.0580 C   0  0  0  0  0  0  0  0  0  0  0  0
   -2.3974    0.2520   -0.4796 C   0  0  0  0  0  0  0  0  0  0  0  0
   -3.0585    1.6299   -0.5060 C   0  0  0  0  0  0  0  0  0  0  0  0
   -1.2104    0.2461    0.3624 N   0  0  0  0  0  0  0  0  0  0  0  0
   -1.3151    0.5004    1.6824 N   0  0  0  0  0  0  0  0  0  0  0  0
   -0.0981    0.4322    2.2040 N   0  0  0  0  0  0  0  0  0  0  0  0
    0.7792    0.1317    1.1990 C   0  0  0  0  0  0  0  0  0  0  0  0
    2.1680   -0.0487    1.2305 C   0  0  0  0  0  0  0  0  0  0  0  0
    2.8297   -0.3557    0.0310 C   0  0  0  0  0  0  0  0  0  0  0  0
    4.2999   -0.5428    0.0852 C   0  0  0  0  0  0  0  0  0  0  0  0
    4.9941   -0.4548    1.0805 O   0  0  0  0  0  0  0  0  0  0  0  0
    4.8348   -0.8327   -1.1139 O   0  0  0  0  0  0  0  0  0  0  0  0
    2.1129   -0.4780   -1.1695 C   0  0  0  0  0  0  0  0  0  0  0  0
    0.7235   -0.2996   -1.2126 C   0  0  0  0  0  0  0  0  0  0  0  0
    0.0906    0.0053   -0.0031 C   0  0  0  0  0  0  0  0  0  0  0  0
   -4.2349   -0.8738   -0.7516 H   0  0  0  0  0  0  0  0  0  0  0  0
   -2.9092   -1.8177   -0.0511 H   0  0  0  0  0  0  0  0  0  0  0  0
   -3.7853   -0.6491    0.9467 H   0  0  0  0  0  0  0  0  0  0  0  0
   -2.0644    0.0221   -1.4982 H   0  0  0  0  0  0  0  0  0  0  0  0
   -3.8976    1.6429   -1.2095 H   0  0  0  0  0  0  0  0  0  0  0  0
   -2.3440    2.3995   -0.8184 H   0  0  0  0  0  0  0  0  0  0  0  0
   -3.4419    1.9133    0.4804 H   0  0  0  0  0  0  0  0  0  0  0  0
    2.7072    0.0495    2.1676 H   0  0  0  0  0  0  0  0  0  0  0  0
    5.7924   -0.9266   -0.9247 H   0  0  0  0  0  0  0  0  0  0  0  0
    2.6346   -0.7164   -2.0954 H   0  0  0  0  0  0  0  0  0  0  0  0
    0.1785   -0.3964   -2.1455 H   0  0  0  0  0  0  0  0  0  0  0  0
  1  2  1  0
  2  3  1  0
  2  4  1  0
  4  5  1  0
  5  6  2  0
  6  7  1  0
  7  8  2  0
  8  9  1  0
  9 10  1  0
 10 11  2  0
 10 12  1  0
  9 13  2  0
 13 14  1  0
 14 15  2  0
 15  4  1  0
 15  7  1  0
  1 16  1  0
  1 17  1  0
  1 18  1  0
  2 19  1  0
  3 20  1  0
  3 21  1  0
  3 22  1  0
  8 23  1  0
 12 24  1  0
 13 25  1  0
 14 26  1  0
M  END
$$$$
