
     RDKit          3D

 37 40  0  0  0  0  0  0  0  0999 V2000
    0.1980    2.6075    1.2016 O   0  0  0  0  0  0  0  0  0  0  0  0
   -0.3001    1.4878    1.3209 C   0  0  0  0  0  0  0  0  0  0  0  0
   -1.6809    1.3571    1.9485 C   0  0  0  0  0  0  0  0  0  0  0  0
   -2.4315    0.1792    1.5362 N   0  0  0  0  0  0  0  0  0  0  0  0
   -2.7163   -0.8832    2.3560 C   0  0  0  0  0  0  0  0  0  0  0  0
   -3.3985   -1.8180    1.6120 C   0  0  0  0  0  0  0  0  0  0  0  0
   -3.5383   -1.3061    0.2936 C   0  0  0  0  0  0  0  0  0  0  0  0
   -4.1305   -1.8015   -0.8843 C   0  0  0  0  0  0  0  0  0  0  0  0
   -4.0952   -1.0287   -2.0495 C   0  0  0  0  0  0  0  0  0  0  0  0
   -3.4833    0.2214   -2.0520 C   0  0  0  0  0  0  0  0  0  0  0  0
   -2.8905    0.7362   -0.8951 C   0  0  0  0  0  0  0  0  0  0  0  0
   -2.9304   -0.0477    0.2691 C   0  0  0  0  0  0  0  0  0  0  0  0
    0.3249    0.2974    0.9876 N   0  0  0  0  0  0  0  0  0  0  0  0
    1.6096    0.1225    0.4313 C   0  0  0  0  0  0  0  0  0  0  0  0
    1.9826   -1.2006    0.1036 C   0  0  0  0  0  0  0  0  0  0  0  0
    3.2345   -1.4830   -0.4512 C   0  0  0  0  0  0  0  0  0  0  0  0
    4.0905   -0.4205   -0.6650 C   0  0  0  0  0  0  0  0  0  0  0  0
    3.7484    0.8760   -0.3524 C   0  0  0  0  0  0  0  0  0  0  0  0
    2.5096    1.1703    0.1991 C   0  0  0  0  0  0  0  0  0  0  0  0
    4.8694    1.7711   -0.6984 C   0  0  0  0  0  0  0  0  0  0  0  0
    5.8650    0.8672   -1.2277 O   0  0  0  0  0  0  0  0  0  0  0  0
    5.4359   -0.4307   -1.2218 C   0  0  0  0  0  0  0  0  0  0  0  0
    6.0533   -1.4040   -1.6036 O   0  0  0  0  0  0  0  0  0  0  0  0
   -1.5675    1.3326    3.0373 H   0  0  0  0  0  0  0  0  0  0  0  0
   -2.2873    2.2286    1.6784 H   0  0  0  0  0  0  0  0  0  0  0  0
   -2.4188   -0.8929    3.3972 H   0  0  0  0  0  0  0  0  0  0  0  0
   -3.7653   -2.7692    1.9757 H   0  0  0  0  0  0  0  0  0  0  0  0
   -4.6122   -2.7750   -0.8906 H   0  0  0  0  0  0  0  0  0  0  0  0
   -4.5521   -1.4088   -2.9600 H   0  0  0  0  0  0  0  0  0  0  0  0
   -3.4666    0.8090   -2.9675 H   0  0  0  0  0  0  0  0  0  0  0  0
   -2.4179    1.7137   -0.9130 H   0  0  0  0  0  0  0  0  0  0  0  0
   -0.2197   -0.5536    1.0866 H   0  0  0  0  0  0  0  0  0  0  0  0
    1.2956   -2.0274    0.2740 H   0  0  0  0  0  0  0  0  0  0  0  0
    3.5266   -2.4965   -0.7073 H   0  0  0  0  0  0  0  0  0  0  0  0
    2.2734    2.2014    0.4365 H   0  0  0  0  0  0  0  0  0  0  0  0
    5.2843    2.2762    0.1781 H   0  0  0  0  0  0  0  0  0  0  0  0
    4.6014    2.4924   -1.4752 H   0  0  0  0  0  0  0  0  0  0  0  0
  1  2  2  0
  2  3  1  0
  3  4  1  0
  4  5  1  0
  5  6  2  0
  6  7  1  0
  7  8  2  0
  8  9  1  0
  9 10  2  0
 10 11  1  0
 11 12  2  0
  2 13  1  0
 13 14  1  0
 14 15  2  0
 15 16  1  0
 16 17  2  0
 17 18  1  0
 18 19  2  0
 18 20  1  0
 20 21  1  0
 21 22  1  0
 22 23  2  0
 12  4  1  0
 19 14  1  0
 12  7  1  0
 22 17  1  0
  3 24  1  0
  3 25  1  0
  5 26  1  0
  6 27  1  0
  8 28  1  0
  9 29  1  0
 10 30  1  0
 11 31  1  0
 13 32  1  0
 15 33  1  0
 16 34  1  0
 19 35  1  0
 20 36  1  0
 20 37  1  0
M  END
$$$$
