
     RDKit          3D

 45 46  0  0  0  0  0  0  0  0999 V2000
   -5.4831    1.8890    1.4751 C   0  0  0  0  0  0  0  0  0  0  0  0
   -4.9526    0.9603    0.4453 N   0  0  0  0  0  0  0  0  0  0  0  0
   -3.9581    0.0429    0.9405 C   0  0  0  0  0  0  0  0  0  0  0  0
   -4.2648   -1.0051    1.8061 C   0  0  0  0  0  0  0  0  0  0  0  0
   -3.2465   -1.8337    2.2727 C   0  0  0  0  0  0  0  0  0  0  0  0
   -1.9200   -1.6047    1.8934 C   0  0  0  0  0  0  0  0  0  0  0  0
   -1.5967   -0.5385    1.0526 C   0  0  0  0  0  0  0  0  0  0  0  0
   -0.2836   -0.2339    0.6318 N   0  0  0  0  0  0  0  0  0  0  0  0
    0.8876   -0.8576    1.0252 C   0  0  0  0  0  0  0  0  0  0  0  0
    0.9997   -1.7448    1.8622 O   0  0  0  0  0  0  0  0  0  0  0  0
    2.1286   -0.3414    0.3764 C   0  0  0  0  0  0  0  0  0  0  0  0
    3.3209   -0.3582    1.1132 C   0  0  0  0  0  0  0  0  0  0  0  0
    4.5083    0.1075    0.5433 C   0  0  0  0  0  0  0  0  0  0  0  0
    4.5050    0.5948   -0.7620 C   0  0  0  0  0  0  0  0  0  0  0  0
    5.7286    1.0261   -1.3498 N   0  0  0  0  0  0  0  0  0  0  0  0
    6.6127   -0.1300   -2.2198 S   0  0  0  0  0  6  0  0  0  0  0  0
    7.7823   -0.6745   -0.9944 C   0  0  0  0  0  0  0  0  0  0  0  0
    7.3403    0.6250   -3.2182 O   0  0  0  0  0  0  0  0  0  0  0  0
    5.7574   -1.2339   -2.5915 O   0  0  0  0  0  0  0  0  0  0  0  0
    3.3290    0.5907   -1.5135 C   0  0  0  0  0  0  0  0  0  0  0  0
    2.1400    0.1199   -0.9473 C   0  0  0  0  0  0  0  0  0  0  0  0
   -2.6275    0.2851    0.5816 C   0  0  0  0  0  0  0  0  0  0  0  0
   -6.1789    0.2972   -0.5498 S   0  0  0  0  0  6  0  0  0  0  0  0
   -5.2360   -0.3884   -1.8983 C   0  0  0  0  0  0  0  0  0  0  0  0
   -6.9485    1.4057   -1.0791 O   0  0  0  0  0  0  0  0  0  0  0  0
   -6.8405   -0.7790    0.1573 O   0  0  0  0  0  0  0  0  0  0  0  0
   -5.9957    2.7300    0.9988 H   0  0  0  0  0  0  0  0  0  0  0  0
   -6.1737    1.3770    2.1526 H   0  0  0  0  0  0  0  0  0  0  0  0
   -4.6625    2.3098    2.0666 H   0  0  0  0  0  0  0  0  0  0  0  0
   -5.2876   -1.1913    2.1234 H   0  0  0  0  0  0  0  0  0  0  0  0
   -3.4814   -2.6617    2.9379 H   0  0  0  0  0  0  0  0  0  0  0  0
   -1.1612   -2.2796    2.2784 H   0  0  0  0  0  0  0  0  0  0  0  0
   -0.1939    0.5752    0.0319 H   0  0  0  0  0  0  0  0  0  0  0  0
    3.3265   -0.7385    2.1334 H   0  0  0  0  0  0  0  0  0  0  0  0
    5.4235    0.0931    1.1279 H   0  0  0  0  0  0  0  0  0  0  0  0
    5.6626    1.8732   -1.9185 H   0  0  0  0  0  0  0  0  0  0  0  0
    8.4736   -1.3690   -1.4770 H   0  0  0  0  0  0  0  0  0  0  0  0
    7.2491   -1.1852   -0.1913 H   0  0  0  0  0  0  0  0  0  0  0  0
    8.3307    0.1905   -0.6171 H   0  0  0  0  0  0  0  0  0  0  0  0
    3.3355    0.9188   -2.5499 H   0  0  0  0  0  0  0  0  0  0  0  0
    1.2481    0.0800   -1.5665 H   0  0  0  0  0  0  0  0  0  0  0  0
   -2.4086    1.1276   -0.0685 H   0  0  0  0  0  0  0  0  0  0  0  0
   -4.6145    0.3973   -2.3316 H   0  0  0  0  0  0  0  0  0  0  0  0
   -5.9438   -0.7519   -2.6470 H   0  0  0  0  0  0  0  0  0  0  0  0
   -4.6305   -1.2204   -1.5364 H   0  0  0  0  0  0  0  0  0  0  0  0
  1  2  1  0
  2  3  1  0
  3  4  2  0
  4  5  1  0
  5  6  2  0
  6  7  1  0
  7  8  1  0
  8  9  1  0
  9 10  2  0
  9 11  1  0
 11 12  2  0
 12 13  1  0
 13 14  2  0
 14 15  1  0
 15 16  1  0
 16 17  1  0
 16 18  2  0
 16 19  2  0
 14 20  1  0
 20 21  2  0
  7 22  2  0
  2 23  1  0
 23 24  1  0
 23 25  2  0
 23 26  2  0
 22  3  1  0
 21 11  1  0
  1 27  1  0
  1 28  1  0
  1 29  1  0
  4 30  1  0
  5 31  1  0
  6 32  1  0
  8 33  1  0
 12 34  1  0
 13 35  1  0
 15 36  1  0
 17 37  1  0
 17 38  1  0
 17 39  1  0
 20 40  1  0
 21 41  1  0
 22 42  1  0
 24 43  1  0
 24 44  1  0
 24 45  1  0
M  END
$$$$
