
     RDKit          3D

 31 32  0  0  0  0  0  0  0  0999 V2000
    0.6852    0.0000    0.0000 Cl  0  0  0  0  0  0  0  0  0  0  0  0
    0.3425   -2.1573    1.2957 N   0  0  0  0  0  0  0  0  0  0  0  0
    0.3779   -0.9585    0.5440 C   0  0  0  0  0  0  0  0  0  0  0  0
   -0.8000   -0.2641    0.2352 C   0  0  0  0  0  0  0  0  0  0  0  0
   -0.7460    0.8997   -0.4966 C   0  0  0  0  0  0  0  0  0  0  0  0
    0.4684    1.3628   -0.9138 N   0  0  0  0  0  0  0  0  0  0  0  0
    1.6276    0.7338   -0.6438 C   0  0  0  0  0  0  0  0  0  0  0  0
    2.8372    1.2494   -1.0932 C   0  0  0  0  0  0  0  0  0  0  0  0
    4.0074    0.6117   -0.8190 C   0  0  0  0  0  0  0  0  0  0  0  0
    3.9731   -0.5562   -0.0868 C   0  0  0  0  0  0  0  0  0  0  0  0
    2.7745   -1.0713    0.3612 C   0  0  0  0  0  0  0  0  0  0  0  0
    1.5745   -0.4330    0.0897 C   0  0  0  0  0  0  0  0  0  0  0  0
   -1.9858    1.6519   -0.8360 C   0  0  0  0  0  0  0  0  0  0  0  0
   -3.0565    1.2555    0.1478 C   0  0  0  0  0  0  0  0  0  0  0  0
   -3.2159   -0.2615   -0.0271 C   0  0  0  0  0  0  0  0  0  0  0  0
   -2.0619   -0.8605    0.7418 C   0  0  0  0  0  0  0  0  0  0  0  0
   -0.6852    0.0000    0.0000 H   0  0  0  0  0  0  0  0  0  0  0  0
    0.3429   -3.0943    0.8514 H   0  0  0  0  0  0  0  0  0  0  0  0
    0.3152   -2.1019    2.3227 H   0  0  0  0  0  0  0  0  0  0  0  0
    2.8190    2.1749   -1.6687 H   0  0  0  0  0  0  0  0  0  0  0  0
    4.9267    1.0514   -1.1904 H   0  0  0  0  0  0  0  0  0  0  0  0
    4.9247   -1.0554    0.1241 H   0  0  0  0  0  0  0  0  0  0  0  0
    2.7640   -2.0036    0.9440 H   0  0  0  0  0  0  0  0  0  0  0  0
   -1.7738    2.7557   -0.7658 H   0  0  0  0  0  0  0  0  0  0  0  0
   -2.3186    1.4546   -1.8797 H   0  0  0  0  0  0  0  0  0  0  0  0
   -4.0050    1.7777   -0.0197 H   0  0  0  0  0  0  0  0  0  0  0  0
   -2.6580    1.4736    1.1748 H   0  0  0  0  0  0  0  0  0  0  0  0
   -3.0667   -0.4946   -1.1198 H   0  0  0  0  0  0  0  0  0  0  0  0
   -4.1946   -0.6146    0.2943 H   0  0  0  0  0  0  0  0  0  0  0  0
   -2.1990   -0.5710    1.8163 H   0  0  0  0  0  0  0  0  0  0  0  0
   -1.9937   -1.9551    0.6170 H   0  0  0  0  0  0  0  0  0  0  0  0
  2  3  1  0
  3  4  2  0
  4  5  1  0
  5  6  2  0
  6  7  1  0
  7  8  2  0
  8  9  1  0
  9 10  2  0
 10 11  1  0
 11 12  2  0
  5 13  1  0
 13 14  1  0
 14 15  1  0
 15 16  1  0
 12  3  1  0
 16  4  1  0
 12  7  1  0
  1 17  1  0
  2 18  1  0
  2 19  1  0
  8 20  1  0
  9 21  1  0
 10 22  1  0
 11 23  1  0
 13 24  1  0
 13 25  1  0
 14 26  1  0
 14 27  1  0
 15 28  1  0
 15 29  1  0
 16 30  1  0
 16 31  1  0
M  END
$$$$
