
     RDKit          3D

 59 62  0  0  0  0  0  0  0  0999 V2000
   -7.8446    2.0893   -1.6586 C   0  0  0  0  0  0  0  0  0  0  0  0
   -7.2748    0.8870   -1.0657 N   0  0  0  0  0  0  0  0  0  0  0  0
   -6.3956    0.1727   -2.0117 C   0  0  0  0  0  0  0  0  0  0  0  0
   -5.2569   -0.6664   -1.3662 C   0  0  0  0  0  0  0  0  0  0  0  0
   -5.5996   -1.1731   -0.0417 N   0  0  0  0  0  0  0  0  0  0  0  0
   -4.6984   -2.1635    0.5367 C   0  0  0  0  0  0  0  0  0  0  0  0
   -3.1860   -1.9110    0.4575 C   0  0  0  0  0  0  0  0  0  0  0  0
   -2.7126   -0.6901    1.2391 C   0  0  0  0  0  0  0  0  0  0  0  0
   -1.2663   -0.5702    1.2143 N   0  0  0  0  0  0  0  0  0  0  0  0
   -0.4718   -1.2746    2.0966 C   0  0  0  0  0  0  0  0  0  0  0  0
   -0.9197   -1.9997    2.9782 O   0  0  0  0  0  0  0  0  0  0  0  0
    1.0007   -1.1501    1.9097 C   0  0  0  0  0  0  0  0  0  0  0  0
    1.8184   -2.1917    2.3544 C   0  0  0  0  0  0  0  0  0  0  0  0
    3.2070   -2.1142    2.1980 C   0  0  0  0  0  0  0  0  0  0  0  0
    3.8149   -0.9961    1.6033 C   0  0  0  0  0  0  0  0  0  0  0  0
    5.2119   -0.9869    1.4700 N   0  0  0  0  0  0  0  0  0  0  0  0
    6.0291   -0.0449    0.9285 C   0  0  0  0  0  0  0  0  0  0  0  0
    5.7541    1.0879    0.3755 N   0  0  0  0  0  0  0  0  0  0  0  0
    6.9927    1.8073    0.0067 C   0  0  0  0  0  0  0  0  0  0  0  0
    6.7683    2.6553   -1.2421 C   0  0  0  0  0  0  0  0  0  0  0  0
    7.5208    1.7707   -2.5927 S   0  0  0  0  0  6  0  0  0  0  0  0
    6.5211    1.4615   -3.5927 O   0  0  0  0  0  0  0  0  0  0  0  0
    8.7658    2.4340   -2.9283 O   0  0  0  0  0  0  0  0  0  0  0  0
    7.9198    0.2938   -1.6931 C   0  0  0  0  0  0  0  0  0  0  0  0
    8.0972    0.7894   -0.2679 C   0  0  0  0  0  0  0  0  0  0  0  0
    7.7336   -0.4969    0.9450 S   0  0  0  0  0  0  0  0  0  0  0  0
    2.9822    0.0449    1.1776 C   0  0  0  0  0  0  0  0  0  0  0  0
    1.5900   -0.0233    1.3315 C   0  0  0  0  0  0  0  0  0  0  0  0
   -6.0718   -0.1339    0.8797 C   0  0  0  0  0  0  0  0  0  0  0  0
   -6.5791    1.1634    0.1947 C   0  0  0  0  0  0  0  0  0  0  0  0
   -8.3933    1.8439   -2.5748 H   0  0  0  0  0  0  0  0  0  0  0  0
   -7.0779    2.8332   -1.9039 H   0  0  0  0  0  0  0  0  0  0  0  0
   -8.5649    2.5517   -0.9742 H   0  0  0  0  0  0  0  0  0  0  0  0
   -5.9235    0.8721   -2.7151 H   0  0  0  0  0  0  0  0  0  0  0  0
   -7.0308   -0.4968   -2.6051 H   0  0  0  0  0  0  0  0  0  0  0  0
   -5.0193   -1.4961   -2.0435 H   0  0  0  0  0  0  0  0  0  0  0  0
   -4.3623   -0.0334   -1.3024 H   0  0  0  0  0  0  0  0  0  0  0  0
   -4.8890   -3.1089    0.0119 H   0  0  0  0  0  0  0  0  0  0  0  0
   -4.9807   -2.3621    1.5792 H   0  0  0  0  0  0  0  0  0  0  0  0
   -2.8663   -1.8285   -0.5895 H   0  0  0  0  0  0  0  0  0  0  0  0
   -2.6790   -2.8053    0.8457 H   0  0  0  0  0  0  0  0  0  0  0  0
   -3.0450   -0.7490    2.2824 H   0  0  0  0  0  0  0  0  0  0  0  0
   -3.1039    0.2339    0.8014 H   0  0  0  0  0  0  0  0  0  0  0  0
   -0.8463   -0.1594    0.3916 H   0  0  0  0  0  0  0  0  0  0  0  0
    1.3776   -3.0695    2.8231 H   0  0  0  0  0  0  0  0  0  0  0  0
    3.8097   -2.9474    2.5532 H   0  0  0  0  0  0  0  0  0  0  0  0
    5.6873   -1.8011    1.8384 H   0  0  0  0  0  0  0  0  0  0  0  0
    7.2502    2.4670    0.8461 H   0  0  0  0  0  0  0  0  0  0  0  0
    7.2836    3.6173   -1.1613 H   0  0  0  0  0  0  0  0  0  0  0  0
    5.7109    2.8211   -1.4648 H   0  0  0  0  0  0  0  0  0  0  0  0
    8.8263   -0.1534   -2.1070 H   0  0  0  0  0  0  0  0  0  0  0  0
    7.0789   -0.3956   -1.8175 H   0  0  0  0  0  0  0  0  0  0  0  0
    9.0900    1.2260   -0.1174 H   0  0  0  0  0  0  0  0  0  0  0  0
    3.3942    0.9421    0.7239 H   0  0  0  0  0  0  0  0  0  0  0  0
    0.9926    0.8277    1.0172 H   0  0  0  0  0  0  0  0  0  0  0  0
   -6.8970   -0.5637    1.4623 H   0  0  0  0  0  0  0  0  0  0  0  0
   -5.2977    0.1543    1.5992 H   0  0  0  0  0  0  0  0  0  0  0  0
   -5.7254    1.8317    0.0138 H   0  0  0  0  0  0  0  0  0  0  0  0
   -7.2498    1.6774    0.8944 H   0  0  0  0  0  0  0  0  0  0  0  0
  1  2  1  0
  2  3  1  0
  3  4  1  0
  4  5  1  0
  5  6  1  0
  6  7  1  0
  7  8  1  0
  8  9  1  0
  9 10  1  0
 10 11  2  0
 10 12  1  0
 12 13  2  0
 13 14  1  0
 14 15  2  0
 15 16  1  0
 16 17  1  0
 17 18  2  0
 18 19  1  0
 19 20  1  0
 20 21  1  0
 21 22  2  0
 21 23  2  0
 21 24  1  0
 24 25  1  0
 25 26  1  0
 15 27  1  0
 27 28  2  0
  5 29  1  0
 29 30  1  0
 30  2  1  0
 28 12  1  0
 26 17  1  0
 25 19  1  0
  1 31  1  0
  1 32  1  0
  1 33  1  0
  3 34  1  0
  3 35  1  0
  4 36  1  0
  4 37  1  0
  6 38  1  0
  6 39  1  0
  7 40  1  0
  7 41  1  0
  8 42  1  0
  8 43  1  0
  9 44  1  0
 13 45  1  0
 14 46  1  0
 16 47  1  0
 19 48  1  0
 20 49  1  0
 20 50  1  0
 24 51  1  0
 24 52  1  0
 25 53  1  0
 27 54  1  0
 28 55  1  0
 29 56  1  0
 29 57  1  0
 30 58  1  0
 30 59  1  0
M  END
$$$$
