
     RDKit          3D

 65 69  0  0  0  0  0  0  0  0999 V2000
    5.1695    1.2930    0.2498 C   0  0  0  0  0  0  0  0  0  0  0  0
    4.7500   -0.0176    0.4233 N   0  0  0  0  0  0  0  0  0  0  0  0
    5.7805   -1.0311    0.4481 C   0  0  0  0  0  0  0  0  0  0  0  0
    3.4401   -0.4607    0.4632 C   0  0  0  0  0  0  0  0  0  0  0  0
    2.5895   -0.4624   -0.7528 C   0  0  2  0  0  0  0  0  0  0  0  0
    2.5236    0.7823   -1.5304 C   0  0  0  0  0  0  0  0  0  0  0  0
    1.7891    1.9276   -1.0373 C   0  0  0  0  0  0  0  0  0  0  0  0
    0.3425    1.9528   -0.9690 N   0  0  0  0  0  0  0  0  0  0  0  0
   -0.5971    1.2993   -1.6741 C   0  0  0  0  0  0  0  0  0  0  0  0
   -1.8051    1.6251   -1.1243 C   0  0  0  0  0  0  0  0  0  0  0  0
   -1.6101    2.5260   -0.0464 C   0  0  0  0  0  0  0  0  0  0  0  0
   -2.4497    3.1952    0.8400 C   0  0  0  0  0  0  0  0  0  0  0  0
   -1.9346    4.0383    1.7874 C   0  0  0  0  0  0  0  0  0  0  0  0
   -0.5741    4.2456    1.8871 C   0  0  0  0  0  0  0  0  0  0  0  0
    0.2316    3.5783    1.0061 C   0  0  0  0  0  0  0  0  0  0  0  0
   -0.2512    2.7103    0.0254 C   0  0  0  0  0  0  0  0  0  0  0  0
   -3.2018    1.1211   -1.4157 C   0  0  0  0  0  0  0  0  0  0  0  0
   -3.5347   -0.1945   -1.3053 C   0  0  0  0  0  0  0  0  0  0  0  0
   -4.9553   -0.2621   -1.6617 C   0  0  0  0  0  0  0  0  0  0  0  0
   -5.6693   -1.3235   -1.6890 O   0  0  0  0  0  0  0  0  0  0  0  0
   -5.4315    0.9993   -1.9687 N   0  0  0  0  0  0  0  0  0  0  0  0
   -4.3715    1.9102   -1.8285 C   0  0  0  0  0  0  0  0  0  0  0  0
   -4.4864    3.1386   -2.0332 O   0  0  0  0  0  0  0  0  0  0  0  0
   -2.5985   -1.2537   -0.8147 C   0  0  0  0  0  0  0  0  0  0  0  0
   -1.3902   -1.6689   -1.2739 C   0  0  0  0  0  0  0  0  0  0  0  0
   -0.9083   -2.5800   -0.4136 N   0  0  0  0  0  0  0  0  0  0  0  0
   -1.7920   -2.7903    0.6198 C   0  0  0  0  0  0  0  0  0  0  0  0
   -1.7925   -3.6225    1.7458 C   0  0  0  0  0  0  0  0  0  0  0  0
   -2.8525   -3.6305    2.6259 C   0  0  0  0  0  0  0  0  0  0  0  0
   -3.9411   -2.8023    2.3983 C   0  0  0  0  0  0  0  0  0  0  0  0
   -3.9277   -1.9890    1.2883 C   0  0  0  0  0  0  0  0  0  0  0  0
   -2.8575   -1.9719    0.3887 C   0  0  0  0  0  0  0  0  0  0  0  0
    0.4100   -3.2508   -0.4558 C   0  0  0  0  0  0  0  0  0  0  0  0
    1.5386   -2.3578    0.0110 C   0  0  0  0  0  0  0  0  0  0  0  0
    1.3171   -1.0488   -0.4820 O   0  0  0  0  0  0  0  0  0  0  0  0
    0.6926    0.0000    0.0000 Cl  0  0  0  0  0  0  0  0  0  0  0  0
    4.4365    2.0183    0.6387 H   0  0  0  0  0  0  0  0  0  0  0  0
    6.0641    1.4641    0.9638 H   0  0  0  0  0  0  0  0  0  0  0  0
    5.5982    1.5740   -0.7432 H   0  0  0  0  0  0  0  0  0  0  0  0
    6.6869   -0.5508    0.8986 H   0  0  0  0  0  0  0  0  0  0  0  0
    6.0637   -1.3653   -0.5619 H   0  0  0  0  0  0  0  0  0  0  0  0
    5.4797   -1.8612    1.1124 H   0  0  0  0  0  0  0  0  0  0  0  0
    2.9256    0.0989    1.3204 H   0  0  0  0  0  0  0  0  0  0  0  0
    3.4523   -1.5182    0.8941 H   0  0  0  0  0  0  0  0  0  0  0  0
    3.0536   -1.2452   -1.4442 H   0  0  0  0  0  0  0  0  0  0  0  0
    2.1237    0.5473   -2.5671 H   0  0  0  0  0  0  0  0  0  0  0  0
    3.5875    1.0776   -1.7724 H   0  0  0  0  0  0  0  0  0  0  0  0
    2.2703    2.1791   -0.0349 H   0  0  0  0  0  0  0  0  0  0  0  0
    2.0983    2.8307   -1.6508 H   0  0  0  0  0  0  0  0  0  0  0  0
   -0.3750    0.6648   -2.6012 H   0  0  0  0  0  0  0  0  0  0  0  0
   -3.5051    3.0542    0.7877 H   0  0  0  0  0  0  0  0  0  0  0  0
   -2.5969    4.5632    2.4834 H   0  0  0  0  0  0  0  0  0  0  0  0
   -0.1412    4.8956    2.6130 H   0  0  0  0  0  0  0  0  0  0  0  0
    1.2873    3.7387    1.0821 H   0  0  0  0  0  0  0  0  0  0  0  0
   -6.4322    1.2331   -2.2624 H   0  0  0  0  0  0  0  0  0  0  0  0
   -0.8498   -1.3824   -2.2555 H   0  0  0  0  0  0  0  0  0  0  0  0
   -0.9439   -4.2632    1.9164 H   0  0  0  0  0  0  0  0  0  0  0  0
   -2.8144   -4.2857    3.4812 H   0  0  0  0  0  0  0  0  0  0  0  0
   -4.7841   -2.7921    3.0750 H   0  0  0  0  0  0  0  0  0  0  0  0
   -4.7772   -1.3566    1.1277 H   0  0  0  0  0  0  0  0  0  0  0  0
    0.6176   -3.8766   -1.3177 H   0  0  0  0  0  0  0  0  0  0  0  0
    0.4368   -4.0631    0.3720 H   0  0  0  0  0  0  0  0  0  0  0  0
    2.5043   -2.7284   -0.3990 H   0  0  0  0  0  0  0  0  0  0  0  0
    1.5840   -2.2754    1.1121 H   0  0  0  0  0  0  0  0  0  0  0  0
   -0.6926    0.0000    0.0000 H   0  0  0  0  0  0  0  0  0  0  0  0
  1  2  1  0
  2  3  1  0
  2  4  1  0
  4  5  1  0
  5  6  1  0
  6  7  1  0
  7  8  1  0
  8  9  1  0
  9 10  2  0
 10 11  1  0
 11 12  2  0
 12 13  1  0
 13 14  2  0
 14 15  1  0
 15 16  2  0
 10 17  1  0
 17 18  2  0
 18 19  1  0
 19 20  2  0
 19 21  1  0
 21 22  1  0
 22 23  2  0
 18 24  1  0
 24 25  2  0
 25 26  1  0
 26 27  1  0
 27 28  2  0
 28 29  1  0
 29 30  2  0
 30 31  1  0
 31 32  2  0
 26 33  1  0
 33 34  1  0
 34 35  1  0
 35  5  1  0
 16  8  1  0
 22 17  1  0
 32 24  1  0
 16 11  1  0
 32 27  1  0
  1 37  1  0
  1 38  1  0
  1 39  1  0
  3 40  1  0
  3 41  1  0
  3 42  1  0
  4 43  1  0
  4 44  1  0
  5 45  1  6
  6 46  1  0
  6 47  1  0
  7 48  1  0
  7 49  1  0
  9 50  1  0
 12 51  1  0
 13 52  1  0
 14 53  1  0
 15 54  1  0
 21 55  1  0
 25 56  1  0
 28 57  1  0
 29 58  1  0
 30 59  1  0
 31 60  1  0
 33 61  1  0
 33 62  1  0
 34 63  1  0
 34 64  1  0
 36 65  1  0
M  END
$$$$
