
     RDKit          3D

 44 47  0  0  0  0  0  0  0  0999 V2000
    5.2369    1.8105    1.2527 O   0  0  0  0  0  0  0  0  0  0  0  0
    4.2377    1.2375    0.8364 C   0  0  0  0  0  0  0  0  0  0  0  0
    4.1888    0.0535    0.1295 N   0  0  0  0  0  0  0  0  0  0  0  0
    5.2543   -0.7676   -0.2762 C   0  0  0  0  0  0  0  0  0  0  0  0
    6.5959   -0.4934   -0.0058 C   0  0  0  0  0  0  0  0  0  0  0  0
    7.5985   -1.3639   -0.4458 C   0  0  0  0  0  0  0  0  0  0  0  0
    7.2675   -2.5139   -1.1587 C   0  0  0  0  0  0  0  0  0  0  0  0
    5.9322   -2.7959   -1.4332 C   0  0  0  0  0  0  0  0  0  0  0  0
    4.9307   -1.9264   -0.9936 C   0  0  0  0  0  0  0  0  0  0  0  0
    2.8895    1.7811    1.0560 C   0  0  0  0  0  0  0  0  0  0  0  0
    2.6262    2.9591    1.7250 C   0  0  0  0  0  0  0  0  0  0  0  0
    0.9436    3.2477    1.7702 S   0  0  0  0  0  0  0  0  0  0  0  0
    0.6553    1.7886    0.8948 C   0  0  0  0  0  0  0  0  0  0  0  0
   -0.7026    1.3441    0.5408 C   0  0  0  0  0  0  0  0  0  0  0  0
   -0.8930    0.1198   -0.1017 C   0  0  0  0  0  0  0  0  0  0  0  0
   -2.1795   -0.3107   -0.4418 C   0  0  0  0  0  0  0  0  0  0  0  0
   -3.2878    0.4751   -0.1340 C   0  0  0  0  0  0  0  0  0  0  0  0
   -4.5708    0.0733   -0.4827 N   0  0  0  0  0  0  0  0  0  0  0  0
   -4.9587   -1.3343   -0.2846 C   0  0  0  0  0  0  0  0  0  0  0  0
   -6.2645   -1.4361    0.5227 C   0  0  0  0  0  0  0  0  0  0  0  0
   -7.3666   -0.7399   -0.0746 O   0  0  0  0  0  0  0  0  0  0  0  0
   -6.9787    0.4764   -0.7349 C   0  0  0  0  0  0  0  0  0  0  0  0
   -5.6422    1.0553   -0.2449 C   0  0  0  0  0  0  0  0  0  0  0  0
   -3.1173    1.6705    0.4683 N   0  0  0  0  0  0  0  0  0  0  0  0
   -1.8587    2.0715    0.7918 C   0  0  0  0  0  0  0  0  0  0  0  0
    1.7508    1.1161    0.5854 N   0  0  0  0  0  0  0  0  0  0  0  0
    3.2477   -0.2387   -0.1189 H   0  0  0  0  0  0  0  0  0  0  0  0
    6.8990    0.3907    0.5461 H   0  0  0  0  0  0  0  0  0  0  0  0
    8.6398   -1.1389   -0.2288 H   0  0  0  0  0  0  0  0  0  0  0  0
    8.0496   -3.1875   -1.4989 H   0  0  0  0  0  0  0  0  0  0  0  0
    5.6692   -3.6918   -1.9893 H   0  0  0  0  0  0  0  0  0  0  0  0
    3.8957   -2.1682   -1.2208 H   0  0  0  0  0  0  0  0  0  0  0  0
    3.3351    3.6410    2.1752 H   0  0  0  0  0  0  0  0  0  0  0  0
   -0.0429   -0.5101   -0.3534 H   0  0  0  0  0  0  0  0  0  0  0  0
   -2.2975   -1.2504   -0.9709 H   0  0  0  0  0  0  0  0  0  0  0  0
   -5.1072   -1.7823   -1.2739 H   0  0  0  0  0  0  0  0  0  0  0  0
   -4.1902   -1.9144    0.2389 H   0  0  0  0  0  0  0  0  0  0  0  0
   -6.1222   -1.0376    1.5344 H   0  0  0  0  0  0  0  0  0  0  0  0
   -6.5582   -2.4855    0.6271 H   0  0  0  0  0  0  0  0  0  0  0  0
   -6.9276    0.2617   -1.8088 H   0  0  0  0  0  0  0  0  0  0  0  0
   -7.7837    1.2026   -0.5840 H   0  0  0  0  0  0  0  0  0  0  0  0
   -5.7176    1.2833    0.8261 H   0  0  0  0  0  0  0  0  0  0  0  0
   -5.4387    1.9841   -0.7910 H   0  0  0  0  0  0  0  0  0  0  0  0
   -1.8379    3.0438    1.2757 H   0  0  0  0  0  0  0  0  0  0  0  0
  1  2  2  0
  2  3  1  0
  3  4  1  0
  4  5  2  0
  5  6  1  0
  6  7  2  0
  7  8  1  0
  8  9  2  0
  2 10  1  0
 10 11  2  0
 11 12  1  0
 12 13  1  0
 13 14  1  0
 14 15  2  0
 15 16  1  0
 16 17  2  0
 17 18  1  0
 18 19  1  0
 19 20  1  0
 20 21  1  0
 21 22  1  0
 22 23  1  0
 17 24  1  0
 24 25  2  0
 13 26  2  0
  9  4  1  0
 26 10  1  0
 25 14  1  0
 23 18  1  0
  3 27  1  0
  5 28  1  0
  6 29  1  0
  7 30  1  0
  8 31  1  0
  9 32  1  0
 11 33  1  0
 15 34  1  0
 16 35  1  0
 19 36  1  0
 19 37  1  0
 20 38  1  0
 20 39  1  0
 22 40  1  0
 22 41  1  0
 23 42  1  0
 23 43  1  0
 25 44  1  0
M  END
$$$$
