
     RDKit          3D

 60 63  0  0  0  0  0  0  0  0999 V2000
    6.3057    1.6073    1.7506 C   0  0  0  0  0  0  0  0  0  0  0  0
    6.8967    0.7386    0.6408 C   0  0  0  0  0  0  0  0  0  0  0  0
    7.5794   -0.5121    1.1940 C   0  0  0  0  0  0  0  0  0  0  0  0
    5.9344    0.4355   -0.4020 N   0  0  0  0  0  0  0  0  0  0  0  0
    6.0554    0.8500   -1.7199 C   0  0  0  0  0  0  0  0  0  0  0  0
    6.9655    1.5224   -2.1860 O   0  0  0  0  0  0  0  0  0  0  0  0
    4.9763    0.4024   -2.4928 O   0  0  0  0  0  0  0  0  0  0  0  0
    4.2157   -0.2958   -1.5713 C   0  0  0  0  0  0  0  0  0  0  0  0
    3.0303   -0.9382   -1.8598 C   0  0  0  0  0  0  0  0  0  0  0  0
    2.3865   -1.5827   -0.7983 C   0  0  0  0  0  0  0  0  0  0  0  0
    0.8667   -2.4639   -1.1074 S   0  0  0  0  0  6  0  0  0  0  0  0
    0.7371   -3.4668   -0.0713 O   0  0  0  0  0  0  0  0  0  0  0  0
    0.8626   -2.8302   -2.5071 O   0  0  0  0  0  0  0  0  0  0  0  0
   -0.3265   -1.2757   -0.8540 N   0  0  0  0  0  0  0  0  0  0  0  0
   -0.5285   -0.8194    0.5394 C   0  0  0  0  0  0  0  0  0  0  0  0
   -1.9014   -0.1564    0.6611 C   0  0  0  0  0  0  0  0  0  0  0  0
   -2.0442    1.0060   -0.3302 C   0  0  0  0  0  0  0  0  0  0  0  0
   -3.3870    1.7482   -0.2242 C   0  0  0  0  0  0  0  0  0  0  0  0
   -4.5922    0.9739   -0.7382 C   0  0  0  0  0  0  0  0  0  0  0  0
   -4.9488    1.1351   -1.9084 O   0  0  0  0  0  0  0  0  0  0  0  0
   -5.2230    0.0704    0.1008 N   0  0  0  0  0  0  0  0  0  0  0  0
   -6.3821   -0.6604   -0.4227 C   0  0  0  0  0  0  0  0  0  0  0  0
   -7.6756   -0.0011    0.0713 C   0  0  0  0  0  0  0  0  0  0  0  0
   -7.6980    0.0631    1.5111 O   0  0  0  0  0  0  0  0  0  0  0  0
   -6.5703    0.7990    2.0161 C   0  0  0  0  0  0  0  0  0  0  0  0
   -5.2489    0.1604    1.5639 C   0  0  0  0  0  0  0  0  0  0  0  0
   -1.7547    0.5087   -1.7567 C   0  0  0  0  0  0  0  0  0  0  0  0
   -0.3900   -0.1726   -1.8426 C   0  0  0  0  0  0  0  0  0  0  0  0
    2.9507   -1.6028    0.4955 C   0  0  0  0  0  0  0  0  0  0  0  0
    4.1583   -0.9421    0.7520 C   0  0  0  0  0  0  0  0  0  0  0  0
    4.7671   -0.2933   -0.3028 C   0  0  0  0  0  0  0  0  0  0  0  0
    7.0883    1.9274    2.4468 H   0  0  0  0  0  0  0  0  0  0  0  0
    5.8385    2.5059    1.3322 H   0  0  0  0  0  0  0  0  0  0  0  0
    5.5448    1.0772    2.3302 H   0  0  0  0  0  0  0  0  0  0  0  0
    7.6895    1.3375    0.1739 H   0  0  0  0  0  0  0  0  0  0  0  0
    6.8873   -1.1491    1.7523 H   0  0  0  0  0  0  0  0  0  0  0  0
    8.0049   -1.1132    0.3827 H   0  0  0  0  0  0  0  0  0  0  0  0
    8.3940   -0.2367    1.8727 H   0  0  0  0  0  0  0  0  0  0  0  0
    2.6282   -0.9429   -2.8678 H   0  0  0  0  0  0  0  0  0  0  0  0
   -0.4957   -1.6660    1.2323 H   0  0  0  0  0  0  0  0  0  0  0  0
    0.2595   -0.1130    0.8227 H   0  0  0  0  0  0  0  0  0  0  0  0
   -2.0360    0.2049    1.6868 H   0  0  0  0  0  0  0  0  0  0  0  0
   -2.6733   -0.9119    0.4739 H   0  0  0  0  0  0  0  0  0  0  0  0
   -1.2684    1.7430   -0.0767 H   0  0  0  0  0  0  0  0  0  0  0  0
   -3.5545    2.1151    0.7913 H   0  0  0  0  0  0  0  0  0  0  0  0
   -3.3270    2.6600   -0.8350 H   0  0  0  0  0  0  0  0  0  0  0  0
   -6.3127   -1.6841   -0.0354 H   0  0  0  0  0  0  0  0  0  0  0  0
   -6.3665   -0.7107   -1.5156 H   0  0  0  0  0  0  0  0  0  0  0  0
   -8.5425   -0.5876   -0.2476 H   0  0  0  0  0  0  0  0  0  0  0  0
   -7.7853    1.0136   -0.3287 H   0  0  0  0  0  0  0  0  0  0  0  0
   -6.6332    0.7943    3.1085 H   0  0  0  0  0  0  0  0  0  0  0  0
   -6.6452    1.8385    1.6762 H   0  0  0  0  0  0  0  0  0  0  0  0
   -4.4044    0.7206    1.9631 H   0  0  0  0  0  0  0  0  0  0  0  0
   -5.1825   -0.8659    1.9444 H   0  0  0  0  0  0  0  0  0  0  0  0
   -1.7863    1.3483   -2.4604 H   0  0  0  0  0  0  0  0  0  0  0  0
   -2.5241   -0.2079   -2.0699 H   0  0  0  0  0  0  0  0  0  0  0  0
    0.4048    0.5550   -1.6444 H   0  0  0  0  0  0  0  0  0  0  0  0
   -0.2588   -0.5566   -2.8592 H   0  0  0  0  0  0  0  0  0  0  0  0
    2.4545   -2.1414    1.3017 H   0  0  0  0  0  0  0  0  0  0  0  0
    4.5853   -0.9619    1.7471 H   0  0  0  0  0  0  0  0  0  0  0  0
  1  2  1  0
  2  3  1  0
  2  4  1  0
  4  5  1  0
  5  6  2  0
  5  7  1  0
  7  8  1  0
  8  9  2  0
  9 10  1  0
 10 11  1  0
 11 12  2  0
 11 13  2  0
 11 14  1  0
 14 15  1  0
 15 16  1  0
 16 17  1  0
 17 18  1  0
 18 19  1  0
 19 20  2  0
 19 21  1  0
 21 22  1  0
 22 23  1  0
 23 24  1  0
 24 25  1  0
 25 26  1  0
 17 27  1  0
 27 28  1  0
 10 29  2  0
 29 30  1  0
 30 31  2  0
 31  4  1  0
 31  8  1  0
 28 14  1  0
 26 21  1  0
  1 32  1  0
  1 33  1  0
  1 34  1  0
  2 35  1  0
  3 36  1  0
  3 37  1  0
  3 38  1  0
  9 39  1  0
 15 40  1  0
 15 41  1  0
 16 42  1  0
 16 43  1  0
 17 44  1  0
 18 45  1  0
 18 46  1  0
 22 47  1  0
 22 48  1  0
 23 49  1  0
 23 50  1  0
 25 51  1  0
 25 52  1  0
 26 53  1  0
 26 54  1  0
 27 55  1  0
 27 56  1  0
 28 57  1  0
 28 58  1  0
 29 59  1  0
 30 60  1  0
M  END
$$$$
