
     RDKit          3D

 51 54  0  0  0  0  0  0  0  0999 V2000
    1.7432   -2.0607    3.4347 C   0  0  0  0  0  0  0  0  0  0  0  0
    0.8290   -1.5312    2.4846 O   0  0  0  0  0  0  0  0  0  0  0  0
    1.3540   -0.8785    1.3995 C   0  0  0  0  0  0  0  0  0  0  0  0
    2.7108   -0.5672    1.2387 C   0  0  0  0  0  0  0  0  0  0  0  0
    3.1424    0.0837    0.0803 C   0  0  0  0  0  0  0  0  0  0  0  0
    2.2053    0.4125   -0.9144 C   0  0  0  0  0  0  0  0  0  0  0  0
    0.8623    0.1196   -0.7814 C   0  0  0  0  0  0  0  0  0  0  0  0
    0.4392   -0.5070    0.3911 C   0  0  0  0  0  0  0  0  0  0  0  0
   -0.8993   -0.8054    0.4816 O   0  0  0  0  0  0  0  0  0  0  0  0
   -1.5597    0.0966    1.3783 C   0  0  0  0  0  0  0  0  0  0  0  0
   -3.0682   -0.0130    1.1646 C   0  0  0  0  0  0  0  0  0  0  0  0
   -3.4701    0.4171   -0.2515 C   0  0  0  0  0  0  0  0  0  0  0  0
   -4.9273    0.4621   -0.4200 N   0  0  0  0  0  0  0  0  0  0  0  0
   -5.3036    1.0065   -1.7272 C   0  0  0  0  0  0  0  0  0  0  0  0
   -6.7756    0.6447   -1.8322 C   0  0  0  0  0  0  0  0  0  0  0  0
   -6.9297   -0.6200   -0.9957 C   0  0  0  0  0  0  0  0  0  0  0  0
   -5.5609   -0.8584   -0.3719 C   0  0  0  0  0  0  0  0  0  0  0  0
    2.7915    1.0590   -2.0209 N   0  0  0  0  0  0  0  0  0  0  0  0
    4.0666    1.1569   -1.7810 C   0  0  0  0  0  0  0  0  0  0  0  0
    4.9745    1.7300   -2.6144 N   0  0  0  0  0  0  0  0  0  0  0  0
    4.5588    0.5507   -0.3802 C   0  0  0  0  0  0  0  0  0  0  0  0
    5.7300   -0.4640   -0.3869 C   0  0  0  0  0  0  0  0  0  0  0  0
    6.6566    0.6670    0.0939 C   0  0  0  0  0  0  0  0  0  0  0  0
    5.4101    1.4412    0.5593 C   0  0  0  0  0  0  0  0  0  0  0  0
    1.1655   -2.6098    4.1844 H   0  0  0  0  0  0  0  0  0  0  0  0
    2.4382   -2.7666    2.9679 H   0  0  0  0  0  0  0  0  0  0  0  0
    2.2801   -1.2586    3.9514 H   0  0  0  0  0  0  0  0  0  0  0  0
    3.4501   -0.8187    1.9902 H   0  0  0  0  0  0  0  0  0  0  0  0
    0.1615    0.3758   -1.5667 H   0  0  0  0  0  0  0  0  0  0  0  0
   -1.3320   -0.1764    2.4148 H   0  0  0  0  0  0  0  0  0  0  0  0
   -1.2365    1.1322    1.2073 H   0  0  0  0  0  0  0  0  0  0  0  0
   -3.3739   -1.0523    1.3348 H   0  0  0  0  0  0  0  0  0  0  0  0
   -3.5793    0.6131    1.9057 H   0  0  0  0  0  0  0  0  0  0  0  0
   -3.0109   -0.2462   -0.9954 H   0  0  0  0  0  0  0  0  0  0  0  0
   -3.0679    1.4229   -0.4286 H   0  0  0  0  0  0  0  0  0  0  0  0
   -4.7435    0.5301   -2.5421 H   0  0  0  0  0  0  0  0  0  0  0  0
   -5.1508    2.0888   -1.7837 H   0  0  0  0  0  0  0  0  0  0  0  0
   -7.0824    0.4875   -2.8711 H   0  0  0  0  0  0  0  0  0  0  0  0
   -7.4004    1.4433   -1.4147 H   0  0  0  0  0  0  0  0  0  0  0  0
   -7.6920   -0.4652   -0.2235 H   0  0  0  0  0  0  0  0  0  0  0  0
   -7.2397   -1.4726   -1.6087 H   0  0  0  0  0  0  0  0  0  0  0  0
   -5.6565   -1.2380    0.6500 H   0  0  0  0  0  0  0  0  0  0  0  0
   -5.0075   -1.5951   -0.9684 H   0  0  0  0  0  0  0  0  0  0  0  0
    4.5361    2.2772   -3.3488 H   0  0  0  0  0  0  0  0  0  0  0  0
    5.7679    2.1920   -2.1897 H   0  0  0  0  0  0  0  0  0  0  0  0
    5.6254   -1.2801    0.3375 H   0  0  0  0  0  0  0  0  0  0  0  0
    5.9899   -0.8929   -1.3589 H   0  0  0  0  0  0  0  0  0  0  0  0
    7.2086    1.1592   -0.7139 H   0  0  0  0  0  0  0  0  0  0  0  0
    7.3619    0.3931    0.8829 H   0  0  0  0  0  0  0  0  0  0  0  0
    5.1902    1.3127    1.6254 H   0  0  0  0  0  0  0  0  0  0  0  0
    5.4181    2.5111    0.3328 H   0  0  0  0  0  0  0  0  0  0  0  0
  1  2  1  0
  2  3  1  0
  3  4  2  0
  4  5  1  0
  5  6  2  0
  6  7  1  0
  7  8  2  0
  8  9  1  0
  9 10  1  0
 10 11  1  0
 11 12  1  0
 12 13  1  0
 13 14  1  0
 14 15  1  0
 15 16  1  0
 16 17  1  0
  6 18  1  0
 18 19  2  0
 19 20  1  0
 19 21  1  0
 21 22  1  0
 22 23  1  0
 23 24  1  0
  8  3  1  0
 17 13  1  0
 24 21  1  0
 21  5  1  0
  1 25  1  0
  1 26  1  0
  1 27  1  0
  4 28  1  0
  7 29  1  0
 10 30  1  0
 10 31  1  0
 11 32  1  0
 11 33  1  0
 12 34  1  0
 12 35  1  0
 14 36  1  0
 14 37  1  0
 15 38  1  0
 15 39  1  0
 16 40  1  0
 16 41  1  0
 17 42  1  0
 17 43  1  0
 20 44  1  0
 20 45  1  0
 22 46  1  0
 22 47  1  0
 23 48  1  0
 23 49  1  0
 24 50  1  0
 24 51  1  0
M  END
$$$$
