
     RDKit          3D

 32 34  0  0  0  0  0  0  0  0999 V2000
    5.9802   -1.3326    0.3674 C   0  0  0  0  0  0  0  0  0  0  0  0
    5.4567    0.0292    0.7985 C   0  0  0  0  0  0  0  0  0  0  0  0
    4.1678    0.3699    0.1128 C   0  0  0  0  0  0  0  0  0  0  0  0
    2.8816    0.0566    0.5071 C   0  0  0  0  0  0  0  0  0  0  0  0
    1.8789    0.5474   -0.3998 C   0  0  0  0  0  0  0  0  0  0  0  0
    0.4792    0.4884   -0.4401 C   0  0  0  0  0  0  0  0  0  0  0  0
   -0.3962   -0.3477    0.8504 S   0  0  0  0  0  0  0  0  0  0  0  0
   -2.1096   -0.1079    0.2856 C   0  0  0  0  0  0  0  0  0  0  0  0
   -3.1356   -0.7396    1.2241 C   0  0  0  0  0  0  0  0  0  0  0  0
   -2.8084   -1.3411    2.2471 O   0  0  0  0  0  0  0  0  0  0  0  0
   -4.5345   -0.5769    0.8176 C   0  0  0  0  0  0  0  0  0  0  0  0
   -5.0733    0.0627   -0.2889 C   0  0  0  0  0  0  0  0  0  0  0  0
   -6.5004   -0.0044   -0.3198 C   0  0  0  0  0  0  0  0  0  0  0  0
   -6.9855   -0.6902    0.7616 C   0  0  0  0  0  0  0  0  0  0  0  0
   -8.6350   -1.0055    1.1173 Cl  0  0  0  0  0  0  0  0  0  0  0  0
   -5.7780   -1.2489    1.8012 S   0  0  0  0  0  0  0  0  0  0  0  0
   -0.2006    1.0639   -1.4548 N   0  0  0  0  0  0  0  0  0  0  0  0
    0.5107    1.6852   -2.4081 C   0  0  0  0  0  0  0  0  0  0  0  0
    1.8371    1.8105   -2.4841 N   0  0  0  0  0  0  0  0  0  0  0  0
    2.4707    1.2232   -1.4548 C   0  0  0  0  0  0  0  0  0  0  0  0
    4.1701    1.2603   -1.3487 S   0  0  0  0  0  0  0  0  0  0  0  0
    6.1820   -1.3591   -0.7088 H   0  0  0  0  0  0  0  0  0  0  0  0
    5.2584   -2.1250    0.5932 H   0  0  0  0  0  0  0  0  0  0  0  0
    6.9124   -1.5634    0.8927 H   0  0  0  0  0  0  0  0  0  0  0  0
    5.2984    0.0267    1.8839 H   0  0  0  0  0  0  0  0  0  0  0  0
    6.2161    0.7943    0.5976 H   0  0  0  0  0  0  0  0  0  0  0  0
    2.6623   -0.5043    1.4090 H   0  0  0  0  0  0  0  0  0  0  0  0
   -2.3131    0.9665    0.2288 H   0  0  0  0  0  0  0  0  0  0  0  0
   -2.2208   -0.5670   -0.7023 H   0  0  0  0  0  0  0  0  0  0  0  0
   -4.4872    0.5615   -1.0521 H   0  0  0  0  0  0  0  0  0  0  0  0
   -7.1255    0.4270   -1.0920 H   0  0  0  0  0  0  0  0  0  0  0  0
   -0.0590    2.1400   -3.2130 H   0  0  0  0  0  0  0  0  0  0  0  0
  1  2  1  0
  2  3  1  0
  3  4  2  0
  4  5  1  0
  5  6  2  0
  6  7  1  0
  7  8  1  0
  8  9  1  0
  9 10  2  0
  9 11  1  0
 11 12  2  0
 12 13  1  0
 13 14  2  0
 14 15  1  0
 14 16  1  0
  6 17  1  0
 17 18  2  0
 18 19  1  0
 19 20  2  0
 20 21  1  0
 21  3  1  0
 20  5  1  0
 16 11  1  0
  1 22  1  0
  1 23  1  0
  1 24  1  0
  2 25  1  0
  2 26  1  0
  4 27  1  0
  8 28  1  0
  8 29  1  0
 12 30  1  0
 13 31  1  0
 18 32  1  0
M  END
$$$$
