
     RDKit          3D

 33 34  0  0  0  0  0  0  0  0999 V2000
   -3.2035   -3.0625   -1.7241 C   0  0  0  0  0  0  0  0  0  0  0  0
   -2.2253   -2.0791   -1.1538 C   0  0  0  0  0  0  0  0  0  0  0  0
   -1.0032   -2.5133   -0.6381 C   0  0  0  0  0  0  0  0  0  0  0  0
   -0.0802   -1.5929   -0.1355 C   0  0  0  0  0  0  0  0  0  0  0  0
   -0.3421   -0.2165   -0.1633 C   0  0  0  0  0  0  0  0  0  0  0  0
    0.5469    0.7227    0.4212 N   0  0  0  0  0  0  0  0  0  0  0  0
    1.9554    0.6135    0.5772 C   0  0  0  0  0  0  0  0  0  0  0  0
    2.7841    0.0769   -0.4222 C   0  0  0  0  0  0  0  0  0  0  0  0
    2.2629   -0.3816   -1.5708 F   0  0  0  0  0  0  0  0  0  0  0  0
    4.1714    0.0182   -0.2777 C   0  0  0  0  0  0  0  0  0  0  0  0
    4.7738    0.5189    0.8725 C   0  0  0  0  0  0  0  0  0  0  0  0
    3.9833    1.0875    1.8691 C   0  0  0  0  0  0  0  0  0  0  0  0
    2.5921    1.1430    1.7164 C   0  0  0  0  0  0  0  0  0  0  0  0
    1.6697    1.8728    2.9867 Cl  0  0  0  0  0  0  0  0  0  0  0  0
   -1.5773    0.2305   -0.6777 C   0  0  0  0  0  0  0  0  0  0  0  0
   -1.9195    1.7055   -0.7394 C   0  0  0  0  0  0  0  0  0  0  0  0
   -2.1143    2.3535    0.6097 C   0  0  0  0  0  0  0  0  0  0  0  0
   -1.7448    1.9500    1.7013 O   0  0  0  0  0  0  0  0  0  0  0  0
   -2.7445    3.5447    0.5132 O   0  0  0  0  0  0  0  0  0  0  0  0
   -2.5003   -0.7071   -1.1791 C   0  0  0  0  0  0  0  0  0  0  0  0
   -4.2324   -2.7134   -1.5874 H   0  0  0  0  0  0  0  0  0  0  0  0
   -3.0150   -3.2003   -2.7933 H   0  0  0  0  0  0  0  0  0  0  0  0
   -3.1211   -4.0324   -1.2225 H   0  0  0  0  0  0  0  0  0  0  0  0
   -0.7599   -3.5729   -0.6147 H   0  0  0  0  0  0  0  0  0  0  0  0
    0.8469   -1.9690    0.2874 H   0  0  0  0  0  0  0  0  0  0  0  0
    0.1175    1.0632    1.2921 H   0  0  0  0  0  0  0  0  0  0  0  0
    4.7702   -0.4108   -1.0758 H   0  0  0  0  0  0  0  0  0  0  0  0
    5.8541    0.4774    0.9869 H   0  0  0  0  0  0  0  0  0  0  0  0
    4.4535    1.4911    2.7627 H   0  0  0  0  0  0  0  0  0  0  0  0
   -1.1255    2.2402   -1.2736 H   0  0  0  0  0  0  0  0  0  0  0  0
   -2.8450    1.8415   -1.3122 H   0  0  0  0  0  0  0  0  0  0  0  0
   -2.7824    3.8656    1.4388 H   0  0  0  0  0  0  0  0  0  0  0  0
   -3.4458   -0.3648   -1.5962 H   0  0  0  0  0  0  0  0  0  0  0  0
  1  2  1  0
  2  3  2  0
  3  4  1  0
  4  5  2  0
  5  6  1  0
  6  7  1  0
  7  8  2  0
  8  9  1  0
  8 10  1  0
 10 11  2  0
 11 12  1  0
 12 13  2  0
 13 14  1  0
  5 15  1  0
 15 16  1  0
 16 17  1  0
 17 18  2  0
 17 19  1  0
 15 20  2  0
 20  2  1  0
 13  7  1  0
  1 21  1  0
  1 22  1  0
  1 23  1  0
  3 24  1  0
  4 25  1  0
  6 26  1  0
 10 27  1  0
 11 28  1  0
 12 29  1  0
 16 30  1  0
 16 31  1  0
 19 32  1  0
 20 33  1  0
M  END
$$$$
