
     RDKit          3D

 42 43  0  0  0  0  0  0  0  0999 V2000
   -6.8030   -0.1809   -0.3662 C   0  0  0  0  0  0  0  0  0  0  0  0
   -6.2003    0.6214    0.6432 O   0  0  0  0  0  0  0  0  0  0  0  0
   -5.2393    1.5420    0.1347 C   0  0  0  0  0  0  0  0  0  0  0  0
   -3.9359    0.8722   -0.2911 C   0  0  0  0  0  0  0  0  0  0  0  0
   -3.3684   -0.0303    0.8086 C   0  0  0  0  0  0  0  0  0  0  0  0
   -2.0598   -0.5961    0.4376 N   0  0  0  0  0  0  0  0  0  0  0  0
   -2.1045   -1.7856   -0.3165 C   0  0  0  0  0  0  0  0  0  0  0  0
   -3.1938   -2.2235   -0.7123 O   0  0  0  0  0  0  0  0  0  0  0  0
   -0.8076   -2.5292   -0.6318 C   0  0  0  0  0  0  0  0  0  0  0  0
   -1.1340   -4.1671   -1.2673 Cl  0  0  0  0  0  0  0  0  0  0  0  0
   -0.8401    0.0438    0.6837 C   0  0  0  0  0  0  0  0  0  0  0  0
    0.3462   -0.3503    0.2842 N   0  0  0  0  0  0  0  0  0  0  0  0
    1.3376    0.5349    0.6849 C   0  0  0  0  0  0  0  0  0  0  0  0
    2.7394    0.2949    0.3536 C   0  0  0  0  0  0  0  0  0  0  0  0
    3.6886    1.3264    0.3290 C   0  0  0  0  0  0  0  0  0  0  0  0
    5.0278    1.0654    0.0038 C   0  0  0  0  0  0  0  0  0  0  0  0
    5.4369   -0.2310   -0.3045 C   0  0  0  0  0  0  0  0  0  0  0  0
    6.7046   -0.6189   -0.6367 O   0  0  0  0  0  0  0  0  0  0  0  0
    7.6997    0.3959   -0.6779 C   0  0  0  0  0  0  0  0  0  0  0  0
    4.4962   -1.2610   -0.2873 C   0  0  0  0  0  0  0  0  0  0  0  0
    3.1604   -1.0026    0.0356 C   0  0  0  0  0  0  0  0  0  0  0  0
    0.8747    1.6091    1.4156 C   0  0  0  0  0  0  0  0  0  0  0  0
   -0.8256    1.5133    1.5774 S   0  0  0  0  0  0  0  0  0  0  0  0
   -6.0726   -0.8604   -0.8128 H   0  0  0  0  0  0  0  0  0  0  0  0
   -7.5875   -0.7823    0.1014 H   0  0  0  0  0  0  0  0  0  0  0  0
   -7.2598    0.4466   -1.1374 H   0  0  0  0  0  0  0  0  0  0  0  0
   -5.0270    2.2526    0.9413 H   0  0  0  0  0  0  0  0  0  0  0  0
   -5.6691    2.1188   -0.6925 H   0  0  0  0  0  0  0  0  0  0  0  0
   -4.1025    0.2787   -1.1973 H   0  0  0  0  0  0  0  0  0  0  0  0
   -3.2118    1.6486   -0.5640 H   0  0  0  0  0  0  0  0  0  0  0  0
   -4.0624   -0.8579    1.0016 H   0  0  0  0  0  0  0  0  0  0  0  0
   -3.2979    0.5016    1.7628 H   0  0  0  0  0  0  0  0  0  0  0  0
   -0.2475   -2.0005   -1.4059 H   0  0  0  0  0  0  0  0  0  0  0  0
   -0.2191   -2.6799    0.2752 H   0  0  0  0  0  0  0  0  0  0  0  0
    3.4074    2.3535    0.5461 H   0  0  0  0  0  0  0  0  0  0  0  0
    5.7220    1.8993   -0.0031 H   0  0  0  0  0  0  0  0  0  0  0  0
    7.4643    1.1493   -1.4369 H   0  0  0  0  0  0  0  0  0  0  0  0
    7.8360    0.8551    0.3068 H   0  0  0  0  0  0  0  0  0  0  0  0
    8.6464   -0.0753   -0.9591 H   0  0  0  0  0  0  0  0  0  0  0  0
    4.8034   -2.2761   -0.5284 H   0  0  0  0  0  0  0  0  0  0  0  0
    2.4535   -1.8293    0.0396 H   0  0  0  0  0  0  0  0  0  0  0  0
    1.4247    2.4240    1.8624 H   0  0  0  0  0  0  0  0  0  0  0  0
  1  2  1  0
  2  3  1  0
  3  4  1  0
  4  5  1  0
  5  6  1  0
  6  7  1  0
  7  8  2  0
  7  9  1  0
  9 10  1  0
  6 11  1  0
 11 12  2  0
 12 13  1  0
 13 14  1  0
 14 15  2  0
 15 16  1  0
 16 17  2  0
 17 18  1  0
 18 19  1  0
 17 20  1  0
 20 21  2  0
 13 22  2  0
 22 23  1  0
 23 11  1  0
 21 14  1  0
  1 24  1  0
  1 25  1  0
  1 26  1  0
  3 27  1  0
  3 28  1  0
  4 29  1  0
  4 30  1  0
  5 31  1  0
  5 32  1  0
  9 33  1  0
  9 34  1  0
 15 35  1  0
 16 36  1  0
 19 37  1  0
 19 38  1  0
 19 39  1  0
 20 40  1  0
 21 41  1  0
 22 42  1  0
M  END
$$$$
