
     RDKit          3D

 60 63  0  0  0  0  0  0  0  0999 V2000
   -0.9699   -2.3014    3.5060 C   0  0  0  0  0  0  0  0  0  0  0  0
   -1.5797   -1.0338    3.7274 O   0  0  0  0  0  0  0  0  0  0  0  0
   -2.2935   -0.5110    2.6861 C   0  0  0  0  0  0  0  0  0  0  0  0
   -2.5913    0.8511    2.8058 C   0  0  0  0  0  0  0  0  0  0  0  0
   -3.2573    1.5260    1.7813 C   0  0  0  0  0  0  0  0  0  0  0  0
   -3.6236    0.8329    0.6251 C   0  0  0  0  0  0  0  0  0  0  0  0
   -4.2632    1.5941   -0.4636 C   0  0  0  0  0  0  0  0  0  0  0  0
   -5.4027    2.0127   -0.2806 O   0  0  0  0  0  0  0  0  0  0  0  0
   -3.5307    1.8557   -1.6094 N   0  0  0  0  0  0  0  0  0  0  0  0
   -4.1584    2.5368   -2.7271 C   0  0  0  0  0  0  0  0  0  0  0  0
   -3.0303    2.7836   -3.7151 C   0  0  0  0  0  0  0  0  0  0  0  0
   -2.1090    1.5932   -3.4790 C   0  0  0  0  0  0  0  0  0  0  0  0
   -2.1784    1.3812   -1.9568 C   0  0  1  0  0  0  0  0  0  0  0  0
   -1.0754    2.1489   -1.2096 C   0  0  0  0  0  0  0  0  0  0  0  0
    0.1579    1.3920   -1.1572 N   0  0  0  0  0  0  0  0  0  0  0  0
    0.4779    0.3882   -0.2985 C   0  0  0  0  0  0  0  0  0  0  0  0
    1.7206   -0.0337   -0.7184 C   0  0  0  0  0  0  0  0  0  0  0  0
    2.5125   -1.1281   -0.1736 C   0  0  0  0  0  0  0  0  0  0  0  0
    2.1020   -1.8623    0.7190 O   0  0  0  0  0  0  0  0  0  0  0  0
    3.7493   -1.2546   -0.7597 N   0  0  0  0  0  0  0  0  0  0  0  0
    4.7402   -2.1848   -0.2832 C   0  0  0  0  0  0  0  0  0  0  0  0
    5.6428   -1.5488    0.7407 C   0  0  0  0  0  0  0  0  0  0  0  0
    5.3142   -1.5973    2.1049 C   0  0  0  0  0  0  0  0  0  0  0  0
    6.1415   -1.0014    3.0571 C   0  0  0  0  0  0  0  0  0  0  0  0
    7.2995   -0.3425    2.6555 C   0  0  0  0  0  0  0  0  0  0  0  0
    7.6263   -0.2718    1.3022 C   0  0  0  0  0  0  0  0  0  0  0  0
    6.8004   -0.8673    0.3480 C   0  0  0  0  0  0  0  0  0  0  0  0
    2.1165    0.7509   -1.7801 N   0  0  0  0  0  0  0  0  0  0  0  0
    1.1460    1.6189   -2.0397 N   0  0  0  0  0  0  0  0  0  0  0  0
   -3.4059   -0.5447    0.5383 C   0  0  0  0  0  0  0  0  0  0  0  0
   -3.7820   -1.2349   -0.5828 O   0  0  0  0  0  0  0  0  0  0  0  0
   -4.9633   -2.0057   -0.3150 C   0  0  0  0  0  0  0  0  0  0  0  0
   -2.7215   -1.2149    1.5590 C   0  0  0  0  0  0  0  0  0  0  0  0
   -0.2794   -2.4857    4.3317 H   0  0  0  0  0  0  0  0  0  0  0  0
   -0.3857   -2.3151    2.5785 H   0  0  0  0  0  0  0  0  0  0  0  0
   -1.7168   -3.1007    3.5109 H   0  0  0  0  0  0  0  0  0  0  0  0
   -2.2833    1.3921    3.6979 H   0  0  0  0  0  0  0  0  0  0  0  0
   -3.4700    2.5873    1.8756 H   0  0  0  0  0  0  0  0  0  0  0  0
   -4.9133    1.8634   -3.1462 H   0  0  0  0  0  0  0  0  0  0  0  0
   -4.6458    3.4594   -2.3969 H   0  0  0  0  0  0  0  0  0  0  0  0
   -3.3812    2.8504   -4.7479 H   0  0  0  0  0  0  0  0  0  0  0  0
   -2.5105    3.7180   -3.4682 H   0  0  0  0  0  0  0  0  0  0  0  0
   -1.0997    1.7605   -3.8625 H   0  0  0  0  0  0  0  0  0  0  0  0
   -2.5195    0.7141   -3.9924 H   0  0  0  0  0  0  0  0  0  0  0  0
   -2.1090    0.3118   -1.7416 H   0  0  0  0  0  0  0  0  0  0  0  0
   -0.8608    3.1204   -1.6725 H   0  0  0  0  0  0  0  0  0  0  0  0
   -1.3521    2.3537   -0.1699 H   0  0  0  0  0  0  0  0  0  0  0  0
   -0.1700    0.0483    0.4923 H   0  0  0  0  0  0  0  0  0  0  0  0
    4.0321   -0.5180   -1.3983 H   0  0  0  0  0  0  0  0  0  0  0  0
    5.3256   -2.5122   -1.1498 H   0  0  0  0  0  0  0  0  0  0  0  0
    4.2541   -3.0760    0.1328 H   0  0  0  0  0  0  0  0  0  0  0  0
    4.4083   -2.0993    2.4283 H   0  0  0  0  0  0  0  0  0  0  0  0
    5.8873   -1.0520    4.1098 H   0  0  0  0  0  0  0  0  0  0  0  0
    7.9415    0.1217    3.3978 H   0  0  0  0  0  0  0  0  0  0  0  0
    8.5237    0.2496    0.9931 H   0  0  0  0  0  0  0  0  0  0  0  0
    7.0625   -0.7965   -0.6994 H   0  0  0  0  0  0  0  0  0  0  0  0
   -4.7158   -2.8981    0.2767 H   0  0  0  0  0  0  0  0  0  0  0  0
   -5.7368   -1.4095    0.1921 H   0  0  0  0  0  0  0  0  0  0  0  0
   -5.3680   -2.3375   -1.2745 H   0  0  0  0  0  0  0  0  0  0  0  0
   -2.5290   -2.2776    1.4463 H   0  0  0  0  0  0  0  0  0  0  0  0
  1  2  1  0
  2  3  1  0
  3  4  2  0
  4  5  1  0
  5  6  2  0
  6  7  1  0
  7  8  2  0
  7  9  1  0
  9 10  1  0
 10 11  1  0
 11 12  1  0
 12 13  1  0
 13 14  1  0
 14 15  1  0
 15 16  1  0
 16 17  2  0
 17 18  1  0
 18 19  2  0
 18 20  1  0
 20 21  1  0
 21 22  1  0
 22 23  2  0
 23 24  1  0
 24 25  2  0
 25 26  1  0
 26 27  2  0
 17 28  1  0
 28 29  2  0
  6 30  1  0
 30 31  1  0
 31 32  1  0
 30 33  2  0
 33  3  1  0
 13  9  1  0
 29 15  1  0
 27 22  1  0
  1 34  1  0
  1 35  1  0
  1 36  1  0
  4 37  1  0
  5 38  1  0
 10 39  1  0
 10 40  1  0
 11 41  1  0
 11 42  1  0
 12 43  1  0
 12 44  1  0
 13 45  1  6
 14 46  1  0
 14 47  1  0
 16 48  1  0
 20 49  1  0
 21 50  1  0
 21 51  1  0
 23 52  1  0
 24 53  1  0
 25 54  1  0
 26 55  1  0
 27 56  1  0
 32 57  1  0
 32 58  1  0
 32 59  1  0
 33 60  1  0
M  END
$$$$
