
     RDKit          3D

 64 67  0  0  0  0  0  0  0  0999 V2000
   -5.3257   -0.1976    3.2621 C   0  0  0  0  0  0  0  0  0  0  0  0
   -4.6434   -1.1811    2.3076 C   0  0  0  0  0  0  0  0  0  0  0  0
   -5.5934   -2.3419    1.9979 C   0  0  0  0  0  0  0  0  0  0  0  0
   -4.2624   -0.5497    1.0404 N   0  0  0  0  0  0  0  0  0  0  0  0
   -3.2093    0.4667    1.1813 C   0  0  0  0  0  0  0  0  0  0  0  0
   -2.5466    0.9203   -0.1454 C   0  0  1  0  0  0  0  0  0  0  0  0
   -1.7817   -0.2555   -0.7815 C   0  0  0  0  0  0  0  0  0  0  0  0
   -2.3534   -1.0870   -1.4933 O   0  0  0  0  0  0  0  0  0  0  0  0
   -0.4303   -0.4071   -0.4812 N   0  0  0  0  0  0  0  0  0  0  0  0
    0.3408    0.4190    0.4607 C   0  0  0  0  0  0  0  0  0  0  0  0
    1.5835   -0.3133    0.9992 C   0  0  0  0  0  0  0  0  0  0  0  0
    2.4873   -0.7930   -0.0720 N   0  0  0  0  0  0  0  0  0  0  0  0
    3.5395    0.1212   -0.2827 C   0  0  0  0  0  0  0  0  0  0  0  0
    3.2715    1.4360   -0.4289 N   0  0  0  0  0  0  0  0  0  0  0  0
    4.3222    2.2664   -0.6081 C   0  0  0  0  0  0  0  0  0  0  0  0
    5.6207    1.9267   -0.6276 N   0  0  0  0  0  0  0  0  0  0  0  0
    5.8265    0.6137   -0.4710 C   0  0  0  0  0  0  0  0  0  0  0  0
    4.8344   -0.3332   -0.3137 C   0  0  0  0  0  0  0  0  0  0  0  0
    5.4049   -1.7094   -0.1646 C   0  0  2  0  0  0  0  0  0  0  0  0
    5.3927   -2.1869    1.2851 C   0  0  0  0  0  0  0  0  0  0  0  0
    6.8422   -1.4894   -0.6961 C   0  0  0  0  0  0  0  0  0  0  0  0
    7.1922   -0.0283   -0.3935 C   0  0  1  0  0  0  0  0  0  0  0  0
    8.0962    0.5036   -1.3456 O   0  0  0  0  0  0  0  0  0  0  0  0
    1.8085   -1.0770   -1.3662 C   0  0  0  0  0  0  0  0  0  0  0  0
    0.3319   -1.4619   -1.1678 C   0  0  0  0  0  0  0  0  0  0  0  0
   -3.4956    1.6543   -1.0933 C   0  0  0  0  0  0  0  0  0  0  0  0
   -4.5131    0.9969   -1.8001 C   0  0  0  0  0  0  0  0  0  0  0  0
   -5.3816    1.7009   -2.6415 C   0  0  0  0  0  0  0  0  0  0  0  0
   -5.2437    3.0777   -2.7832 C   0  0  0  0  0  0  0  0  0  0  0  0
   -6.3137    3.9479   -3.8145 Cl  0  0  0  0  0  0  0  0  0  0  0  0
   -4.2447    3.7557   -2.0880 C   0  0  0  0  0  0  0  0  0  0  0  0
   -3.3783    3.0481   -1.2484 C   0  0  0  0  0  0  0  0  0  0  0  0
   -5.6556   -0.7213    4.1655 H   0  0  0  0  0  0  0  0  0  0  0  0
   -6.2066    0.2678    2.8024 H   0  0  0  0  0  0  0  0  0  0  0  0
   -4.6447    0.5996    3.5808 H   0  0  0  0  0  0  0  0  0  0  0  0
   -3.7548   -1.5976    2.7992 H   0  0  0  0  0  0  0  0  0  0  0  0
   -5.8910   -2.8577    2.9172 H   0  0  0  0  0  0  0  0  0  0  0  0
   -6.5044   -1.9918    1.5050 H   0  0  0  0  0  0  0  0  0  0  0  0
   -5.1160   -3.0813    1.3494 H   0  0  0  0  0  0  0  0  0  0  0  0
   -3.9512   -1.2687    0.3777 H   0  0  0  0  0  0  0  0  0  0  0  0
   -2.4249    0.0724    1.8376 H   0  0  0  0  0  0  0  0  0  0  0  0
   -3.6312    1.3524    1.6723 H   0  0  0  0  0  0  0  0  0  0  0  0
   -1.7991    1.6715    0.1324 H   0  0  0  0  0  0  0  0  0  0  0  0
   -0.2892    0.7097    1.3037 H   0  0  0  0  0  0  0  0  0  0  0  0
    0.6186    1.3327   -0.0759 H   0  0  0  0  0  0  0  0  0  0  0  0
    1.2555   -1.2021    1.5549 H   0  0  0  0  0  0  0  0  0  0  0  0
    2.1101    0.3092    1.7348 H   0  0  0  0  0  0  0  0  0  0  0  0
    4.0858    3.3174   -0.7448 H   0  0  0  0  0  0  0  0  0  0  0  0
    4.8799   -2.4287   -0.8046 H   0  0  0  0  0  0  0  0  0  0  0  0
    4.3647   -2.3087    1.6463 H   0  0  0  0  0  0  0  0  0  0  0  0
    5.8998   -1.4847    1.9563 H   0  0  0  0  0  0  0  0  0  0  0  0
    5.8990   -3.1541    1.3763 H   0  0  0  0  0  0  0  0  0  0  0  0
    6.8640   -1.6613   -1.7849 H   0  0  0  0  0  0  0  0  0  0  0  0
    7.5744   -2.1824   -0.2602 H   0  0  0  0  0  0  0  0  0  0  0  0
    7.6023    0.0928    0.6178 H   0  0  0  0  0  0  0  0  0  0  0  0
    7.7833    1.4138   -1.5164 H   0  0  0  0  0  0  0  0  0  0  0  0
    1.8414   -0.2069   -2.0385 H   0  0  0  0  0  0  0  0  0  0  0  0
    2.3329   -1.9039   -1.8627 H   0  0  0  0  0  0  0  0  0  0  0  0
    0.2552   -2.3645   -0.5486 H   0  0  0  0  0  0  0  0  0  0  0  0
   -0.1215   -1.6840   -2.1409 H   0  0  0  0  0  0  0  0  0  0  0  0
   -4.6461   -0.0781   -1.7017 H   0  0  0  0  0  0  0  0  0  0  0  0
   -6.1607    1.1629   -3.1768 H   0  0  0  0  0  0  0  0  0  0  0  0
   -4.1385    4.8333   -2.1886 H   0  0  0  0  0  0  0  0  0  0  0  0
   -2.6094    3.5991   -0.7114 H   0  0  0  0  0  0  0  0  0  0  0  0
  1  2  1  0
  2  3  1  0
  2  4  1  0
  4  5  1  0
  5  6  1  0
  6  7  1  0
  7  8  2  0
  7  9  1  0
  9 10  1  0
 10 11  1  0
 11 12  1  0
 12 13  1  0
 13 14  2  0
 14 15  1  0
 15 16  2  0
 16 17  1  0
 17 18  2  0
 18 19  1  0
 19 20  1  0
 19 21  1  0
 21 22  1  0
 22 23  1  0
 12 24  1  0
 24 25  1  0
  6 26  1  0
 26 27  2  0
 27 28  1  0
 28 29  2  0
 29 30  1  0
 29 31  1  0
 31 32  2  0
 25  9  1  0
 32 26  1  0
 18 13  1  0
 22 17  1  0
  1 33  1  0
  1 34  1  0
  1 35  1  0
  2 36  1  0
  3 37  1  0
  3 38  1  0
  3 39  1  0
  4 40  1  0
  5 41  1  0
  5 42  1  0
  6 43  1  1
 10 44  1  0
 10 45  1  0
 11 46  1  0
 11 47  1  0
 15 48  1  0
 19 49  1  6
 20 50  1  0
 20 51  1  0
 20 52  1  0
 21 53  1  0
 21 54  1  0
 22 55  1  1
 23 56  1  0
 24 57  1  0
 24 58  1  0
 25 59  1  0
 25 60  1  0
 27 61  1  0
 28 62  1  0
 31 63  1  0
 32 64  1  0
M  END
$$$$
