
     RDKit          3D

 46 48  0  0  0  0  0  0  0  0999 V2000
    7.6550   -1.1890    1.5508 C   0  0  0  0  0  0  0  0  0  0  0  0
    6.3661   -1.4932    0.8801 C   0  0  0  0  0  0  0  0  0  0  0  0
    5.7510   -2.7273    0.7931 C   0  0  0  0  0  0  0  0  0  0  0  0
    4.2794   -2.5840   -0.0711 S   0  0  0  0  0  0  0  0  0  0  0  0
    4.5615   -0.9170   -0.2595 C   0  0  0  0  0  0  0  0  0  0  0  0
    3.7044   -0.0759   -0.9195 N   0  0  0  0  0  0  0  0  0  0  0  0
    2.5123   -0.4040   -1.5229 C   0  0  0  0  0  0  0  0  0  0  0  0
    1.9927   -1.5113   -1.5919 O   0  0  0  0  0  0  0  0  0  0  0  0
    1.8577    0.8169   -2.1523 C   0  0  0  0  0  0  0  0  0  0  0  0
    0.4654    0.5345   -2.7229 C   0  0  0  0  0  0  0  0  0  0  0  0
   -0.5788    0.1816   -1.6671 C   0  0  2  0  0  0  0  0  0  0  0  0
   -1.8304   -0.2068   -2.2692 N   0  0  0  0  0  0  0  0  0  0  0  0
   -2.8891    0.5344   -1.7965 C   0  0  0  0  0  0  0  0  0  0  0  0
   -4.0536    0.3105   -2.0791 O   0  0  0  0  0  0  0  0  0  0  0  0
   -2.4008    1.5169   -0.9899 N   0  0  0  0  0  0  0  0  0  0  0  0
   -3.2193    2.4913   -0.2943 C   0  0  0  0  0  0  0  0  0  0  0  0
   -3.2933    2.2512    1.2200 C   0  0  0  0  0  0  0  0  0  0  0  0
   -3.8343    0.8936    1.5993 C   0  0  0  0  0  0  0  0  0  0  0  0
   -2.9826   -0.0847    2.1369 C   0  0  0  0  0  0  0  0  0  0  0  0
   -3.4734   -1.3486    2.4752 C   0  0  0  0  0  0  0  0  0  0  0  0
   -4.8206   -1.6460    2.2816 C   0  0  0  0  0  0  0  0  0  0  0  0
   -5.6649   -0.6781    1.7513 C   0  0  0  0  0  0  0  0  0  0  0  0
   -6.9615   -0.9628    1.5705 F   0  0  0  0  0  0  0  0  0  0  0  0
   -5.1870    0.5832    1.4089 C   0  0  0  0  0  0  0  0  0  0  0  0
   -1.0469    1.3937   -0.8556 C   0  0  0  0  0  0  0  0  0  0  0  0
   -0.3192    2.1100   -0.1800 O   0  0  0  0  0  0  0  0  0  0  0  0
    5.6704   -0.4590    0.2730 N   0  0  0  0  0  0  0  0  0  0  0  0
    7.4731   -0.8013    2.5578 H   0  0  0  0  0  0  0  0  0  0  0  0
    8.2137   -0.4362    0.9860 H   0  0  0  0  0  0  0  0  0  0  0  0
    8.2802   -2.0837    1.6322 H   0  0  0  0  0  0  0  0  0  0  0  0
    6.0845   -3.6782    1.1830 H   0  0  0  0  0  0  0  0  0  0  0  0
    4.0270    0.8819   -0.9262 H   0  0  0  0  0  0  0  0  0  0  0  0
    2.5084    1.1484   -2.9711 H   0  0  0  0  0  0  0  0  0  0  0  0
    1.8208    1.6249   -1.4152 H   0  0  0  0  0  0  0  0  0  0  0  0
    0.5330   -0.2827   -3.4529 H   0  0  0  0  0  0  0  0  0  0  0  0
    0.1378    1.4201   -3.2832 H   0  0  0  0  0  0  0  0  0  0  0  0
   -0.2769   -0.6159   -0.9835 H   0  0  0  0  0  0  0  0  0  0  0  0
   -2.0018   -1.0811   -2.7497 H   0  0  0  0  0  0  0  0  0  0  0  0
   -4.2248    2.4915   -0.7300 H   0  0  0  0  0  0  0  0  0  0  0  0
   -2.7774    3.4789   -0.4706 H   0  0  0  0  0  0  0  0  0  0  0  0
   -2.2999    2.3867    1.6655 H   0  0  0  0  0  0  0  0  0  0  0  0
   -3.9292    3.0204    1.6763 H   0  0  0  0  0  0  0  0  0  0  0  0
   -1.9272    0.1310    2.2949 H   0  0  0  0  0  0  0  0  0  0  0  0
   -2.8049   -2.0992    2.8892 H   0  0  0  0  0  0  0  0  0  0  0  0
   -5.2177   -2.6224    2.5387 H   0  0  0  0  0  0  0  0  0  0  0  0
   -5.8789    1.3076    0.9897 H   0  0  0  0  0  0  0  0  0  0  0  0
  1  2  1  0
  2  3  2  0
  3  4  1  0
  4  5  1  0
  5  6  1  0
  6  7  1  0
  7  8  2  0
  7  9  1  0
  9 10  1  0
 10 11  1  0
 11 12  1  0
 12 13  1  0
 13 14  2  0
 13 15  1  0
 15 16  1  0
 16 17  1  0
 17 18  1  0
 18 19  2  0
 19 20  1  0
 20 21  2  0
 21 22  1  0
 22 23  1  0
 22 24  2  0
 15 25  1  0
 25 26  2  0
  5 27  2  0
 27  2  1  0
 25 11  1  0
 24 18  1  0
  1 28  1  0
  1 29  1  0
  1 30  1  0
  3 31  1  0
  6 32  1  0
  9 33  1  0
  9 34  1  0
 10 35  1  0
 10 36  1  0
 11 37  1  1
 12 38  1  0
 16 39  1  0
 16 40  1  0
 17 41  1  0
 17 42  1  0
 19 43  1  0
 20 44  1  0
 21 45  1  0
 24 46  1  0
M  END
$$$$
