
     RDKit          3D

 37 40  0  0  0  0  0  0  0  0999 V2000
   -3.9981   -2.7152   -0.6528 C   0  0  0  0  0  0  0  0  0  0  0  0
   -2.5317   -2.4007   -0.6568 C   0  0  0  0  0  0  0  0  0  0  0  0
   -1.6634   -3.2144   -0.9477 O   0  0  0  0  0  0  0  0  0  0  0  0
   -2.3603   -1.0894   -0.2840 O   0  0  0  0  0  0  0  0  0  0  0  0
   -1.0018   -0.7537   -0.2960 N   0  0  0  0  0  0  0  0  0  0  0  0
   -0.7625    0.4603    0.0724 C   0  0  0  0  0  0  0  0  0  0  0  0
    0.6203    1.1179    0.1331 C   0  0  0  0  0  0  0  0  0  0  0  0
    1.8259    0.5418   -0.0303 C   0  0  0  0  0  0  0  0  0  0  0  0
    3.0455    1.4279    0.1338 C   0  0  0  0  0  0  0  0  0  0  0  0
    3.0780    2.6096    0.4309 O   0  0  0  0  0  0  0  0  0  0  0  0
    4.1333    0.6132   -0.1005 N   0  0  0  0  0  0  0  0  0  0  0  0
    3.7370   -0.6899   -0.3723 C   0  0  0  0  0  0  0  0  0  0  0  0
    4.5907   -1.7463   -0.6349 C   0  0  0  0  0  0  0  0  0  0  0  0
    4.0068   -2.9857   -0.8768 C   0  0  0  0  0  0  0  0  0  0  0  0
    5.1054   -4.4801   -1.2444 Br  0  0  0  0  0  0  0  0  0  0  0  0
    2.6143   -3.1402   -0.8497 C   0  0  0  0  0  0  0  0  0  0  0  0
    1.7758   -2.0471   -0.5786 C   0  0  0  0  0  0  0  0  0  0  0  0
    2.3374   -0.8065   -0.3393 C   0  0  0  0  0  0  0  0  0  0  0  0
    0.3911    2.4538    0.4333 N   0  0  0  0  0  0  0  0  0  0  0  0
   -0.9423    2.6716    0.7343 C   0  0  0  0  0  0  0  0  0  0  0  0
   -1.5298    3.8620    1.1186 C   0  0  0  0  0  0  0  0  0  0  0  0
   -2.9122    3.8854    1.3182 C   0  0  0  0  0  0  0  0  0  0  0  0
   -3.6835    2.7301    1.1157 C   0  0  0  0  0  0  0  0  0  0  0  0
   -3.0854    1.5348    0.7031 C   0  0  0  0  0  0  0  0  0  0  0  0
   -1.7134    1.5251    0.5069 C   0  0  0  0  0  0  0  0  0  0  0  0
   -4.1470   -3.7551   -0.9576 H   0  0  0  0  0  0  0  0  0  0  0  0
   -4.5183   -2.0672   -1.3628 H   0  0  0  0  0  0  0  0  0  0  0  0
   -4.4021   -2.5860    0.3545 H   0  0  0  0  0  0  0  0  0  0  0  0
    5.0846    0.9450   -0.0525 H   0  0  0  0  0  0  0  0  0  0  0  0
    5.6659   -1.6136   -0.6508 H   0  0  0  0  0  0  0  0  0  0  0  0
    2.1614   -4.1117   -1.0396 H   0  0  0  0  0  0  0  0  0  0  0  0
    0.7087   -2.2193   -0.5676 H   0  0  0  0  0  0  0  0  0  0  0  0
    1.1611    3.0492    0.7248 H   0  0  0  0  0  0  0  0  0  0  0  0
   -0.9358    4.7585    1.2617 H   0  0  0  0  0  0  0  0  0  0  0  0
   -3.3965    4.8089    1.6283 H   0  0  0  0  0  0  0  0  0  0  0  0
   -4.7590    2.7687    1.2762 H   0  0  0  0  0  0  0  0  0  0  0  0
   -3.7003    0.6584    0.5493 H   0  0  0  0  0  0  0  0  0  0  0  0
  1  2  1  0
  2  3  2  0
  2  4  1  0
  4  5  1  0
  5  6  2  0
  6  7  1  0
  7  8  2  0
  8  9  1  0
  9 10  2  0
  9 11  1  0
 11 12  1  0
 12 13  2  0
 13 14  1  0
 14 15  1  0
 14 16  2  0
 16 17  1  0
 17 18  2  0
  7 19  1  0
 19 20  1  0
 20 21  2  0
 21 22  1  0
 22 23  2  0
 23 24  1  0
 24 25  2  0
 25  6  1  0
 18  8  1  0
 25 20  1  0
 18 12  1  0
  1 26  1  0
  1 27  1  0
  1 28  1  0
 11 29  1  0
 13 30  1  0
 16 31  1  0
 17 32  1  0
 19 33  1  0
 21 34  1  0
 22 35  1  0
 23 36  1  0
 24 37  1  0
M  END
$$$$
