
     RDKit          3D

 25 24  0  0  0  0  0  0  0  0999 V2000
   -0.7368   -1.6771    0.7913 C   0  0  0  0  0  0  0  0  0  0  0  0
   -0.5545   -0.3035    0.2094 C   0  0  0  0  0  0  0  0  0  0  0  0
    0.8566    0.1872    0.0718 C   0  0  0  0  0  0  0  0  0  0  0  0
    1.6819    0.0105    1.0520 N   0  0  0  0  0  0  0  0  0  0  0  0
    2.9618    0.4351    0.8081 N   0  0  0  0  0  0  0  0  0  0  0  0
    3.7358    0.1237   -0.2834 C   0  0  0  0  0  0  0  0  0  0  0  0
    3.3030   -0.4025   -1.3779 N   0  0  0  0  0  0  0  0  0  0  0  0
    5.0422    0.4508   -0.1306 N   0  0  0  0  0  0  0  0  0  0  0  0
   -1.4937    0.5104   -0.1717 N   0  0  0  0  0  0  0  0  0  0  0  0
   -2.7891    0.1014   -0.0091 N   0  0  0  0  0  0  0  0  0  0  0  0
   -3.8483    0.8895   -0.3462 C   0  0  0  0  0  0  0  0  0  0  0  0
   -3.7621    2.0419   -0.9138 N   0  0  0  0  0  0  0  0  0  0  0  0
   -5.0582    0.3674   -0.0503 N   0  0  0  0  0  0  0  0  0  0  0  0
   -1.5247   -2.2165    0.2588 H   0  0  0  0  0  0  0  0  0  0  0  0
    0.1847   -2.2595    0.7048 H   0  0  0  0  0  0  0  0  0  0  0  0
   -1.0055   -1.5879    1.8473 H   0  0  0  0  0  0  0  0  0  0  0  0
    1.0828    0.6915   -0.8823 H   0  0  0  0  0  0  0  0  0  0  0  0
    3.4810    0.6764    1.6449 H   0  0  0  0  0  0  0  0  0  0  0  0
    4.0682   -0.4969   -2.0453 H   0  0  0  0  0  0  0  0  0  0  0  0
    5.6631    0.0751   -0.8361 H   0  0  0  0  0  0  0  0  0  0  0  0
    5.4219    0.3004    0.7956 H   0  0  0  0  0  0  0  0  0  0  0  0
   -3.0083   -0.5416    0.7473 H   0  0  0  0  0  0  0  0  0  0  0  0
   -2.7459    2.1902   -1.0170 H   0  0  0  0  0  0  0  0  0  0  0  0
   -5.7691    0.9914   -0.4253 H   0  0  0  0  0  0  0  0  0  0  0  0
   -5.1868   -0.5573   -0.4423 H   0  0  0  0  0  0  0  0  0  0  0  0
  1  2  1  0
  2  3  1  0
  3  4  2  3
  4  5  1  0
  5  6  1  0
  6  7  2  3
  6  8  1  0
  2  9  2  3
  9 10  1  0
 10 11  1  0
 11 12  2  3
 11 13  1  0
  1 14  1  0
  1 15  1  0
  1 16  1  0
  3 17  1  0
  5 18  1  0
  7 19  1  0
  8 20  1  0
  8 21  1  0
 10 22  1  0
 12 23  1  0
 13 24  1  0
 13 25  1  0
M  END
$$$$
