
     RDKit          3D

 44 49  0  0  0  0  0  0  0  0999 V2000
   -1.1163   -0.6568    2.3625 C   0  0  0  0  0  0  0  0  0  0  0  0
   -0.6046   -1.2785    1.1381 N   0  0  0  0  0  0  0  0  0  0  0  0
   -1.4892   -2.3506    0.6561 C   0  0  0  0  0  0  0  0  0  0  0  0
   -2.8715   -1.8754    0.1930 C   0  0  0  0  0  0  0  0  0  0  0  0
   -2.8756   -0.5044   -0.4478 C   0  0  0  0  0  0  0  0  0  0  0  0
   -4.0968   -0.0150   -0.9477 C   0  0  0  0  0  0  0  0  0  0  0  0
   -4.1254    1.2633   -1.4516 C   0  0  0  0  0  0  0  0  0  0  0  0
   -3.0042    2.0519   -1.4663 C   0  0  0  0  0  0  0  0  0  0  0  0
   -1.7870    1.6076   -0.9877 C   0  0  0  0  0  0  0  0  0  0  0  0
   -1.6969    0.3045   -0.4650 C   0  0  0  0  0  0  0  0  0  0  0  0
   -0.3702   -0.3114    0.0247 C   0  0  1  0  0  0  0  0  0  0  0  0
    0.8190    0.6761    0.3149 C   0  0  2  0  0  0  0  0  0  0  0  0
    1.1948    1.3557   -0.9230 O   0  0  0  0  0  0  0  0  0  0  0  0
    2.4780    1.1219   -1.3177 C   0  0  0  0  0  0  0  0  0  0  0  0
    2.9980    1.5348   -2.3325 O   0  0  0  0  0  0  0  0  0  0  0  0
    3.0699    0.3101   -0.2746 C   0  0  0  0  0  0  0  0  0  0  0  0
    2.1198    0.0431    0.6979 C   0  0  0  0  0  0  0  0  0  0  0  0
    2.4694   -0.6997    1.8291 C   0  0  0  0  0  0  0  0  0  0  0  0
    3.7784   -1.1836    1.9579 C   0  0  0  0  0  0  0  0  0  0  0  0
    4.6889   -0.8985    0.9533 C   0  0  0  0  0  0  0  0  0  0  0  0
    4.3511   -0.1595   -0.1549 C   0  0  0  0  0  0  0  0  0  0  0  0
    5.3947    0.0056   -1.0032 O   0  0  0  0  0  0  0  0  0  0  0  0
    6.4326   -0.7179   -0.3130 C   0  0  0  0  0  0  0  0  0  0  0  0
    5.9911   -1.2931    0.9353 O   0  0  0  0  0  0  0  0  0  0  0  0
   -3.2432    3.2821   -1.9963 O   0  0  0  0  0  0  0  0  0  0  0  0
   -4.6421    3.1675   -2.3274 C   0  0  0  0  0  0  0  0  0  0  0  0
   -5.2139    1.8928   -1.9671 O   0  0  0  0  0  0  0  0  0  0  0  0
   -2.0920   -0.1754    2.2447 H   0  0  0  0  0  0  0  0  0  0  0  0
   -1.2099   -1.4118    3.1513 H   0  0  0  0  0  0  0  0  0  0  0  0
   -0.4217    0.0976    2.7444 H   0  0  0  0  0  0  0  0  0  0  0  0
   -0.9907   -2.8605   -0.1796 H   0  0  0  0  0  0  0  0  0  0  0  0
   -1.6044   -3.1235    1.4265 H   0  0  0  0  0  0  0  0  0  0  0  0
   -3.5392   -1.8369    1.0634 H   0  0  0  0  0  0  0  0  0  0  0  0
   -3.2849   -2.6088   -0.5097 H   0  0  0  0  0  0  0  0  0  0  0  0
   -4.9998   -0.6161   -0.9282 H   0  0  0  0  0  0  0  0  0  0  0  0
   -0.9429    2.2839   -1.0438 H   0  0  0  0  0  0  0  0  0  0  0  0
   -0.0236   -0.9003   -0.8401 H   0  0  0  0  0  0  0  0  0  0  0  0
    0.5385    1.4506    1.0375 H   0  0  0  0  0  0  0  0  0  0  0  0
    1.7441   -0.9171    2.6073 H   0  0  0  0  0  0  0  0  0  0  0  0
    4.0746   -1.7689    2.8226 H   0  0  0  0  0  0  0  0  0  0  0  0
    7.2633   -0.0326   -0.1088 H   0  0  0  0  0  0  0  0  0  0  0  0
    6.7920   -1.5240   -0.9630 H   0  0  0  0  0  0  0  0  0  0  0  0
   -5.1919    3.9582   -1.8040 H   0  0  0  0  0  0  0  0  0  0  0  0
   -4.7607    3.3128   -3.4075 H   0  0  0  0  0  0  0  0  0  0  0  0
  1  2  1  0
  2  3  1  0
  3  4  1  0
  4  5  1  0
  5  6  2  0
  6  7  1  0
  7  8  2  0
  8  9  1  0
  9 10  2  0
 10 11  1  0
 11 12  1  0
 12 13  1  0
 13 14  1  0
 14 15  2  0
 14 16  1  0
 16 17  2  0
 17 18  1  0
 18 19  2  0
 19 20  1  0
 20 21  2  0
 21 22  1  0
 22 23  1  0
 23 24  1  0
  8 25  1  0
 25 26  1  0
 26 27  1  0
 11  2  1  0
 17 12  1  0
 24 20  1  0
 10  5  1  0
 21 16  1  0
 27  7  1  0
  1 28  1  0
  1 29  1  0
  1 30  1  0
  3 31  1  0
  3 32  1  0
  4 33  1  0
  4 34  1  0
  6 35  1  0
  9 36  1  0
 11 37  1  6
 12 38  1  1
 18 39  1  0
 19 40  1  0
 23 41  1  0
 23 42  1  0
 26 43  1  0
 26 44  1  0
M  END
$$$$
