
     RDKit          3D

 57 58  0  0  0  0  0  0  0  0999 V2000
   -3.3369   -1.9803   -0.5393 C   0  0  0  0  0  0  0  0  0  0  0  0
   -3.9277   -1.6228    0.8217 C   0  0  0  0  0  0  0  0  0  0  0  0
   -4.5065   -0.2767    0.9577 N   0  0  0  0  0  0  0  0  0  0  0  0
   -5.6857   -0.0496    0.1003 C   0  0  0  0  0  0  0  0  0  0  0  0
   -6.8426   -1.0064    0.3705 C   0  0  0  0  0  0  0  0  0  0  0  0
   -3.5334    0.8170    0.7447 C   0  0  0  0  0  0  0  0  0  0  0  0
   -2.3673    0.8056    1.7432 C   0  0  0  0  0  0  0  0  0  0  0  0
   -1.4784    2.0427    1.6163 C   0  0  0  0  0  0  0  0  0  0  0  0
   -0.7053    2.0342    0.3948 N   0  0  0  0  0  0  0  0  0  0  0  0
   -1.0713    2.7163   -0.7460 C   0  0  0  0  0  0  0  0  0  0  0  0
   -2.0133    3.5050   -0.7787 O   0  0  0  0  0  0  0  0  0  0  0  0
   -0.1255    2.5214   -1.9320 C   0  0  0  0  0  0  0  0  0  0  0  0
    0.5377    1.2150   -1.8902 N   0  0  0  0  0  0  0  0  0  0  0  0
    1.6684    1.1180   -1.1055 N   0  0  0  0  0  0  0  0  0  0  0  0
    2.4202    0.0632   -1.2239 C   0  0  0  0  0  0  0  0  0  0  0  0
    3.6580   -0.0490   -0.3961 C   0  0  0  0  0  0  0  0  0  0  0  0
    4.7402   -0.8403   -0.7959 C   0  0  0  0  0  0  0  0  0  0  0  0
    5.8883   -0.9269    0.0034 C   0  0  0  0  0  0  0  0  0  0  0  0
    5.9655   -0.2209    1.2038 C   0  0  0  0  0  0  0  0  0  0  0  0
    7.0210   -0.2208    2.0720 O   0  0  0  0  0  0  0  0  0  0  0  0
    8.1466   -1.0163    1.7214 C   0  0  0  0  0  0  0  0  0  0  0  0
    4.8895    0.5785    1.5945 C   0  0  0  0  0  0  0  0  0  0  0  0
    3.7432    0.6704    0.8006 C   0  0  0  0  0  0  0  0  0  0  0  0
    2.0925   -1.0331   -2.2084 C   0  0  0  0  0  0  0  0  0  0  0  0
    0.5920   -1.1984   -2.2553 C   0  0  0  0  0  0  0  0  0  0  0  0
   -0.0733    0.1270   -2.5072 C   0  0  0  0  0  0  0  0  0  0  0  0
   -1.1172    0.1980   -3.1522 O   0  0  0  0  0  0  0  0  0  0  0  0
   -2.9490   -3.0042   -0.5142 H   0  0  0  0  0  0  0  0  0  0  0  0
   -2.5036   -1.3240   -0.8060 H   0  0  0  0  0  0  0  0  0  0  0  0
   -4.0870   -1.9347   -1.3338 H   0  0  0  0  0  0  0  0  0  0  0  0
   -4.6816   -2.3739    1.0843 H   0  0  0  0  0  0  0  0  0  0  0  0
   -3.1542   -1.7631    1.5852 H   0  0  0  0  0  0  0  0  0  0  0  0
   -5.4204   -0.0853   -0.9631 H   0  0  0  0  0  0  0  0  0  0  0  0
   -6.0689    0.9612    0.2921 H   0  0  0  0  0  0  0  0  0  0  0  0
   -7.7326   -0.6770   -0.1759 H   0  0  0  0  0  0  0  0  0  0  0  0
   -6.6165   -2.0243    0.0394 H   0  0  0  0  0  0  0  0  0  0  0  0
   -7.0950   -1.0317    1.4358 H   0  0  0  0  0  0  0  0  0  0  0  0
   -3.1563    0.7992   -0.2841 H   0  0  0  0  0  0  0  0  0  0  0  0
   -4.0552    1.7750    0.8694 H   0  0  0  0  0  0  0  0  0  0  0  0
   -2.7688    0.7706    2.7634 H   0  0  0  0  0  0  0  0  0  0  0  0
   -1.7476   -0.0874    1.6031 H   0  0  0  0  0  0  0  0  0  0  0  0
   -0.7555    2.0558    2.4389 H   0  0  0  0  0  0  0  0  0  0  0  0
   -2.0741    2.9596    1.6783 H   0  0  0  0  0  0  0  0  0  0  0  0
    0.1261    1.4507    0.3190 H   0  0  0  0  0  0  0  0  0  0  0  0
    0.6365    3.3075   -1.9109 H   0  0  0  0  0  0  0  0  0  0  0  0
   -0.7061    2.6096   -2.8557 H   0  0  0  0  0  0  0  0  0  0  0  0
    4.7263   -1.3871   -1.7346 H   0  0  0  0  0  0  0  0  0  0  0  0
    6.7059   -1.5505   -0.3441 H   0  0  0  0  0  0  0  0  0  0  0  0
    8.8913   -0.9104    2.5159 H   0  0  0  0  0  0  0  0  0  0  0  0
    8.6017   -0.6664    0.7889 H   0  0  0  0  0  0  0  0  0  0  0  0
    7.8767   -2.0755    1.6569 H   0  0  0  0  0  0  0  0  0  0  0  0
    4.9448    1.1372    2.5260 H   0  0  0  0  0  0  0  0  0  0  0  0
    2.9243    1.3055    1.1297 H   0  0  0  0  0  0  0  0  0  0  0  0
    2.5483   -1.9840   -1.9199 H   0  0  0  0  0  0  0  0  0  0  0  0
    2.4845   -0.7366   -3.1881 H   0  0  0  0  0  0  0  0  0  0  0  0
    0.3197   -1.8936   -3.0563 H   0  0  0  0  0  0  0  0  0  0  0  0
    0.2074   -1.5930   -1.3078 H   0  0  0  0  0  0  0  0  0  0  0  0
  1  2  1  0
  2  3  1  0
  3  4  1  0
  4  5  1  0
  3  6  1  0
  6  7  1  0
  7  8  1  0
  8  9  1  0
  9 10  1  0
 10 11  2  0
 10 12  1  0
 12 13  1  0
 13 14  1  0
 14 15  2  0
 15 16  1  0
 16 17  2  0
 17 18  1  0
 18 19  2  0
 19 20  1  0
 20 21  1  0
 19 22  1  0
 22 23  2  0
 15 24  1  0
 24 25  1  0
 25 26  1  0
 26 27  2  0
 26 13  1  0
 23 16  1  0
  1 28  1  0
  1 29  1  0
  1 30  1  0
  2 31  1  0
  2 32  1  0
  4 33  1  0
  4 34  1  0
  5 35  1  0
  5 36  1  0
  5 37  1  0
  6 38  1  0
  6 39  1  0
  7 40  1  0
  7 41  1  0
  8 42  1  0
  8 43  1  0
  9 44  1  0
 12 45  1  0
 12 46  1  0
 17 47  1  0
 18 48  1  0
 21 49  1  0
 21 50  1  0
 21 51  1  0
 22 52  1  0
 23 53  1  0
 24 54  1  0
 24 55  1  0
 25 56  1  0
 25 57  1  0
M  END
$$$$
