
     RDKit          3D

 40 42  0  0  0  0  0  0  0  0999 V2000
   -3.9993    1.6182    0.8036 O   0  0  0  0  0  0  0  0  0  0  0  0
   -3.5410    0.5785    0.3455 C   0  0  0  0  0  0  0  0  0  0  0  0
   -2.0671    0.4435   -0.0089 C   0  0  0  0  0  0  0  0  0  0  0  0
   -1.2734    1.7041    0.3496 C   0  0  0  0  0  0  0  0  0  0  0  0
    0.1966    1.6507   -0.0394 C   0  0  2  0  0  0  0  0  0  0  0  0
    0.4192    1.4451   -1.4467 N   0  0  0  0  0  0  0  0  0  0  0  0
    1.3221    0.4287   -1.6734 C   0  0  0  0  0  0  0  0  0  0  0  0
    1.7704    0.1521   -2.7728 O   0  0  0  0  0  0  0  0  0  0  0  0
    1.6004   -0.1752   -0.4861 N   0  0  0  0  0  0  0  0  0  0  0  0
    2.5054   -1.2884   -0.3293 C   0  0  0  0  0  0  0  0  0  0  0  0
    3.9179   -0.8243   -0.0627 C   0  0  0  0  0  0  0  0  0  0  0  0
    4.3625   -0.6086    1.2520 C   0  0  0  0  0  0  0  0  0  0  0  0
    5.6616   -0.1572    1.4992 C   0  0  0  0  0  0  0  0  0  0  0  0
    6.5263    0.0896    0.4349 C   0  0  0  0  0  0  0  0  0  0  0  0
    6.0840   -0.1116   -0.8671 C   0  0  0  0  0  0  0  0  0  0  0  0
    6.9140    0.1333   -1.8895 F   0  0  0  0  0  0  0  0  0  0  0  0
    4.7927   -0.5602   -1.1260 C   0  0  0  0  0  0  0  0  0  0  0  0
    0.9602    0.4595    0.5415 C   0  0  0  0  0  0  0  0  0  0  0  0
    0.9938    0.1504    1.7243 O   0  0  0  0  0  0  0  0  0  0  0  0
   -4.2255   -0.5816    0.0720 N   0  0  0  0  0  0  0  0  0  0  0  0
   -5.5604   -0.7749    0.2727 C   0  0  0  0  0  0  0  0  0  0  0  0
   -6.4188    0.1594    0.7681 N   0  0  0  0  0  0  0  0  0  0  0  0
   -7.5733   -0.4605    0.7855 C   0  0  0  0  0  0  0  0  0  0  0  0
   -7.4088   -1.7217    0.3151 N   0  0  0  0  0  0  0  0  0  0  0  0
   -6.1285   -1.9491   -0.0220 N   0  0  0  0  0  0  0  0  0  0  0  0
   -1.9997    0.2447   -1.0848 H   0  0  0  0  0  0  0  0  0  0  0  0
   -1.6649   -0.4224    0.5293 H   0  0  0  0  0  0  0  0  0  0  0  0
   -1.7355    2.5704   -0.1413 H   0  0  0  0  0  0  0  0  0  0  0  0
   -1.3521    1.8776    1.4304 H   0  0  0  0  0  0  0  0  0  0  0  0
    0.7156    2.5709    0.2502 H   0  0  0  0  0  0  0  0  0  0  0  0
    0.2316    2.1210   -2.1771 H   0  0  0  0  0  0  0  0  0  0  0  0
    2.1603   -1.9173    0.5001 H   0  0  0  0  0  0  0  0  0  0  0  0
    2.4833   -1.9047   -1.2360 H   0  0  0  0  0  0  0  0  0  0  0  0
    3.6932   -0.7851    2.0937 H   0  0  0  0  0  0  0  0  0  0  0  0
    5.9953    0.0050    2.5212 H   0  0  0  0  0  0  0  0  0  0  0  0
    7.5377    0.4415    0.6104 H   0  0  0  0  0  0  0  0  0  0  0  0
    4.4785   -0.6931   -2.1584 H   0  0  0  0  0  0  0  0  0  0  0  0
   -3.7574   -1.3910   -0.3028 H   0  0  0  0  0  0  0  0  0  0  0  0
   -8.5206   -0.0592    1.1153 H   0  0  0  0  0  0  0  0  0  0  0  0
   -8.0961   -2.4577    0.1984 H   0  0  0  0  0  0  0  0  0  0  0  0
  1  2  2  0
  2  3  1  0
  3  4  1  0
  4  5  1  0
  5  6  1  0
  6  7  1  0
  7  8  2  0
  7  9  1  0
  9 10  1  0
 10 11  1  0
 11 12  2  0
 12 13  1  0
 13 14  2  0
 14 15  1  0
 15 16  1  0
 15 17  2  0
  9 18  1  0
 18 19  2  0
  2 20  1  0
 20 21  1  0
 21 22  1  0
 22 23  2  0
 23 24  1  0
 24 25  1  0
 18  5  1  0
 25 21  2  0
 17 11  1  0
  3 26  1  0
  3 27  1  0
  4 28  1  0
  4 29  1  0
  5 30  1  1
  6 31  1  0
 10 32  1  0
 10 33  1  0
 12 34  1  0
 13 35  1  0
 14 36  1  0
 17 37  1  0
 20 38  1  0
 23 39  1  0
 24 40  1  0
M  END
$$$$
