
     RDKit          3D

 81 85  0  0  0  0  0  0  0  0999 V2000
   -5.9807    1.7026    0.5360 C   0  0  0  0  0  0  0  0  0  0  0  0
   -5.4369    0.3699    1.0879 C   0  0  0  0  0  0  0  0  0  0  0  0
   -6.0155    0.1861    2.5059 C   0  0  0  0  0  0  0  0  0  0  0  0
   -5.9040   -0.7971    0.1867 C   0  0  0  0  0  0  0  0  0  0  0  0
   -4.7565   -1.5852   -0.4539 C   0  0  0  0  0  0  0  0  0  0  0  0
   -3.6906   -0.6955   -1.1484 C   0  0  2  0  0  0  0  0  0  0  0  0
   -4.3251   -0.0741   -2.4010 C   0  0  0  0  0  0  0  0  0  0  0  0
   -5.3768   -0.4022   -2.9291 O   0  0  0  0  0  0  0  0  0  0  0  0
   -3.5782    0.8910   -2.9743 O   0  0  0  0  0  0  0  0  0  0  0  0
   -2.5446   -1.5915   -1.6712 C   0  0  0  0  0  0  0  0  0  0  0  0
   -1.5595   -1.9970   -0.5767 C   0  0  0  0  0  0  0  0  0  0  0  0
   -0.8240   -0.8039    0.1089 C   0  0  2  0  0  0  0  0  0  0  0  0
   -0.7593   -1.1545    1.6260 C   0  0  0  0  0  0  0  0  0  0  0  0
   -1.6555    0.4872   -0.0244 C   0  0  0  0  0  0  0  0  0  0  0  0
   -1.0620    1.6959   -0.0813 C   0  0  0  0  0  0  0  0  0  0  0  0
    0.4110    1.9617   -0.0538 C   0  0  0  0  0  0  0  0  0  0  0  0
    1.3010    0.7179    0.1590 C   0  0  2  0  0  0  0  0  0  0  0  0
    2.8546    0.9806   -0.0871 C   0  0  1  0  0  0  0  0  0  0  0  0
    3.1550    1.4247   -1.5419 C   0  0  0  0  0  0  0  0  0  0  0  0
    3.3187    2.1256    0.8629 C   0  0  0  0  0  0  0  0  0  0  0  0
    4.8332    2.2851    0.9583 C   0  0  0  0  0  0  0  0  0  0  0  0
    5.5374    0.9898    1.3475 C   0  0  2  0  0  0  0  0  0  0  0  0
    6.9388    1.2600    1.3554 O   0  0  0  0  0  0  0  0  0  0  0  0
    5.1885   -0.2174    0.4249 C   0  0  0  0  0  0  0  0  0  0  0  0
    5.8966   -0.1009   -0.9402 C   0  0  0  0  0  0  0  0  0  0  0  0
    5.7595   -1.4994    1.0943 C   0  0  0  0  0  0  0  0  0  0  0  0
    3.6197   -0.3313    0.3256 C   0  0  2  0  0  0  0  0  0  0  0  0
    3.1017   -1.5409   -0.4782 C   0  0  0  0  0  0  0  0  0  0  0  0
    1.6131   -1.7853   -0.2118 C   0  0  0  0  0  0  0  0  0  0  0  0
    0.6782   -0.5732   -0.5048 C   0  0  1  0  0  0  0  0  0  0  0  0
    0.5863   -0.4289   -2.0492 C   0  0  0  0  0  0  0  0  0  0  0  0
   -3.1837    0.4181   -0.1798 C   0  0  2  0  0  0  0  0  0  0  0  0
   -3.8949    0.4081    1.1915 C   0  0  0  0  0  0  0  0  0  0  0  0
   -5.6411    2.5514    1.1401 H   0  0  0  0  0  0  0  0  0  0  0  0
   -7.0772    1.7111    0.5425 H   0  0  0  0  0  0  0  0  0  0  0  0
   -5.6639    1.8792   -0.4968 H   0  0  0  0  0  0  0  0  0  0  0  0
   -5.7030    1.0002    3.1695 H   0  0  0  0  0  0  0  0  0  0  0  0
   -5.6778   -0.7563    2.9522 H   0  0  0  0  0  0  0  0  0  0  0  0
   -7.1117    0.1719    2.4882 H   0  0  0  0  0  0  0  0  0  0  0  0
   -6.5125   -1.5089    0.7616 H   0  0  0  0  0  0  0  0  0  0  0  0
   -6.5739   -0.4292   -0.6011 H   0  0  0  0  0  0  0  0  0  0  0  0
   -5.1846   -2.3029   -1.1664 H   0  0  0  0  0  0  0  0  0  0  0  0
   -4.2863   -2.1949    0.3282 H   0  0  0  0  0  0  0  0  0  0  0  0
   -4.0953    1.1441   -3.7686 H   0  0  0  0  0  0  0  0  0  0  0  0
   -2.9618   -2.4998   -2.1272 H   0  0  0  0  0  0  0  0  0  0  0  0
   -2.0083   -1.0902   -2.4839 H   0  0  0  0  0  0  0  0  0  0  0  0
   -0.8452   -2.7116   -0.9966 H   0  0  0  0  0  0  0  0  0  0  0  0
   -2.1103   -2.5828    0.1702 H   0  0  0  0  0  0  0  0  0  0  0  0
   -1.7531   -1.3192    2.0473 H   0  0  0  0  0  0  0  0  0  0  0  0
   -0.3025   -0.3670    2.2297 H   0  0  0  0  0  0  0  0  0  0  0  0
   -0.2238   -2.0885    1.8105 H   0  0  0  0  0  0  0  0  0  0  0  0
   -1.6745    2.5892   -0.1958 H   0  0  0  0  0  0  0  0  0  0  0  0
    0.6535    2.4731   -0.9887 H   0  0  0  0  0  0  0  0  0  0  0  0
    0.6013    2.6824    0.7506 H   0  0  0  0  0  0  0  0  0  0  0  0
    1.2528    0.5310    1.2408 H   0  0  0  0  0  0  0  0  0  0  0  0
    2.3142    1.9352   -2.0144 H   0  0  0  0  0  0  0  0  0  0  0  0
    3.4290    0.5922   -2.1920 H   0  0  0  0  0  0  0  0  0  0  0  0
    3.9837    2.1357   -1.6022 H   0  0  0  0  0  0  0  0  0  0  0  0
    2.8920    3.0829    0.5403 H   0  0  0  0  0  0  0  0  0  0  0  0
    2.9363    1.9403    1.8756 H   0  0  0  0  0  0  0  0  0  0  0  0
    5.0637    3.0536    1.7089 H   0  0  0  0  0  0  0  0  0  0  0  0
    5.2528    2.6829    0.0272 H   0  0  0  0  0  0  0  0  0  0  0  0
    5.2515    0.7520    2.3812 H   0  0  0  0  0  0  0  0  0  0  0  0
    7.3759    0.5594    1.8668 H   0  0  0  0  0  0  0  0  0  0  0  0
    6.9814   -0.2210   -0.8320 H   0  0  0  0  0  0  0  0  0  0  0  0
    5.5618   -0.8771   -1.6357 H   0  0  0  0  0  0  0  0  0  0  0  0
    5.7442    0.8696   -1.4146 H   0  0  0  0  0  0  0  0  0  0  0  0
    6.8326   -1.4090    1.2952 H   0  0  0  0  0  0  0  0  0  0  0  0
    5.2614   -1.7039    2.0488 H   0  0  0  0  0  0  0  0  0  0  0  0
    5.6439   -2.3805    0.4552 H   0  0  0  0  0  0  0  0  0  0  0  0
    3.3078   -0.5286    1.3654 H   0  0  0  0  0  0  0  0  0  0  0  0
    3.6249   -2.4537   -0.1780 H   0  0  0  0  0  0  0  0  0  0  0  0
    3.2855   -1.4317   -1.5494 H   0  0  0  0  0  0  0  0  0  0  0  0
    1.5427   -2.0784    0.8389 H   0  0  0  0  0  0  0  0  0  0  0  0
    1.3029   -2.6617   -0.7915 H   0  0  0  0  0  0  0  0  0  0  0  0
    1.5572   -0.2868   -2.5202 H   0  0  0  0  0  0  0  0  0  0  0  0
    0.1895   -1.3380   -2.5117 H   0  0  0  0  0  0  0  0  0  0  0  0
   -0.0455    0.4079   -2.3585 H   0  0  0  0  0  0  0  0  0  0  0  0
   -3.4776    1.3809   -0.6194 H   0  0  0  0  0  0  0  0  0  0  0  0
   -3.5864    1.2913    1.7688 H   0  0  0  0  0  0  0  0  0  0  0  0
   -3.5715   -0.4579    1.7769 H   0  0  0  0  0  0  0  0  0  0  0  0
  1  2  1  0
  2  3  1  0
  2  4  1  0
  4  5  1  0
  5  6  1  0
  6  7  1  6
  7  8  2  0
  7  9  1  0
  6 10  1  0
 10 11  1  0
 11 12  1  0
 12 13  1  1
 12 14  1  0
 14 15  2  0
 15 16  1  0
 16 17  1  0
 17 18  1  0
 18 19  1  6
 18 20  1  0
 20 21  1  0
 21 22  1  0
 22 23  1  0
 22 24  1  0
 24 25  1  0
 24 26  1  0
 24 27  1  0
 27 28  1  0
 28 29  1  0
 29 30  1  0
 30 31  1  6
 14 32  1  0
 32 33  1  0
 33  2  1  0
 32  6  1  0
 30 12  1  0
 30 17  1  0
 27 18  1  0
  1 34  1  0
  1 35  1  0
  1 36  1  0
  3 37  1  0
  3 38  1  0
  3 39  1  0
  4 40  1  0
  4 41  1  0
  5 42  1  0
  5 43  1  0
  9 44  1  0
 10 45  1  0
 10 46  1  0
 11 47  1  0
 11 48  1  0
 13 49  1  0
 13 50  1  0
 13 51  1  0
 15 52  1  0
 16 53  1  0
 16 54  1  0
 17 55  1  1
 19 56  1  0
 19 57  1  0
 19 58  1  0
 20 59  1  0
 20 60  1  0
 21 61  1  0
 21 62  1  0
 22 63  1  1
 23 64  1  0
 25 65  1  0
 25 66  1  0
 25 67  1  0
 26 68  1  0
 26 69  1  0
 26 70  1  0
 27 71  1  1
 28 72  1  0
 28 73  1  0
 29 74  1  0
 29 75  1  0
 31 76  1  0
 31 77  1  0
 31 78  1  0
 32 79  1  6
 33 80  1  0
 33 81  1  0
M  END
$$$$
