
     RDKit          3D

 53 56  0  0  0  0  0  0  0  0999 V2000
    5.9246    1.3739    2.5577 C   0  0  0  0  0  0  0  0  0  0  0  0
    5.7155    0.1258    1.9131 O   0  0  0  0  0  0  0  0  0  0  0  0
    4.7910    0.0843    0.9056 C   0  0  0  0  0  0  0  0  0  0  0  0
    4.0141    1.1594    0.4813 C   0  0  0  0  0  0  0  0  0  0  0  0
    3.1034    0.9859   -0.5615 C   0  0  0  0  0  0  0  0  0  0  0  0
    2.9938   -0.2622   -1.1688 C   0  0  0  0  0  0  0  0  0  0  0  0
    1.9959   -0.4820   -2.2810 C   0  0  0  0  0  0  0  0  0  0  0  0
    0.6870   -0.8198   -1.7631 N   0  0  0  0  0  0  0  0  0  0  0  0
   -0.2953    0.1197   -1.5873 C   0  0  0  0  0  0  0  0  0  0  0  0
   -0.1499    1.3016   -1.8877 O   0  0  0  0  0  0  0  0  0  0  0  0
   -1.5715   -0.3152   -0.9534 C   0  0  0  0  0  0  0  0  0  0  0  0
   -2.2120    0.6497   -0.1568 C   0  0  0  0  0  0  0  0  0  0  0  0
   -3.4235    0.3521    0.4576 C   0  0  0  0  0  0  0  0  0  0  0  0
   -4.1633    1.3126    1.2931 C   0  0  0  0  0  0  0  0  0  0  0  0
   -4.9937    0.8823    2.3293 C   0  0  0  0  0  0  0  0  0  0  0  0
   -5.6990    1.6951    3.1566 N   0  0  0  0  0  0  0  0  0  0  0  0
   -5.5931    3.0210    2.9364 C   0  0  0  0  0  0  0  0  0  0  0  0
   -4.8241    3.5777    1.9243 C   0  0  0  0  0  0  0  0  0  0  0  0
   -4.7350    5.0593    1.7387 C   0  0  0  0  0  0  0  0  0  0  0  0
   -4.0976    2.7031    1.1062 C   0  0  0  0  0  0  0  0  0  0  0  0
   -3.9941   -0.8674    0.3142 N   0  0  0  0  0  0  0  0  0  0  0  0
   -3.3704   -1.7804   -0.4696 C   0  0  0  0  0  0  0  0  0  0  0  0
   -2.1734   -1.5630   -1.1405 C   0  0  0  0  0  0  0  0  0  0  0  0
   -1.6278   -2.6211   -1.9774 C   0  0  0  0  0  0  0  0  0  0  0  0
   -0.5687   -3.3407   -1.6660 N   0  0  0  0  0  0  0  0  0  0  0  0
   -0.3099   -4.2452   -2.6796 C   0  0  0  0  0  0  0  0  0  0  0  0
   -1.1672   -4.1941   -3.7564 C   0  0  0  0  0  0  0  0  0  0  0  0
   -2.3482   -2.9801   -3.4973 S   0  0  0  0  0  0  0  0  0  0  0  0
    3.7264   -1.3296   -0.7694 N   0  0  0  0  0  0  0  0  0  0  0  0
    4.6029   -1.1376    0.2487 C   0  0  0  0  0  0  0  0  0  0  0  0
    5.3709   -2.2076    0.6750 O   0  0  0  0  0  0  0  0  0  0  0  0
    5.0828   -3.4196   -0.0092 C   0  0  0  0  0  0  0  0  0  0  0  0
    6.6967    1.2299    3.3182 H   0  0  0  0  0  0  0  0  0  0  0  0
    5.0159    1.7128    3.0663 H   0  0  0  0  0  0  0  0  0  0  0  0
    6.2888    2.1280    1.8516 H   0  0  0  0  0  0  0  0  0  0  0  0
    4.0857    2.1393    0.9397 H   0  0  0  0  0  0  0  0  0  0  0  0
    2.4812    1.8153   -0.8906 H   0  0  0  0  0  0  0  0  0  0  0  0
    2.3202   -1.3218   -2.9051 H   0  0  0  0  0  0  0  0  0  0  0  0
    1.9395    0.4031   -2.9234 H   0  0  0  0  0  0  0  0  0  0  0  0
    0.5835   -1.7578   -1.3814 H   0  0  0  0  0  0  0  0  0  0  0  0
   -1.7447    1.6209   -0.0167 H   0  0  0  0  0  0  0  0  0  0  0  0
   -5.1151   -0.1779    2.5415 H   0  0  0  0  0  0  0  0  0  0  0  0
   -6.1682    3.6416    3.6181 H   0  0  0  0  0  0  0  0  0  0  0  0
   -4.7454    5.3142    0.6737 H   0  0  0  0  0  0  0  0  0  0  0  0
   -5.5852    5.5690    2.2036 H   0  0  0  0  0  0  0  0  0  0  0  0
   -3.8125    5.4388    2.1885 H   0  0  0  0  0  0  0  0  0  0  0  0
   -3.4931    3.1222    0.3047 H   0  0  0  0  0  0  0  0  0  0  0  0
   -3.8932   -2.7325   -0.5425 H   0  0  0  0  0  0  0  0  0  0  0  0
    0.5305   -4.9232   -2.5825 H   0  0  0  0  0  0  0  0  0  0  0  0
   -1.1578   -4.7941   -4.6560 H   0  0  0  0  0  0  0  0  0  0  0  0
    5.3108   -3.3372   -1.0771 H   0  0  0  0  0  0  0  0  0  0  0  0
    5.7276   -4.1992    0.4074 H   0  0  0  0  0  0  0  0  0  0  0  0
    4.0442   -3.7295    0.1491 H   0  0  0  0  0  0  0  0  0  0  0  0
  1  2  1  0
  2  3  1  0
  3  4  2  0
  4  5  1  0
  5  6  2  0
  6  7  1  0
  7  8  1  0
  8  9  1  0
  9 10  2  0
  9 11  1  0
 11 12  2  0
 12 13  1  0
 13 14  1  0
 14 15  2  0
 15 16  1  0
 16 17  2  0
 17 18  1  0
 18 19  1  0
 18 20  2  0
 13 21  2  0
 21 22  1  0
 22 23  2  0
 23 24  1  0
 24 25  2  0
 25 26  1  0
 26 27  2  0
 27 28  1  0
  6 29  1  0
 29 30  2  0
 30 31  1  0
 31 32  1  0
 30  3  1  0
 23 11  1  0
 28 24  1  0
 20 14  1  0
  1 33  1  0
  1 34  1  0
  1 35  1  0
  4 36  1  0
  5 37  1  0
  7 38  1  0
  7 39  1  0
  8 40  1  0
 12 41  1  0
 15 42  1  0
 17 43  1  0
 19 44  1  0
 19 45  1  0
 19 46  1  0
 20 47  1  0
 22 48  1  0
 26 49  1  0
 27 50  1  0
 32 51  1  0
 32 52  1  0
 32 53  1  0
M  END
$$$$
