
     RDKit          3D

 50 53  0  0  0  0  0  0  0  0999 V2000
    6.7400    2.5404    1.9947 C   0  0  0  0  0  0  0  0  0  0  0  0
    6.5742    1.1679    1.4123 C   0  0  0  0  0  0  0  0  0  0  0  0
    5.3153    0.7272    1.0097 C   0  0  0  0  0  0  0  0  0  0  0  0
    5.1729   -0.5628    0.4812 C   0  0  0  0  0  0  0  0  0  0  0  0
    3.8671   -1.0702    0.0398 C   0  0  0  0  0  0  0  0  0  0  0  0
    3.3863   -2.0847    0.8015 N   0  0  0  0  0  0  0  0  0  0  0  0
    2.1742   -2.5915    0.4883 C   0  0  0  0  0  0  0  0  0  0  0  0
    1.4067   -2.1628   -0.5855 C   0  0  0  0  0  0  0  0  0  0  0  0
    0.0620   -2.7723   -0.8689 C   0  0  0  0  0  0  0  0  0  0  0  0
   -1.0645   -2.0615   -0.1338 C   0  0  0  0  0  0  0  0  0  0  0  0
   -1.0903   -2.0177    1.0936 O   0  0  0  0  0  0  0  0  0  0  0  0
   -2.0036   -1.5185   -0.9825 N   0  0  0  0  0  0  0  0  0  0  0  0
   -3.1522   -0.8012   -0.6526 C   0  0  0  0  0  0  0  0  0  0  0  0
   -3.5100   -0.4351    0.6333 C   0  0  0  0  0  0  0  0  0  0  0  0
   -4.7003    0.2752    0.8225 C   0  0  0  0  0  0  0  0  0  0  0  0
   -5.5258    0.6059   -0.2609 C   0  0  0  0  0  0  0  0  0  0  0  0
   -6.7925    1.3331   -0.0796 C   0  0  0  0  0  0  0  0  0  0  0  0
   -7.9008    1.1862   -0.9174 C   0  0  0  0  0  0  0  0  0  0  0  0
   -9.0699    1.8588   -0.7472 N   0  0  0  0  0  0  0  0  0  0  0  0
   -9.1021    2.6938    0.3121 C   0  0  0  0  0  0  0  0  0  0  0  0
   -8.0192    2.8485    1.1591 C   0  0  0  0  0  0  0  0  0  0  0  0
   -6.8544    2.1767    0.9855 N   0  0  0  0  0  0  0  0  0  0  0  0
   -5.0539    0.2055   -1.5086 C   0  0  0  0  0  0  0  0  0  0  0  0
   -3.9027   -0.4828   -1.7279 N   0  0  0  0  0  0  0  0  0  0  0  0
    1.9190   -1.1237   -1.3648 C   0  0  0  0  0  0  0  0  0  0  0  0
    3.1707   -0.5654   -1.0677 C   0  0  0  0  0  0  0  0  0  0  0  0
    3.7074    0.5493   -1.9181 C   0  0  0  0  0  0  0  0  0  0  0  0
    6.3117   -1.3709    0.4086 C   0  0  0  0  0  0  0  0  0  0  0  0
    7.5245   -0.8549    0.8330 C   0  0  0  0  0  0  0  0  0  0  0  0
    7.6810    0.3949    1.3213 N   0  0  0  0  0  0  0  0  0  0  0  0
    7.7983    2.7651    2.1708 H   0  0  0  0  0  0  0  0  0  0  0  0
    6.2114    2.6085    2.9501 H   0  0  0  0  0  0  0  0  0  0  0  0
    6.3452    3.2969    1.3081 H   0  0  0  0  0  0  0  0  0  0  0  0
    4.4497    1.3745    1.1200 H   0  0  0  0  0  0  0  0  0  0  0  0
    1.8276   -3.3776    1.1548 H   0  0  0  0  0  0  0  0  0  0  0  0
   -0.1150   -2.7799   -1.9507 H   0  0  0  0  0  0  0  0  0  0  0  0
    0.0473   -3.8252   -0.5606 H   0  0  0  0  0  0  0  0  0  0  0  0
   -1.9267   -1.6610   -1.9786 H   0  0  0  0  0  0  0  0  0  0  0  0
   -2.9012   -0.6760    1.4987 H   0  0  0  0  0  0  0  0  0  0  0  0
   -4.9831    0.5644    1.8336 H   0  0  0  0  0  0  0  0  0  0  0  0
   -7.8991    0.5023   -1.7590 H   0  0  0  0  0  0  0  0  0  0  0  0
  -10.0288    3.2377    0.4646 H   0  0  0  0  0  0  0  0  0  0  0  0
   -8.0569    3.5207    2.0085 H   0  0  0  0  0  0  0  0  0  0  0  0
   -5.5955    0.4405   -2.4235 H   0  0  0  0  0  0  0  0  0  0  0  0
    1.3454   -0.7441   -2.2081 H   0  0  0  0  0  0  0  0  0  0  0  0
    4.7569    0.3724   -2.1752 H   0  0  0  0  0  0  0  0  0  0  0  0
    3.1581    0.6268   -2.8627 H   0  0  0  0  0  0  0  0  0  0  0  0
    3.6142    1.5069   -1.3955 H   0  0  0  0  0  0  0  0  0  0  0  0
    6.2496   -2.3882    0.0338 H   0  0  0  0  0  0  0  0  0  0  0  0
    8.4316   -1.4525    0.7920 H   0  0  0  0  0  0  0  0  0  0  0  0
  1  2  1  0
  2  3  2  0
  3  4  1  0
  4  5  1  0
  5  6  2  0
  6  7  1  0
  7  8  2  0
  8  9  1  0
  9 10  1  0
 10 11  2  0
 10 12  1  0
 12 13  1  0
 13 14  2  0
 14 15  1  0
 15 16  2  0
 16 17  1  0
 17 18  2  0
 18 19  1  0
 19 20  2  0
 20 21  1  0
 21 22  2  0
 16 23  1  0
 23 24  2  0
  8 25  1  0
 25 26  2  0
 26 27  1  0
  4 28  2  0
 28 29  1  0
 29 30  2  0
 30  2  1  0
 26  5  1  0
 24 13  1  0
 22 17  1  0
  1 31  1  0
  1 32  1  0
  1 33  1  0
  3 34  1  0
  7 35  1  0
  9 36  1  0
  9 37  1  0
 12 38  1  0
 14 39  1  0
 15 40  1  0
 18 41  1  0
 20 42  1  0
 21 43  1  0
 23 44  1  0
 25 45  1  0
 27 46  1  0
 27 47  1  0
 27 48  1  0
 28 49  1  0
 29 50  1  0
M  END
$$$$
