
     RDKit          3D

 61 63  0  0  0  0  0  0  0  0999 V2000
   -2.4534    3.6548    1.7694 C   0  0  0  0  0  0  0  0  0  0  0  0
   -3.1064    3.5660    0.3987 C   0  0  0  0  0  0  0  0  0  0  0  0
   -4.1730    2.4700    0.2891 C   0  0  0  0  0  0  0  0  0  0  0  0
   -3.6632    1.0423    0.5167 C   0  0  0  0  0  0  0  0  0  0  0  0
   -2.7568    0.5287   -0.5980 C   0  0  0  0  0  0  0  0  0  0  0  0
   -2.5788    1.1963   -1.6182 O   0  0  0  0  0  0  0  0  0  0  0  0
   -2.1309   -0.7051   -0.4117 N   0  0  0  0  0  0  0  0  0  0  0  0
   -1.1252   -1.1018   -1.4097 C   0  0  0  0  0  0  0  0  0  0  0  0
    0.2970   -0.7846   -0.9905 C   0  0  0  0  0  0  0  0  0  0  0  0
    1.3021   -1.7521   -1.1369 C   0  0  0  0  0  0  0  0  0  0  0  0
    2.6271   -1.4677   -0.7912 C   0  0  0  0  0  0  0  0  0  0  0  0
    2.9882   -0.2056   -0.2974 C   0  0  0  0  0  0  0  0  0  0  0  0
    4.3848    0.0913    0.0717 C   0  0  0  0  0  0  0  0  0  0  0  0
    4.9491   -0.5942    1.1696 C   0  0  0  0  0  0  0  0  0  0  0  0
    6.2480   -0.3270    1.6072 C   0  0  0  0  0  0  0  0  0  0  0  0
    7.0119    0.6384    0.9613 C   0  0  0  0  0  0  0  0  0  0  0  0
    6.4809    1.3267   -0.1307 C   0  0  0  0  0  0  0  0  0  0  0  0
    5.1790    1.0553   -0.5940 C   0  0  0  0  0  0  0  0  0  0  0  0
    4.7134    1.7880   -1.7632 C   0  0  0  0  0  0  0  0  0  0  0  0
    4.8684    3.1509   -1.8895 N   0  0  0  0  0  0  0  0  0  0  0  0
    4.3540    3.4873   -3.0650 N   0  0  0  0  0  0  0  0  0  0  0  0
    3.9276    2.3313   -3.5861 N   0  0  0  0  0  0  0  0  0  0  0  0
    4.1449    1.2342   -2.8484 N   0  0  0  0  0  0  0  0  0  0  0  0
    1.9817    0.7621   -0.1566 C   0  0  0  0  0  0  0  0  0  0  0  0
    0.6578    0.4812   -0.5097 C   0  0  0  0  0  0  0  0  0  0  0  0
   -2.4405   -1.6380    0.7079 C   0  0  2  0  0  0  0  0  0  0  0  0
   -1.2702   -2.5334    1.1564 C   0  0  0  0  0  0  0  0  0  0  0  0
   -0.7870   -3.4806    0.5567 O   0  0  0  0  0  0  0  0  0  0  0  0
   -0.7471   -2.1456    2.3394 O   0  0  0  0  0  0  0  0  0  0  0  0
   -3.7314   -2.4700    0.4390 C   0  0  0  0  0  0  0  0  0  0  0  0
   -4.1587   -3.2562    1.6845 C   0  0  0  0  0  0  0  0  0  0  0  0
   -3.6533   -3.4086   -0.7682 C   0  0  0  0  0  0  0  0  0  0  0  0
   -1.7943    4.5287    1.8151 H   0  0  0  0  0  0  0  0  0  0  0  0
   -1.8424    2.7722    1.9817 H   0  0  0  0  0  0  0  0  0  0  0  0
   -3.2054    3.7559    2.5583 H   0  0  0  0  0  0  0  0  0  0  0  0
   -3.5832    4.5287    0.1808 H   0  0  0  0  0  0  0  0  0  0  0  0
   -2.3300    3.4272   -0.3596 H   0  0  0  0  0  0  0  0  0  0  0  0
   -4.9605    2.6766    1.0244 H   0  0  0  0  0  0  0  0  0  0  0  0
   -4.6452    2.5389   -0.6989 H   0  0  0  0  0  0  0  0  0  0  0  0
   -4.5360    0.3847    0.5706 H   0  0  0  0  0  0  0  0  0  0  0  0
   -3.1373    0.9947    1.4736 H   0  0  0  0  0  0  0  0  0  0  0  0
   -1.3088   -0.5945   -2.3641 H   0  0  0  0  0  0  0  0  0  0  0  0
   -1.2426   -2.1704   -1.6155 H   0  0  0  0  0  0  0  0  0  0  0  0
    1.0607   -2.7427   -1.5219 H   0  0  0  0  0  0  0  0  0  0  0  0
    3.3849   -2.2378   -0.9272 H   0  0  0  0  0  0  0  0  0  0  0  0
    4.3600   -1.3396    1.7036 H   0  0  0  0  0  0  0  0  0  0  0  0
    6.6572   -0.8696    2.4562 H   0  0  0  0  0  0  0  0  0  0  0  0
    8.0217    0.8537    1.3009 H   0  0  0  0  0  0  0  0  0  0  0  0
    7.0943    2.0737   -0.6343 H   0  0  0  0  0  0  0  0  0  0  0  0
    3.4731    2.2907   -4.4932 H   0  0  0  0  0  0  0  0  0  0  0  0
    2.2258    1.7545    0.2189 H   0  0  0  0  0  0  0  0  0  0  0  0
   -0.0848    1.2704   -0.4156 H   0  0  0  0  0  0  0  0  0  0  0  0
   -2.6681   -1.0160    1.5805 H   0  0  0  0  0  0  0  0  0  0  0  0
    0.0398   -2.7200    2.4500 H   0  0  0  0  0  0  0  0  0  0  0  0
   -4.5448   -1.7681    0.2207 H   0  0  0  0  0  0  0  0  0  0  0  0
   -3.4387   -4.0411    1.9363 H   0  0  0  0  0  0  0  0  0  0  0  0
   -5.1298   -3.7370    1.5220 H   0  0  0  0  0  0  0  0  0  0  0  0
   -4.2594   -2.5918    2.5495 H   0  0  0  0  0  0  0  0  0  0  0  0
   -2.8852   -4.1774   -0.6463 H   0  0  0  0  0  0  0  0  0  0  0  0
   -4.6097   -3.9246   -0.9106 H   0  0  0  0  0  0  0  0  0  0  0  0
   -3.4511   -2.8544   -1.6898 H   0  0  0  0  0  0  0  0  0  0  0  0
  1  2  1  0
  2  3  1  0
  3  4  1  0
  4  5  1  0
  5  6  2  0
  5  7  1  0
  7  8  1  0
  8  9  1  0
  9 10  2  0
 10 11  1  0
 11 12  2  0
 12 13  1  0
 13 14  2  0
 14 15  1  0
 15 16  2  0
 16 17  1  0
 17 18  2  0
 18 19  1  0
 19 20  1  0
 20 21  2  0
 21 22  1  0
 22 23  1  0
 12 24  1  0
 24 25  2  0
  7 26  1  0
 26 27  1  0
 27 28  2  0
 27 29  1  0
 26 30  1  0
 30 31  1  0
 30 32  1  0
 25  9  1  0
 18 13  1  0
 23 19  2  0
  1 33  1  0
  1 34  1  0
  1 35  1  0
  2 36  1  0
  2 37  1  0
  3 38  1  0
  3 39  1  0
  4 40  1  0
  4 41  1  0
  8 42  1  0
  8 43  1  0
 10 44  1  0
 11 45  1  0
 14 46  1  0
 15 47  1  0
 16 48  1  0
 17 49  1  0
 22 50  1  0
 24 51  1  0
 25 52  1  0
 26 53  1  1
 29 54  1  0
 30 55  1  0
 31 56  1  0
 31 57  1  0
 31 58  1  0
 32 59  1  0
 32 60  1  0
 32 61  1  0
M  END
$$$$
