
     RDKit          3D

 57 60  0  0  0  0  0  0  0  0999 V2000
   -7.9213    2.1200   -2.2207 C   0  0  0  0  0  0  0  0  0  0  0  0
   -7.6206    1.3574   -1.0555 O   0  0  0  0  0  0  0  0  0  0  0  0
   -7.3686   -0.0125   -1.3650 C   0  0  0  0  0  0  0  0  0  0  0  0
   -7.1457   -0.8020   -0.0684 C   0  0  0  0  0  0  0  0  0  0  0  0
   -5.8877   -0.4545    0.5759 N   0  0  0  0  0  0  0  0  0  0  0  0
   -5.8232    0.0859    1.8421 C   0  0  0  0  0  0  0  0  0  0  0  0
   -6.8118    0.2754    2.5429 O   0  0  0  0  0  0  0  0  0  0  0  0
   -4.4838    0.3948    2.3247 C   0  0  0  0  0  0  0  0  0  0  0  0
   -4.1624    0.9642    3.6005 C   0  0  0  0  0  0  0  0  0  0  0  0
   -2.8412    1.1305    3.8030 N   0  0  0  0  0  0  0  0  0  0  0  0
   -2.3369    0.6695    2.6683 N   0  0  0  0  0  0  0  0  0  0  0  0
   -3.2395    0.2216    1.7558 C   0  0  0  0  0  0  0  0  0  0  0  0
   -2.5407   -0.2789    0.5587 C   0  0  0  0  0  0  0  0  0  0  0  0
   -1.0790    0.2393    0.7698 C   0  0  2  0  0  0  0  0  0  0  0  0
   -0.0787   -0.6956    0.2914 N   0  0  0  0  0  0  0  0  0  0  0  0
    1.2553   -0.3594    0.1848 C   0  0  0  0  0  0  0  0  0  0  0  0
    1.6862    0.7437    0.5065 O   0  0  0  0  0  0  0  0  0  0  0  0
    2.1032   -1.4329   -0.3450 C   0  0  0  0  0  0  0  0  0  0  0  0
    1.5847   -2.6567   -0.5667 N   0  0  0  0  0  0  0  0  0  0  0  0
    2.6319   -3.4306   -1.0246 O   0  0  0  0  0  0  0  0  0  0  0  0
    3.7645   -2.6824   -1.0881 C   0  0  0  0  0  0  0  0  0  0  0  0
    4.9819   -3.3799   -1.5452 C   0  0  0  0  0  0  0  0  0  0  0  0
    3.4922   -1.3946   -0.6751 C   0  0  0  0  0  0  0  0  0  0  0  0
    4.4269   -0.2390   -0.5464 C   0  0  0  0  0  0  0  0  0  0  0  0
    5.4644   -0.2971   -1.5488 O   0  0  0  0  0  0  0  0  0  0  0  0
    6.5164    0.4923   -1.1705 C   0  0  0  0  0  0  0  0  0  0  0  0
    6.5256    1.8479   -1.4950 C   0  0  0  0  0  0  0  0  0  0  0  0
    7.6231    2.6311   -1.1352 C   0  0  0  0  0  0  0  0  0  0  0  0
    8.7057    2.0515   -0.4665 C   0  0  0  0  0  0  0  0  0  0  0  0
    8.6937    0.6872   -0.1610 C   0  0  0  0  0  0  0  0  0  0  0  0
    7.6024   -0.0984   -0.5226 C   0  0  0  0  0  0  0  0  0  0  0  0
   -0.9456    0.5804    2.2746 C   0  0  0  0  0  0  0  0  0  0  0  0
   -7.0794    2.0988   -2.9238 H   0  0  0  0  0  0  0  0  0  0  0  0
   -8.0997    3.1575   -1.9207 H   0  0  0  0  0  0  0  0  0  0  0  0
   -8.8295    1.7381   -2.7037 H   0  0  0  0  0  0  0  0  0  0  0  0
   -6.4869   -0.0807   -2.0142 H   0  0  0  0  0  0  0  0  0  0  0  0
   -8.2369   -0.4314   -1.8932 H   0  0  0  0  0  0  0  0  0  0  0  0
   -7.9797   -0.6349    0.6185 H   0  0  0  0  0  0  0  0  0  0  0  0
   -7.0926   -1.8736   -0.2936 H   0  0  0  0  0  0  0  0  0  0  0  0
   -5.0316   -0.5863    0.0603 H   0  0  0  0  0  0  0  0  0  0  0  0
   -4.8552    1.2563    4.3802 H   0  0  0  0  0  0  0  0  0  0  0  0
   -2.9556    0.1144   -0.3741 H   0  0  0  0  0  0  0  0  0  0  0  0
   -2.5792   -1.3752    0.5343 H   0  0  0  0  0  0  0  0  0  0  0  0
   -0.9538    1.1667    0.1962 H   0  0  0  0  0  0  0  0  0  0  0  0
   -0.3250   -1.6510    0.0385 H   0  0  0  0  0  0  0  0  0  0  0  0
    5.3812   -2.9114   -2.4510 H   0  0  0  0  0  0  0  0  0  0  0  0
    4.7778   -4.4310   -1.7726 H   0  0  0  0  0  0  0  0  0  0  0  0
    5.7502   -3.3470   -0.7689 H   0  0  0  0  0  0  0  0  0  0  0  0
    4.8550   -0.2636    0.4734 H   0  0  0  0  0  0  0  0  0  0  0  0
    3.8846    0.7150   -0.6765 H   0  0  0  0  0  0  0  0  0  0  0  0
    5.6887    2.2897   -2.0316 H   0  0  0  0  0  0  0  0  0  0  0  0
    7.6401    3.6934   -1.3814 H   0  0  0  0  0  0  0  0  0  0  0  0
    9.5596    2.6645   -0.1868 H   0  0  0  0  0  0  0  0  0  0  0  0
    9.5426    0.2401    0.3535 H   0  0  0  0  0  0  0  0  0  0  0  0
    7.5930   -1.1604   -0.2984 H   0  0  0  0  0  0  0  0  0  0  0  0
   -0.4656    1.5461    2.4415 H   0  0  0  0  0  0  0  0  0  0  0  0
   -0.4738   -0.2122    2.8683 H   0  0  0  0  0  0  0  0  0  0  0  0
  1  2  1  0
  2  3  1  0
  3  4  1  0
  4  5  1  0
  5  6  1  0
  6  7  2  0
  6  8  1  0
  8  9  1  0
  9 10  2  0
 10 11  1  0
 11 12  1  0
 12 13  1  0
 13 14  1  0
 14 15  1  0
 15 16  1  0
 16 17  2  0
 16 18  1  0
 18 19  2  0
 19 20  1  0
 20 21  1  0
 21 22  1  0
 21 23  2  0
 23 24  1  0
 24 25  1  0
 25 26  1  0
 26 27  2  0
 27 28  1  0
 28 29  2  0
 29 30  1  0
 30 31  2  0
 14 32  1  0
 12  8  2  0
 23 18  1  0
 31 26  1  0
 32 11  1  0
  1 33  1  0
  1 34  1  0
  1 35  1  0
  3 36  1  0
  3 37  1  0
  4 38  1  0
  4 39  1  0
  5 40  1  0
  9 41  1  0
 13 42  1  0
 13 43  1  0
 14 44  1  6
 15 45  1  0
 22 46  1  0
 22 47  1  0
 22 48  1  0
 24 49  1  0
 24 50  1  0
 27 51  1  0
 28 52  1  0
 29 53  1  0
 30 54  1  0
 31 55  1  0
 32 56  1  0
 32 57  1  0
M  END
$$$$
