
     RDKit          3D

 57 60  0  0  0  0  0  0  0  0999 V2000
    8.8145   -2.3093   -1.3268 C   0  0  0  0  0  0  0  0  0  0  0  0
    7.7108   -3.0752   -0.6171 C   0  0  0  0  0  0  0  0  0  0  0  0
    7.1333   -2.2858    0.4213 O   0  0  0  0  0  0  0  0  0  0  0  0
    6.0993   -1.4464    0.1215 C   0  0  0  0  0  0  0  0  0  0  0  0
    5.5785   -0.7552    1.2166 C   0  0  0  0  0  0  0  0  0  0  0  0
    4.5169    0.1453    1.0657 C   0  0  0  0  0  0  0  0  0  0  0  0
    3.9579    0.3683   -0.1906 C   0  0  0  0  0  0  0  0  0  0  0  0
    2.8879    1.2543   -0.4372 N   0  0  0  0  0  0  0  0  0  0  0  0
    2.2366    2.0627    0.4793 C   0  0  0  0  0  0  0  0  0  0  0  0
    2.4985    2.1761    1.6709 O   0  0  0  0  0  0  0  0  0  0  0  0
    1.1379    2.8821   -0.1741 C   0  0  0  0  0  0  0  0  0  0  0  0
    0.2394    3.5675    0.8499 C   0  0  0  0  0  0  0  0  0  0  0  0
   -0.7367    2.6650    1.4324 N   0  0  0  0  0  0  0  0  0  0  0  0
   -0.6001    2.0169    2.6284 C   0  0  0  0  0  0  0  0  0  0  0  0
   -1.6581    1.2902    2.9087 N   0  0  0  0  0  0  0  0  0  0  0  0
   -2.5167    1.4787    1.8566 C   0  0  0  0  0  0  0  0  0  0  0  0
   -3.7937    0.9416    1.6528 C   0  0  0  0  0  0  0  0  0  0  0  0
   -4.4646    1.2784    0.4705 C   0  0  0  0  0  0  0  0  0  0  0  0
   -6.0879    0.6243    0.1775 S   0  0  0  0  0  6  0  0  0  0  0  0
   -6.8445    1.6304   -0.5388 O   0  0  0  0  0  0  0  0  0  0  0  0
   -6.5902    0.0505    1.4083 O   0  0  0  0  0  0  0  0  0  0  0  0
   -5.7749   -0.6524   -0.8989 N   0  0  0  0  0  0  0  0  0  0  0  0
   -4.9021   -1.7515   -0.4098 C   0  0  0  0  0  0  0  0  0  0  0  0
   -5.3445   -2.9612   -1.2176 C   0  0  0  0  0  0  0  0  0  0  0  0
   -6.8439   -2.7640   -1.2893 C   0  0  0  0  0  0  0  0  0  0  0  0
   -6.9866   -1.2646   -1.5146 C   0  0  0  0  0  0  0  0  0  0  0  0
   -3.9017    2.1451   -0.4742 C   0  0  0  0  0  0  0  0  0  0  0  0
   -2.6306    2.6937   -0.2736 C   0  0  0  0  0  0  0  0  0  0  0  0
   -1.9637    2.3349    0.9048 C   0  0  0  0  0  0  0  0  0  0  0  0
    4.4805   -0.3261   -1.2888 C   0  0  0  0  0  0  0  0  0  0  0  0
    5.5455   -1.2249   -1.1358 C   0  0  0  0  0  0  0  0  0  0  0  0
    9.3034   -2.9406   -2.0743 H   0  0  0  0  0  0  0  0  0  0  0  0
    8.4256   -1.4159   -1.8247 H   0  0  0  0  0  0  0  0  0  0  0  0
    9.5668   -1.9691   -0.6067 H   0  0  0  0  0  0  0  0  0  0  0  0
    8.1569   -3.9494   -0.1287 H   0  0  0  0  0  0  0  0  0  0  0  0
    6.9618   -3.4706   -1.3118 H   0  0  0  0  0  0  0  0  0  0  0  0
    6.0018   -0.9170    2.2056 H   0  0  0  0  0  0  0  0  0  0  0  0
    4.1535    0.6482    1.9559 H   0  0  0  0  0  0  0  0  0  0  0  0
    2.5694    1.2977   -1.3966 H   0  0  0  0  0  0  0  0  0  0  0  0
    0.5520    2.2406   -0.8424 H   0  0  0  0  0  0  0  0  0  0  0  0
    1.6327    3.6480   -0.7831 H   0  0  0  0  0  0  0  0  0  0  0  0
   -0.3238    4.3750    0.3678 H   0  0  0  0  0  0  0  0  0  0  0  0
    0.8080    4.0232    1.6688 H   0  0  0  0  0  0  0  0  0  0  0  0
    0.2850    2.1059    3.2475 H   0  0  0  0  0  0  0  0  0  0  0  0
   -4.2295    0.2857    2.3987 H   0  0  0  0  0  0  0  0  0  0  0  0
   -3.8488   -1.5197   -0.5896 H   0  0  0  0  0  0  0  0  0  0  0  0
   -5.0555   -1.9375    0.6588 H   0  0  0  0  0  0  0  0  0  0  0  0
   -4.9092   -2.9299   -2.2234 H   0  0  0  0  0  0  0  0  0  0  0  0
   -5.0619   -3.9060   -0.7461 H   0  0  0  0  0  0  0  0  0  0  0  0
   -7.3144   -3.3527   -2.0819 H   0  0  0  0  0  0  0  0  0  0  0  0
   -7.3047   -3.0466   -0.3354 H   0  0  0  0  0  0  0  0  0  0  0  0
   -7.9227   -0.8958   -1.0854 H   0  0  0  0  0  0  0  0  0  0  0  0
   -6.9792   -1.0281   -2.5840 H   0  0  0  0  0  0  0  0  0  0  0  0
   -4.4575    2.4010   -1.3758 H   0  0  0  0  0  0  0  0  0  0  0  0
   -2.1950    3.3699   -1.0013 H   0  0  0  0  0  0  0  0  0  0  0  0
    4.0724   -0.1789   -2.2851 H   0  0  0  0  0  0  0  0  0  0  0  0
    5.9160   -1.7266   -2.0227 H   0  0  0  0  0  0  0  0  0  0  0  0
  1  2  1  0
  2  3  1  0
  3  4  1  0
  4  5  2  0
  5  6  1  0
  6  7  2  0
  7  8  1  0
  8  9  1  0
  9 10  2  0
  9 11  1  0
 11 12  1  0
 12 13  1  0
 13 14  1  0
 14 15  2  0
 15 16  1  0
 16 17  2  0
 17 18  1  0
 18 19  1  0
 19 20  2  0
 19 21  2  0
 19 22  1  0
 22 23  1  0
 23 24  1  0
 24 25  1  0
 25 26  1  0
 18 27  2  0
 27 28  1  0
 28 29  2  0
  7 30  1  0
 30 31  2  0
 31  4  1  0
 29 13  1  0
 29 16  1  0
 26 22  1  0
  1 32  1  0
  1 33  1  0
  1 34  1  0
  2 35  1  0
  2 36  1  0
  5 37  1  0
  6 38  1  0
  8 39  1  0
 11 40  1  0
 11 41  1  0
 12 42  1  0
 12 43  1  0
 14 44  1  0
 17 45  1  0
 23 46  1  0
 23 47  1  0
 24 48  1  0
 24 49  1  0
 25 50  1  0
 25 51  1  0
 26 52  1  0
 26 53  1  0
 27 54  1  0
 28 55  1  0
 30 56  1  0
 31 57  1  0
M  END
$$$$
