
     RDKit          3D

 44 46  0  0  0  0  0  0  0  0999 V2000
   -0.2330    1.3354   -3.3424 O   0  0  0  0  0  0  0  0  0  0  0  0
    0.1177    0.7388   -2.3307 C   0  0  0  0  0  0  0  0  0  0  0  0
   -0.7397   -0.0166   -1.5598 N   0  0  0  0  0  0  0  0  0  0  0  0
   -2.1555   -0.0898   -1.8551 C   0  0  0  0  0  0  0  0  0  0  0  0
   -2.9276    0.9402   -1.0828 C   0  0  0  0  0  0  0  0  0  0  0  0
   -3.1125    2.2257   -1.6066 C   0  0  0  0  0  0  0  0  0  0  0  0
   -3.8177    3.1771   -0.8782 C   0  0  0  0  0  0  0  0  0  0  0  0
   -4.3081    2.8151    0.3633 C   0  0  0  0  0  0  0  0  0  0  0  0
   -4.1369    1.5928    0.9112 N   0  0  0  0  0  0  0  0  0  0  0  0
   -3.4597    0.6836    0.1780 C   0  0  0  0  0  0  0  0  0  0  0  0
   -3.2413   -0.5649    0.7224 O   0  0  0  0  0  0  0  0  0  0  0  0
   -4.0378   -0.8437    1.8852 C   0  0  0  0  0  0  0  0  0  0  0  0
   -5.4590   -1.2796    1.5557 C   0  0  0  0  0  0  0  0  0  0  0  0
   -6.0979   -1.6749    2.6853 F   0  0  0  0  0  0  0  0  0  0  0  0
   -5.4541   -2.3436    0.7160 F   0  0  0  0  0  0  0  0  0  0  0  0
   -6.2102   -0.3162    0.9883 F   0  0  0  0  0  0  0  0  0  0  0  0
    1.5223    0.8373   -1.8672 C   0  0  0  0  0  0  0  0  0  0  0  0
    2.2949    1.9019   -2.3130 C   0  0  0  0  0  0  0  0  0  0  0  0
    3.5883    2.0965   -1.9587 N   0  0  0  0  0  0  0  0  0  0  0  0
    4.1358    1.1740   -1.1323 C   0  0  0  0  0  0  0  0  0  0  0  0
    3.4653    0.0544   -0.6350 C   0  0  0  0  0  0  0  0  0  0  0  0
    4.1294   -0.9161    0.2447 C   0  0  0  0  0  0  0  0  0  0  0  0
    5.3161   -1.5569   -0.1514 C   0  0  0  0  0  0  0  0  0  0  0  0
    5.9471   -2.4843    0.6842 C   0  0  0  0  0  0  0  0  0  0  0  0
    5.3984   -2.7799    1.9286 C   0  0  0  0  0  0  0  0  0  0  0  0
    6.1716   -3.9210    2.9567 Cl  0  0  0  0  0  0  0  0  0  0  0  0
    4.2253   -2.1567    2.3444 C   0  0  0  0  0  0  0  0  0  0  0  0
    3.5949   -1.2314    1.5062 C   0  0  0  0  0  0  0  0  0  0  0  0
    2.1259   -0.1026   -1.0246 C   0  0  0  0  0  0  0  0  0  0  0  0
   -0.4628   -0.3017   -0.6317 H   0  0  0  0  0  0  0  0  0  0  0  0
   -2.3234    0.0385   -2.9310 H   0  0  0  0  0  0  0  0  0  0  0  0
   -2.4906   -1.1027   -1.6072 H   0  0  0  0  0  0  0  0  0  0  0  0
   -2.7028    2.4854   -2.5816 H   0  0  0  0  0  0  0  0  0  0  0  0
   -3.9766    4.1755   -1.2699 H   0  0  0  0  0  0  0  0  0  0  0  0
   -4.8662    3.5221    0.9707 H   0  0  0  0  0  0  0  0  0  0  0  0
   -4.0176   -0.0244    2.6141 H   0  0  0  0  0  0  0  0  0  0  0  0
   -3.5416   -1.6845    2.3845 H   0  0  0  0  0  0  0  0  0  0  0  0
    1.8869    2.6548   -2.9838 H   0  0  0  0  0  0  0  0  0  0  0  0
    5.1724    1.3712   -0.8673 H   0  0  0  0  0  0  0  0  0  0  0  0
    5.7558   -1.3483   -1.1258 H   0  0  0  0  0  0  0  0  0  0  0  0
    6.8617   -2.9712    0.3554 H   0  0  0  0  0  0  0  0  0  0  0  0
    3.7977   -2.3819    3.3181 H   0  0  0  0  0  0  0  0  0  0  0  0
    2.6855   -0.7453    1.8553 H   0  0  0  0  0  0  0  0  0  0  0  0
    1.5795   -0.9820   -0.6957 H   0  0  0  0  0  0  0  0  0  0  0  0
  1  2  2  0
  2  3  1  0
  3  4  1  0
  4  5  1  0
  5  6  2  0
  6  7  1  0
  7  8  2  0
  8  9  1  0
  9 10  2  0
 10 11  1  0
 11 12  1  0
 12 13  1  0
 13 14  1  0
 13 15  1  0
 13 16  1  0
  2 17  1  0
 17 18  2  0
 18 19  1  0
 19 20  2  0
 20 21  1  0
 21 22  1  0
 22 23  2  0
 23 24  1  0
 24 25  2  0
 25 26  1  0
 25 27  1  0
 27 28  2  0
 21 29  2  0
 10  5  1  0
 29 17  1  0
 28 22  1  0
  3 30  1  0
  4 31  1  0
  4 32  1  0
  6 33  1  0
  7 34  1  0
  8 35  1  0
 12 36  1  0
 12 37  1  0
 18 38  1  0
 20 39  1  0
 23 40  1  0
 24 41  1  0
 27 42  1  0
 28 43  1  0
 29 44  1  0
M  END
$$$$
