
     RDKit          3D

 51 54  0  0  0  0  0  0  0  0999 V2000
    3.9507    0.2785   -2.4337 O   0  0  0  0  0  0  0  0  0  0  0  0
    2.8255   -0.1212   -2.1222 C   0  0  0  0  0  0  0  0  0  0  0  0
    2.1893   -1.1935   -2.9690 C   0  0  0  0  0  0  0  0  0  0  0  0
    0.9234   -0.7319   -3.6752 C   0  0  0  0  0  0  0  0  0  0  0  0
   -0.2174   -0.3005   -2.7544 C   0  0  0  0  0  0  0  0  0  0  0  0
   -0.1044   -0.9209   -1.3612 C   0  0  2  0  0  0  0  0  0  0  0  0
   -1.4294   -0.8748   -0.5906 C   0  0  0  0  0  0  0  0  0  0  0  0
   -1.3842    0.3328    0.2591 N   0  0  0  0  0  0  0  0  0  0  0  0
   -2.6613    1.4406    0.1181 S   0  0  0  0  0  6  0  0  0  0  0  0
   -2.4350    2.5035    1.0728 O   0  0  0  0  0  0  0  0  0  0  0  0
   -2.8373    1.7163   -1.2919 O   0  0  0  0  0  0  0  0  0  0  0  0
   -4.0500    0.4940    0.6912 C   0  0  0  0  0  0  0  0  0  0  0  0
   -5.0887    0.1665   -0.1874 C   0  0  0  0  0  0  0  0  0  0  0  0
   -6.1715   -0.5771    0.2837 C   0  0  0  0  0  0  0  0  0  0  0  0
   -6.2050   -0.9764    1.6175 C   0  0  0  0  0  0  0  0  0  0  0  0
   -7.2459   -1.6911    2.0636 F   0  0  0  0  0  0  0  0  0  0  0  0
   -5.1767   -0.6450    2.4957 C   0  0  0  0  0  0  0  0  0  0  0  0
   -4.0903    0.0979    2.0339 C   0  0  0  0  0  0  0  0  0  0  0  0
   -0.0347    0.9316    0.1428 C   0  0  0  0  0  0  0  0  0  0  0  0
    0.8778   -0.1700   -0.4454 C   0  0  2  0  0  0  0  0  0  0  0  0
    2.1352    0.3770   -1.0224 N   0  0  0  0  0  0  0  0  0  0  0  0
    2.8996    1.3124   -0.1735 C   0  0  0  0  0  0  0  0  0  0  0  0
    3.4611    0.6588    1.0709 C   0  0  0  0  0  0  0  0  0  0  0  0
    3.0316    1.0557    2.3459 C   0  0  0  0  0  0  0  0  0  0  0  0
    3.5484    0.4459    3.4909 C   0  0  0  0  0  0  0  0  0  0  0  0
    4.5046   -0.5607    3.3755 C   0  0  0  0  0  0  0  0  0  0  0  0
    4.9499   -0.9550    2.1159 C   0  0  0  0  0  0  0  0  0  0  0  0
    4.4339   -0.3472    0.9704 C   0  0  0  0  0  0  0  0  0  0  0  0
    2.9190   -1.4803   -3.7379 H   0  0  0  0  0  0  0  0  0  0  0  0
    2.0460   -2.0945   -2.3652 H   0  0  0  0  0  0  0  0  0  0  0  0
    1.1538    0.0913   -4.3628 H   0  0  0  0  0  0  0  0  0  0  0  0
    0.5692   -1.5609   -4.3012 H   0  0  0  0  0  0  0  0  0  0  0  0
   -1.1633   -0.5889   -3.2294 H   0  0  0  0  0  0  0  0  0  0  0  0
   -0.2377    0.7941   -2.6904 H   0  0  0  0  0  0  0  0  0  0  0  0
    0.1659   -1.9783   -1.4597 H   0  0  0  0  0  0  0  0  0  0  0  0
   -1.5029   -1.7392    0.0805 H   0  0  0  0  0  0  0  0  0  0  0  0
   -2.2962   -0.9081   -1.2563 H   0  0  0  0  0  0  0  0  0  0  0  0
   -5.0645    0.4862   -1.2269 H   0  0  0  0  0  0  0  0  0  0  0  0
   -6.9913   -0.8441   -0.3765 H   0  0  0  0  0  0  0  0  0  0  0  0
   -5.2320   -0.9638    3.5321 H   0  0  0  0  0  0  0  0  0  0  0  0
   -3.2850    0.3679    2.7140 H   0  0  0  0  0  0  0  0  0  0  0  0
    0.3031    1.2482    1.1331 H   0  0  0  0  0  0  0  0  0  0  0  0
   -0.0533    1.8067   -0.5177 H   0  0  0  0  0  0  0  0  0  0  0  0
    1.1727   -0.8564    0.3597 H   0  0  0  0  0  0  0  0  0  0  0  0
    2.2452    2.1506    0.0890 H   0  0  0  0  0  0  0  0  0  0  0  0
    3.7300    1.7680   -0.7256 H   0  0  0  0  0  0  0  0  0  0  0  0
    2.2954    1.8479    2.4616 H   0  0  0  0  0  0  0  0  0  0  0  0
    3.2090    0.7613    4.4743 H   0  0  0  0  0  0  0  0  0  0  0  0
    4.9099   -1.0315    4.2672 H   0  0  0  0  0  0  0  0  0  0  0  0
    5.7048   -1.7316    2.0235 H   0  0  0  0  0  0  0  0  0  0  0  0
    4.8029   -0.6566   -0.0060 H   0  0  0  0  0  0  0  0  0  0  0  0
  1  2  2  0
  2  3  1  0
  3  4  1  0
  4  5  1  0
  5  6  1  0
  6  7  1  0
  7  8  1  0
  8  9  1  0
  9 10  2  0
  9 11  2  0
  9 12  1  0
 12 13  2  0
 13 14  1  0
 14 15  2  0
 15 16  1  0
 15 17  1  0
 17 18  2  0
  8 19  1  0
 19 20  1  0
 20 21  1  0
 21 22  1  0
 22 23  1  0
 23 24  2  0
 24 25  1  0
 25 26  2  0
 26 27  1  0
 27 28  2  0
 21  2  1  0
 28 23  1  0
 20  6  1  0
 18 12  1  0
  3 29  1  0
  3 30  1  0
  4 31  1  0
  4 32  1  0
  5 33  1  0
  5 34  1  0
  6 35  1  6
  7 36  1  0
  7 37  1  0
 13 38  1  0
 14 39  1  0
 17 40  1  0
 18 41  1  0
 19 42  1  0
 19 43  1  0
 20 44  1  1
 22 45  1  0
 22 46  1  0
 24 47  1  0
 25 48  1  0
 26 49  1  0
 27 50  1  0
 28 51  1  0
M  END
$$$$
