
     RDKit          3D

 39 42  0  0  0  0  0  0  0  0999 V2000
   -4.6688    2.6571   -0.8501 C   0  0  0  0  0  0  0  0  0  0  0  0
   -3.2758    2.4058   -0.7089 O   0  0  0  0  0  0  0  0  0  0  0  0
   -2.9036    1.1527   -0.3096 C   0  0  0  0  0  0  0  0  0  0  0  0
   -3.7588    0.1019    0.0094 C   0  0  0  0  0  0  0  0  0  0  0  0
   -3.2399   -1.1437    0.4055 C   0  0  0  0  0  0  0  0  0  0  0  0
   -4.0297   -2.2249    0.7378 O   0  0  0  0  0  0  0  0  0  0  0  0
   -5.4321   -2.1183    0.5449 C   0  0  0  0  0  0  0  0  0  0  0  0
   -1.8523   -1.3644    0.5014 C   0  0  0  0  0  0  0  0  0  0  0  0
   -1.3519   -2.5750    0.8901 N   0  0  0  0  0  0  0  0  0  0  0  0
   -0.0142   -2.7576    0.9728 C   0  0  0  0  0  0  0  0  0  0  0  0
    0.8454   -1.7454    0.6747 C   0  0  0  0  0  0  0  0  0  0  0  0
    2.2933   -1.6675    0.7234 C   0  0  0  0  0  0  0  0  0  0  0  0
    2.9887   -2.6098    1.0553 O   0  0  0  0  0  0  0  0  0  0  0  0
    2.6086   -0.3640    0.3379 N   0  0  0  0  0  0  0  0  0  0  0  0
    3.8835    0.2314    0.1845 C   0  0  0  0  0  0  0  0  0  0  0  0
    4.0107    1.5315   -0.3321 C   0  0  0  0  0  0  0  0  0  0  0  0
    5.2660    2.1309   -0.4795 C   0  0  0  0  0  0  0  0  0  0  0  0
    6.4160    1.4389   -0.1136 C   0  0  0  0  0  0  0  0  0  0  0  0
    6.3103    0.1479    0.3947 C   0  0  0  0  0  0  0  0  0  0  0  0
    5.0540   -0.4509    0.5406 C   0  0  0  0  0  0  0  0  0  0  0  0
    1.4307    0.4110    0.0361 N   0  0  0  0  0  0  0  0  0  0  0  0
    0.3757   -0.5096    0.2777 C   0  0  0  0  0  0  0  0  0  0  0  0
   -0.9971   -0.2819    0.1794 C   0  0  0  0  0  0  0  0  0  0  0  0
   -1.5282    0.9569   -0.2253 C   0  0  0  0  0  0  0  0  0  0  0  0
   -4.7893    3.6898   -1.1914 H   0  0  0  0  0  0  0  0  0  0  0  0
   -5.1852    2.5611    0.1106 H   0  0  0  0  0  0  0  0  0  0  0  0
   -5.1136    2.0019   -1.6064 H   0  0  0  0  0  0  0  0  0  0  0  0
   -4.8295    0.2468   -0.0448 H   0  0  0  0  0  0  0  0  0  0  0  0
   -5.8648   -1.3695    1.2160 H   0  0  0  0  0  0  0  0  0  0  0  0
   -5.6741   -1.9017   -0.5008 H   0  0  0  0  0  0  0  0  0  0  0  0
   -5.8788   -3.0853    0.7953 H   0  0  0  0  0  0  0  0  0  0  0  0
    0.3251   -3.7357    1.2931 H   0  0  0  0  0  0  0  0  0  0  0  0
    3.1383    2.0956   -0.6499 H   0  0  0  0  0  0  0  0  0  0  0  0
    5.3430    3.1356   -0.8872 H   0  0  0  0  0  0  0  0  0  0  0  0
    7.3928    1.9011   -0.2293 H   0  0  0  0  0  0  0  0  0  0  0  0
    7.2048   -0.4010    0.6788 H   0  0  0  0  0  0  0  0  0  0  0  0
    5.0202   -1.4595    0.9434 H   0  0  0  0  0  0  0  0  0  0  0  0
    1.3474    1.1880    0.6959 H   0  0  0  0  0  0  0  0  0  0  0  0
   -0.8668    1.7798   -0.4891 H   0  0  0  0  0  0  0  0  0  0  0  0
  1  2  1  0
  2  3  1  0
  3  4  2  0
  4  5  1  0
  5  6  1  0
  6  7  1  0
  5  8  2  0
  8  9  1  0
  9 10  2  0
 10 11  1  0
 11 12  1  0
 12 13  2  0
 12 14  1  0
 14 15  1  0
 15 16  2  0
 16 17  1  0
 17 18  2  0
 18 19  1  0
 19 20  2  0
 14 21  1  0
 21 22  1  0
 22 23  1  0
 23 24  2  0
 24  3  1  0
 23  8  1  0
 22 11  2  0
 20 15  1  0
  1 25  1  0
  1 26  1  0
  1 27  1  0
  4 28  1  0
  7 29  1  0
  7 30  1  0
  7 31  1  0
 10 32  1  0
 16 33  1  0
 17 34  1  0
 18 35  1  0
 19 36  1  0
 20 37  1  0
 21 38  1  0
 24 39  1  0
M  END
$$$$
