
     RDKit          3D

 58 57  0  0  0  0  0  0  0  0999 V2000
    6.2672    0.6488    1.5299 C   0  0  0  0  0  0  0  0  0  0  0  0
    6.4240   -0.8629    1.4459 C   0  0  0  0  0  0  0  0  0  0  0  0
    6.4715   -1.3838    0.0068 C   0  0  0  0  0  0  0  0  0  0  0  0
    5.1366   -1.9143   -0.5269 C   0  0  0  0  0  0  0  0  0  0  0  0
    4.0322   -0.8611   -0.6214 C   0  0  0  0  0  0  0  0  0  0  0  0
    2.7915   -1.4253   -1.3192 C   0  0  0  0  0  0  0  0  0  0  0  0
    1.6045   -0.4556   -1.3315 C   0  0  0  0  0  0  0  0  0  0  0  0
    1.8706    0.8141   -2.1438 C   0  0  0  0  0  0  0  0  0  0  0  0
    0.6228    1.6747   -2.3754 C   0  0  0  0  0  0  0  0  0  0  0  0
    0.3679    2.7512   -1.3147 C   0  0  0  0  0  0  0  0  0  0  0  0
   -0.0549    2.2664    0.0732 C   0  0  0  0  0  0  0  0  0  0  0  0
   -1.2957    1.3674    0.1199 C   0  0  0  0  0  0  0  0  0  0  0  0
   -2.5562    2.0389   -0.4376 C   0  0  0  0  0  0  0  0  0  0  0  0
   -3.8355    1.2443   -0.3573 C   0  0  0  0  0  0  0  0  0  0  0  0
   -3.9937    0.0005    0.1255 C   0  0  0  0  0  0  0  0  0  0  0  0
   -5.3100   -0.7325    0.1720 C   0  0  1  0  0  0  0  0  0  0  0  0
   -5.1689   -1.8827   -0.6578 O   0  0  0  0  0  0  0  0  0  0  0  0
   -5.7154   -1.1544    1.6175 C   0  0  1  0  0  0  0  0  0  0  0  0
   -5.8484    0.0077    2.5308 N   0  0  0  0  0  0  0  0  0  0  0  0
   -7.0258   -1.9760    1.5821 C   0  0  0  0  0  0  0  0  0  0  0  0
   -7.3346   -2.5090    2.8699 O   0  0  0  0  0  0  0  0  0  0  0  0
    6.2614    0.9681    2.5769 H   0  0  0  0  0  0  0  0  0  0  0  0
    7.1008    1.1535    1.0326 H   0  0  0  0  0  0  0  0  0  0  0  0
    5.3389    0.9924    1.0691 H   0  0  0  0  0  0  0  0  0  0  0  0
    7.3693   -1.1223    1.9386 H   0  0  0  0  0  0  0  0  0  0  0  0
    5.6276   -1.3565    2.0142 H   0  0  0  0  0  0  0  0  0  0  0  0
    7.1818   -2.2203   -0.0243 H   0  0  0  0  0  0  0  0  0  0  0  0
    6.8691   -0.6193   -0.6709 H   0  0  0  0  0  0  0  0  0  0  0  0
    4.7974   -2.7437    0.1064 H   0  0  0  0  0  0  0  0  0  0  0  0
    5.3161   -2.3369   -1.5234 H   0  0  0  0  0  0  0  0  0  0  0  0
    4.4085    0.0083   -1.1698 H   0  0  0  0  0  0  0  0  0  0  0  0
    3.7519   -0.5268    0.3830 H   0  0  0  0  0  0  0  0  0  0  0  0
    3.0419   -1.7124   -2.3482 H   0  0  0  0  0  0  0  0  0  0  0  0
    2.4773   -2.3425   -0.8053 H   0  0  0  0  0  0  0  0  0  0  0  0
    0.7428   -0.9827   -1.7592 H   0  0  0  0  0  0  0  0  0  0  0  0
    1.3422   -0.2058   -0.2998 H   0  0  0  0  0  0  0  0  0  0  0  0
    2.6575    1.4162   -1.6764 H   0  0  0  0  0  0  0  0  0  0  0  0
    2.2517    0.5107   -3.1272 H   0  0  0  0  0  0  0  0  0  0  0  0
   -0.2638    1.0489   -2.5236 H   0  0  0  0  0  0  0  0  0  0  0  0
    0.7713    2.2063   -3.3250 H   0  0  0  0  0  0  0  0  0  0  0  0
   -0.4010    3.4329   -1.6986 H   0  0  0  0  0  0  0  0  0  0  0  0
    1.2721    3.3638   -1.2053 H   0  0  0  0  0  0  0  0  0  0  0  0
    0.7832    1.7439    0.5470 H   0  0  0  0  0  0  0  0  0  0  0  0
   -0.2412    3.1492    0.6990 H   0  0  0  0  0  0  0  0  0  0  0  0
   -1.0996    0.4342   -0.4195 H   0  0  0  0  0  0  0  0  0  0  0  0
   -1.4668    1.0923    1.1691 H   0  0  0  0  0  0  0  0  0  0  0  0
   -2.7185    2.9851    0.0929 H   0  0  0  0  0  0  0  0  0  0  0  0
   -2.4016    2.2893   -1.4931 H   0  0  0  0  0  0  0  0  0  0  0  0
   -4.7092    1.7693   -0.7440 H   0  0  0  0  0  0  0  0  0  0  0  0
   -3.1441   -0.5539    0.5183 H   0  0  0  0  0  0  0  0  0  0  0  0
   -6.1089   -0.1184   -0.2617 H   0  0  0  0  0  0  0  0  0  0  0  0
   -4.7535   -1.5863   -1.4861 H   0  0  0  0  0  0  0  0  0  0  0  0
   -4.9366   -1.8047    2.0371 H   0  0  0  0  0  0  0  0  0  0  0  0
   -4.9903    0.5562    2.5046 H   0  0  0  0  0  0  0  0  0  0  0  0
   -6.5961    0.6156    2.2066 H   0  0  0  0  0  0  0  0  0  0  0  0
   -7.8664   -1.3524    1.2568 H   0  0  0  0  0  0  0  0  0  0  0  0
   -6.9378   -2.8233    0.8940 H   0  0  0  0  0  0  0  0  0  0  0  0
   -8.1771   -2.9841    2.7868 H   0  0  0  0  0  0  0  0  0  0  0  0
  1  2  1  0
  2  3  1  0
  3  4  1  0
  4  5  1  0
  5  6  1  0
  6  7  1  0
  7  8  1  0
  8  9  1  0
  9 10  1  0
 10 11  1  0
 11 12  1  0
 12 13  1  0
 13 14  1  0
 14 15  2  0
 15 16  1  0
 16 17  1  0
 16 18  1  0
 18 19  1  0
 18 20  1  0
 20 21  1  0
  1 22  1  0
  1 23  1  0
  1 24  1  0
  2 25  1  0
  2 26  1  0
  3 27  1  0
  3 28  1  0
  4 29  1  0
  4 30  1  0
  5 31  1  0
  5 32  1  0
  6 33  1  0
  6 34  1  0
  7 35  1  0
  7 36  1  0
  8 37  1  0
  8 38  1  0
  9 39  1  0
  9 40  1  0
 10 41  1  0
 10 42  1  0
 11 43  1  0
 11 44  1  0
 12 45  1  0
 12 46  1  0
 13 47  1  0
 13 48  1  0
 14 49  1  0
 15 50  1  0
 16 51  1  6
 17 52  1  0
 18 53  1  1
 19 54  1  0
 19 55  1  0
 20 56  1  0
 20 57  1  0
 21 58  1  0
M  END
$$$$
