
     RDKit          3D

 56 59  0  0  0  0  0  0  0  0999 V2000
   -4.0144    2.4319    1.0742 O   0  0  0  0  0  0  0  0  0  0  0  0
   -3.8430    1.2633    0.7354 C   0  0  0  0  0  0  0  0  0  0  0  0
   -2.4633    0.8295    0.4189 C   0  0  0  0  0  0  0  0  0  0  0  0
   -1.8879   -0.2643    1.0654 C   0  0  0  0  0  0  0  0  0  0  0  0
   -0.5735   -0.6418    0.7607 C   0  0  0  0  0  0  0  0  0  0  0  0
    0.1981    0.0721   -0.1751 C   0  0  0  0  0  0  0  0  0  0  0  0
    1.5462   -0.3376   -0.4937 N   0  0  0  0  0  0  0  0  0  0  0  0
    1.9130   -1.7244   -0.2121 C   0  0  0  0  0  0  0  0  0  0  0  0
    3.0044   -2.2170   -1.1327 C   0  0  0  0  0  0  0  0  0  0  0  0
    4.1735   -1.2872   -0.9550 C   0  0  0  0  0  0  0  0  0  0  0  0
    3.7843    0.0903   -1.1918 N   0  0  0  0  0  0  0  0  0  0  0  0
    4.8643    1.0381   -1.4708 C   0  0  0  0  0  0  0  0  0  0  0  0
    5.7563    1.2721   -0.2721 C   0  0  0  0  0  0  0  0  0  0  0  0
    5.2923    2.0167    0.8221 C   0  0  0  0  0  0  0  0  0  0  0  0
    6.1035    2.2173    1.9393 C   0  0  0  0  0  0  0  0  0  0  0  0
    7.3873    1.6765    1.9747 C   0  0  0  0  0  0  0  0  0  0  0  0
    7.8618    0.9373    0.8922 C   0  0  0  0  0  0  0  0  0  0  0  0
    7.0517    0.7353   -0.2264 C   0  0  0  0  0  0  0  0  0  0  0  0
    2.5217    0.5987   -0.8843 C   0  0  0  0  0  0  0  0  0  0  0  0
    2.3152    1.8109   -0.9591 O   0  0  0  0  0  0  0  0  0  0  0  0
   -0.4016    1.1798   -0.7958 C   0  0  0  0  0  0  0  0  0  0  0  0
   -1.7149    1.5648   -0.4970 C   0  0  0  0  0  0  0  0  0  0  0  0
   -4.8819    0.3352    0.6463 N   0  0  0  0  0  0  0  0  0  0  0  0
   -4.7899   -0.9424   -0.0672 C   0  0  0  0  0  0  0  0  0  0  0  0
   -6.0808   -1.2777   -0.8086 C   0  0  0  0  0  0  0  0  0  0  0  0
   -7.2956   -1.2798    0.1230 C   0  0  0  0  0  0  0  0  0  0  0  0
   -7.6146   -2.6175    0.5056 O   0  0  0  0  0  0  0  0  0  0  0  0
   -7.1089   -0.4240    1.3755 C   0  0  0  0  0  0  0  0  0  0  0  0
   -6.2057    0.7650    1.0921 C   0  0  0  0  0  0  0  0  0  0  0  0
   -2.4450   -0.8112    1.8213 H   0  0  0  0  0  0  0  0  0  0  0  0
   -0.1571   -1.4792    1.3131 H   0  0  0  0  0  0  0  0  0  0  0  0
    1.0455   -2.3783   -0.3571 H   0  0  0  0  0  0  0  0  0  0  0  0
    2.2319   -1.7851    0.8360 H   0  0  0  0  0  0  0  0  0  0  0  0
    2.6586   -2.2011   -2.1737 H   0  0  0  0  0  0  0  0  0  0  0  0
    3.2861   -3.2462   -0.8867 H   0  0  0  0  0  0  0  0  0  0  0  0
    4.9658   -1.5597   -1.6612 H   0  0  0  0  0  0  0  0  0  0  0  0
    4.5779   -1.3591    0.0614 H   0  0  0  0  0  0  0  0  0  0  0  0
    4.4689    2.0011   -1.8138 H   0  0  0  0  0  0  0  0  0  0  0  0
    5.4459    0.6393   -2.3112 H   0  0  0  0  0  0  0  0  0  0  0  0
    4.2909    2.4437    0.8063 H   0  0  0  0  0  0  0  0  0  0  0  0
    5.7314    2.7953    2.7816 H   0  0  0  0  0  0  0  0  0  0  0  0
    8.0178    1.8338    2.8454 H   0  0  0  0  0  0  0  0  0  0  0  0
    8.8643    0.5190    0.9203 H   0  0  0  0  0  0  0  0  0  0  0  0
    7.4378    0.1567   -1.0619 H   0  0  0  0  0  0  0  0  0  0  0  0
    0.1289    1.7628   -1.5448 H   0  0  0  0  0  0  0  0  0  0  0  0
   -2.1460    2.4367   -0.9835 H   0  0  0  0  0  0  0  0  0  0  0  0
   -3.9624   -0.9194   -0.7829 H   0  0  0  0  0  0  0  0  0  0  0  0
   -4.5723   -1.7154    0.6786 H   0  0  0  0  0  0  0  0  0  0  0  0
   -5.9761   -2.2416   -1.3189 H   0  0  0  0  0  0  0  0  0  0  0  0
   -6.2347   -0.5138   -1.5819 H   0  0  0  0  0  0  0  0  0  0  0  0
   -8.1601   -0.9130   -0.4418 H   0  0  0  0  0  0  0  0  0  0  0  0
   -6.8918   -2.9588    1.0596 H   0  0  0  0  0  0  0  0  0  0  0  0
   -8.0870   -0.0837    1.7355 H   0  0  0  0  0  0  0  0  0  0  0  0
   -6.6832   -1.0256    2.1889 H   0  0  0  0  0  0  0  0  0  0  0  0
   -6.6319    1.4007    0.3067 H   0  0  0  0  0  0  0  0  0  0  0  0
   -6.1015    1.3808    1.9926 H   0  0  0  0  0  0  0  0  0  0  0  0
  1  2  2  0
  2  3  1  0
  3  4  2  0
  4  5  1  0
  5  6  2  0
  6  7  1  0
  7  8  1  0
  8  9  1  0
  9 10  1  0
 10 11  1  0
 11 12  1  0
 12 13  1  0
 13 14  2  0
 14 15  1  0
 15 16  2  0
 16 17  1  0
 17 18  2  0
 11 19  1  0
 19 20  2  0
  6 21  1  0
 21 22  2  0
  2 23  1  0
 23 24  1  0
 24 25  1  0
 25 26  1  0
 26 27  1  0
 26 28  1  0
 28 29  1  0
 22  3  1  0
 29 23  1  0
 19  7  1  0
 18 13  1  0
  4 30  1  0
  5 31  1  0
  8 32  1  0
  8 33  1  0
  9 34  1  0
  9 35  1  0
 10 36  1  0
 10 37  1  0
 12 38  1  0
 12 39  1  0
 14 40  1  0
 15 41  1  0
 16 42  1  0
 17 43  1  0
 18 44  1  0
 21 45  1  0
 22 46  1  0
 24 47  1  0
 24 48  1  0
 25 49  1  0
 25 50  1  0
 26 51  1  0
 27 52  1  0
 28 53  1  0
 28 54  1  0
 29 55  1  0
 29 56  1  0
M  END
$$$$
