
     RDKit          3D

 37 40  0  0  0  0  0  0  0  0999 V2000
   -2.7235    2.7123   -2.1022 O   0  0  0  0  0  0  0  0  0  0  0  0
   -1.7772    2.2804   -1.4506 C   0  0  0  0  0  0  0  0  0  0  0  0
   -0.5291    2.8560   -1.5042 N   0  0  0  0  0  0  0  0  0  0  0  0
    0.4066    2.3377   -0.7845 C   0  0  0  0  0  0  0  0  0  0  0  0
    0.3172    1.2491    0.0578 N   0  0  0  0  0  0  0  0  0  0  0  0
    1.4400    0.8367    0.7487 N   0  0  0  0  0  0  0  0  0  0  0  0
    1.3001   -0.1960    1.5157 C   0  0  0  0  0  0  0  0  0  0  0  0
    2.6641   -0.7980    2.4373 S   0  0  0  0  0  0  0  0  0  0  0  0
    3.9281   -0.8347    1.1789 C   0  0  0  0  0  0  0  0  0  0  0  0
    5.1321   -0.1537    1.3970 C   0  0  0  0  0  0  0  0  0  0  0  0
    6.1363   -0.1778    0.4255 C   0  0  0  0  0  0  0  0  0  0  0  0
    5.9366   -0.8858   -0.7559 C   0  0  0  0  0  0  0  0  0  0  0  0
    6.9036   -0.9061   -1.6818 F   0  0  0  0  0  0  0  0  0  0  0  0
    4.7545   -1.5743   -0.9876 C   0  0  0  0  0  0  0  0  0  0  0  0
    3.7594   -1.5467   -0.0169 C   0  0  0  0  0  0  0  0  0  0  0  0
    2.6251   -2.2270   -0.2461 F   0  0  0  0  0  0  0  0  0  0  0  0
    0.0553   -0.9571    1.7316 C   0  0  0  0  0  0  0  0  0  0  0  0
   -1.0132   -0.5320    1.0476 C   0  0  0  0  0  0  0  0  0  0  0  0
   -0.9302    0.6186    0.1539 C   0  0  0  0  0  0  0  0  0  0  0  0
   -1.9840    1.0789   -0.5589 C   0  0  0  0  0  0  0  0  0  0  0  0
   -3.3363    0.4777   -0.5222 C   0  0  0  0  0  0  0  0  0  0  0  0
   -4.2989    0.9208    0.4030 C   0  0  0  0  0  0  0  0  0  0  0  0
   -3.9443    2.1479    1.5717 Cl  0  0  0  0  0  0  0  0  0  0  0  0
   -5.5830    0.3660    0.4218 C   0  0  0  0  0  0  0  0  0  0  0  0
   -5.9269   -0.6362   -0.4828 C   0  0  0  0  0  0  0  0  0  0  0  0
   -4.9860   -1.0872   -1.4060 C   0  0  0  0  0  0  0  0  0  0  0  0
   -3.7007   -0.5350   -1.4281 C   0  0  0  0  0  0  0  0  0  0  0  0
   -2.5844   -1.1625   -2.5930 Cl  0  0  0  0  0  0  0  0  0  0  0  0
    1.4179    2.7784   -0.8081 H   0  0  0  0  0  0  0  0  0  0  0  0
    5.2952    0.4035    2.3170 H   0  0  0  0  0  0  0  0  0  0  0  0
    7.0716    0.3515    0.5824 H   0  0  0  0  0  0  0  0  0  0  0  0
    4.6099   -2.1257   -1.9091 H   0  0  0  0  0  0  0  0  0  0  0  0
    0.0292   -1.8076    2.3985 H   0  0  0  0  0  0  0  0  0  0  0  0
   -1.9532   -1.0607    1.1660 H   0  0  0  0  0  0  0  0  0  0  0  0
   -6.3230    0.7173    1.1380 H   0  0  0  0  0  0  0  0  0  0  0  0
   -6.9280   -1.0615   -0.4717 H   0  0  0  0  0  0  0  0  0  0  0  0
   -5.2610   -1.8674   -2.1127 H   0  0  0  0  0  0  0  0  0  0  0  0
  1  2  2  0
  2  3  1  0
  3  4  2  0
  4  5  1  0
  5  6  1  0
  6  7  2  0
  7  8  1  0
  8  9  1  0
  9 10  2  0
 10 11  1  0
 11 12  2  0
 12 13  1  0
 12 14  1  0
 14 15  2  0
 15 16  1  0
  7 17  1  0
 17 18  2  0
 18 19  1  0
 19 20  2  0
 20 21  1  0
 21 22  2  0
 22 23  1  0
 22 24  1  0
 24 25  2  0
 25 26  1  0
 26 27  2  0
 27 28  1  0
 20  2  1  0
 27 21  1  0
 19  5  1  0
 15  9  1  0
  4 29  1  0
 10 30  1  0
 11 31  1  0
 14 32  1  0
 17 33  1  0
 18 34  1  0
 24 35  1  0
 25 36  1  0
 26 37  1  0
M  END
$$$$
