
     RDKit          3D

 30 31  0  0  0  0  0  0  0  0999 V2000
    4.4652    0.9590    1.9278 N   0  0  0  0  0  0  0  0  0  0  0  0
    3.3593    0.4778    1.2842 C   0  0  0  0  0  0  0  0  0  0  0  0
    3.4057   -0.8500    0.6452 C   0  0  0  0  0  0  0  0  0  0  0  0
    2.2846   -1.2425    0.0437 C   0  0  0  0  0  0  0  0  0  0  0  0
    1.1637   -0.4404    0.0261 N   0  0  0  0  0  0  0  0  0  0  0  0
   -0.0506   -0.9306   -0.6220 C   0  0  2  0  0  0  0  0  0  0  0  0
   -0.4918    0.0267   -1.6018 O   0  0  0  0  0  0  0  0  0  0  0  0
   -1.9210    0.1488   -1.4722 C   0  0  2  0  0  0  0  0  0  0  0  0
   -2.3495    1.5492   -1.9096 C   0  0  0  0  0  0  0  0  0  0  0  0
   -1.9573    2.5516   -0.9762 O   0  0  0  0  0  0  0  0  0  0  0  0
   -2.2569   -0.1752   -0.0189 C   0  0  1  0  0  0  0  0  0  0  0  0
   -3.5823   -0.6850    0.1484 O   0  0  0  0  0  0  0  0  0  0  0  0
   -1.2248   -1.2374    0.3244 C   0  0  1  0  0  0  0  0  0  0  0  0
   -1.7657   -2.5430    0.0439 O   0  0  0  0  0  0  0  0  0  0  0  0
    1.1601    0.8090    0.6495 C   0  0  0  0  0  0  0  0  0  0  0  0
    0.1574    1.5209    0.6512 O   0  0  0  0  0  0  0  0  0  0  0  0
    2.3057    1.2311    1.2809 N   0  0  0  0  0  0  0  0  0  0  0  0
    4.2475    1.7674    2.5037 H   0  0  0  0  0  0  0  0  0  0  0  0
    5.0548    0.2845    2.3988 H   0  0  0  0  0  0  0  0  0  0  0  0
    4.3104   -1.4390    0.6708 H   0  0  0  0  0  0  0  0  0  0  0  0
    2.2279   -2.2055   -0.4553 H   0  0  0  0  0  0  0  0  0  0  0  0
    0.2012   -1.8353   -1.1896 H   0  0  0  0  0  0  0  0  0  0  0  0
   -2.3753   -0.5835   -2.1515 H   0  0  0  0  0  0  0  0  0  0  0  0
   -1.9009    1.8050   -2.8747 H   0  0  0  0  0  0  0  0  0  0  0  0
   -3.4382    1.6015   -2.0058 H   0  0  0  0  0  0  0  0  0  0  0  0
   -1.0403    2.3502   -0.6839 H   0  0  0  0  0  0  0  0  0  0  0  0
   -2.1320    0.6827    0.6471 H   0  0  0  0  0  0  0  0  0  0  0  0
   -4.1788    0.0874    0.1202 H   0  0  0  0  0  0  0  0  0  0  0  0
   -0.9495   -1.2333    1.3834 H   0  0  0  0  0  0  0  0  0  0  0  0
   -2.7283   -2.4520    0.2152 H   0  0  0  0  0  0  0  0  0  0  0  0
  1  2  1  0
  2  3  1  0
  3  4  2  0
  4  5  1  0
  5  6  1  0
  6  7  1  0
  7  8  1  0
  8  9  1  0
  9 10  1  0
  8 11  1  0
 11 12  1  0
 11 13  1  0
 13 14  1  0
  5 15  1  0
 15 16  2  0
 15 17  1  0
 17  2  2  0
 13  6  1  0
  1 18  1  0
  1 19  1  0
  3 20  1  0
  4 21  1  0
  6 22  1  6
  8 23  1  6
  9 24  1  0
  9 25  1  0
 10 26  1  0
 11 27  1  1
 12 28  1  0
 13 29  1  1
 14 30  1  0
M  END
$$$$
