
     RDKit          3D

 50 51  0  0  0  0  0  0  0  0999 V2000
    9.2695   -1.0018    0.8420 C   0  0  0  0  0  0  0  0  0  0  0  0
    7.7856   -0.7961    0.9256 C   0  0  0  0  0  0  0  0  0  0  0  0
    6.9094   -1.6839    0.2885 C   0  0  0  0  0  0  0  0  0  0  0  0
    5.5274   -1.4785    0.3410 C   0  0  0  0  0  0  0  0  0  0  0  0
    5.0091   -0.3685    1.0185 C   0  0  0  0  0  0  0  0  0  0  0  0
    3.5454   -0.1065    1.1025 C   0  0  0  0  0  0  0  0  0  0  0  0
    3.0850    0.5084    2.0575 O   0  0  0  0  0  0  0  0  0  0  0  0
    2.7842   -0.5568    0.0430 N   0  0  0  0  0  0  0  0  0  0  0  0
    1.3590   -0.2978   -0.0337 C   0  0  0  0  0  0  0  0  0  0  0  0
    1.0722    1.1100   -0.5562 C   0  0  0  0  0  0  0  0  0  0  0  0
   -0.4241    1.4064   -0.6812 C   0  0  0  0  0  0  0  0  0  0  0  0
   -1.0775    0.6879   -1.8673 C   0  0  0  0  0  0  0  0  0  0  0  0
   -2.5724    0.9932   -1.9724 C   0  0  0  0  0  0  0  0  0  0  0  0
   -3.4124    0.2614   -0.9343 C   0  0  0  0  0  0  0  0  0  0  0  0
   -2.9488   -0.6243   -0.2250 O   0  0  0  0  0  0  0  0  0  0  0  0
   -4.7193    0.7031   -0.9429 N   0  0  0  0  0  0  0  0  0  0  0  0
   -5.7857    0.2986   -0.1140 C   0  0  0  0  0  0  0  0  0  0  0  0
   -5.6687   -0.6266    0.9228 C   0  0  0  0  0  0  0  0  0  0  0  0
   -6.7878   -0.9625    1.6889 C   0  0  0  0  0  0  0  0  0  0  0  0
   -8.0269   -0.3864    1.4142 C   0  0  0  0  0  0  0  0  0  0  0  0
   -8.1527    0.5369    0.3758 C   0  0  0  0  0  0  0  0  0  0  0  0
   -7.0305    0.9154   -0.3676 C   0  0  0  0  0  0  0  0  0  0  0  0
   -7.1857    1.7314   -1.5229 N   0  0  0  0  0  0  0  0  0  0  0  0
    5.8816    0.5186    1.6585 C   0  0  0  0  0  0  0  0  0  0  0  0
    7.2620    0.3115    1.6032 C   0  0  0  0  0  0  0  0  0  0  0  0
    9.7689   -0.6124    1.7354 H   0  0  0  0  0  0  0  0  0  0  0  0
    9.6688   -0.4893   -0.0386 H   0  0  0  0  0  0  0  0  0  0  0  0
    9.5131   -2.0672    0.7726 H   0  0  0  0  0  0  0  0  0  0  0  0
    7.2987   -2.5496   -0.2436 H   0  0  0  0  0  0  0  0  0  0  0  0
    4.8715   -2.2066   -0.1270 H   0  0  0  0  0  0  0  0  0  0  0  0
    3.2485   -0.8678   -0.7984 H   0  0  0  0  0  0  0  0  0  0  0  0
    0.9414   -1.0599   -0.6977 H   0  0  0  0  0  0  0  0  0  0  0  0
    0.9205   -0.4318    0.9614 H   0  0  0  0  0  0  0  0  0  0  0  0
    1.5671    1.2606   -1.5237 H   0  0  0  0  0  0  0  0  0  0  0  0
    1.5136    1.8433    0.1304 H   0  0  0  0  0  0  0  0  0  0  0  0
   -0.5502    2.4880   -0.8160 H   0  0  0  0  0  0  0  0  0  0  0  0
   -0.9289    1.1460    0.2561 H   0  0  0  0  0  0  0  0  0  0  0  0
   -0.5888    1.0209   -2.7912 H   0  0  0  0  0  0  0  0  0  0  0  0
   -0.9218   -0.3940   -1.7987 H   0  0  0  0  0  0  0  0  0  0  0  0
   -2.7459    2.0722   -1.8877 H   0  0  0  0  0  0  0  0  0  0  0  0
   -2.9296    0.6708   -2.9581 H   0  0  0  0  0  0  0  0  0  0  0  0
   -4.9871    1.4353   -1.5950 H   0  0  0  0  0  0  0  0  0  0  0  0
   -4.7215   -1.1007    1.1588 H   0  0  0  0  0  0  0  0  0  0  0  0
   -6.6889   -1.6836    2.4967 H   0  0  0  0  0  0  0  0  0  0  0  0
   -8.8968   -0.6655    2.0033 H   0  0  0  0  0  0  0  0  0  0  0  0
   -9.1308    0.9551    0.1568 H   0  0  0  0  0  0  0  0  0  0  0  0
   -7.9988    2.3375   -1.4272 H   0  0  0  0  0  0  0  0  0  0  0  0
   -7.3320    1.1241   -2.3302 H   0  0  0  0  0  0  0  0  0  0  0  0
    5.4866    1.3768    2.1988 H   0  0  0  0  0  0  0  0  0  0  0  0
    7.9242    1.0185    2.0985 H   0  0  0  0  0  0  0  0  0  0  0  0
  1  2  1  0
  2  3  2  0
  3  4  1  0
  4  5  2  0
  5  6  1  0
  6  7  2  0
  6  8  1  0
  8  9  1  0
  9 10  1  0
 10 11  1  0
 11 12  1  0
 12 13  1  0
 13 14  1  0
 14 15  2  0
 14 16  1  0
 16 17  1  0
 17 18  2  0
 18 19  1  0
 19 20  2  0
 20 21  1  0
 21 22  2  0
 22 23  1  0
  5 24  1  0
 24 25  2  0
 25  2  1  0
 22 17  1  0
  1 26  1  0
  1 27  1  0
  1 28  1  0
  3 29  1  0
  4 30  1  0
  8 31  1  0
  9 32  1  0
  9 33  1  0
 10 34  1  0
 10 35  1  0
 11 36  1  0
 11 37  1  0
 12 38  1  0
 12 39  1  0
 13 40  1  0
 13 41  1  0
 16 42  1  0
 18 43  1  0
 19 44  1  0
 20 45  1  0
 21 46  1  0
 23 47  1  0
 23 48  1  0
 24 49  1  0
 25 50  1  0
M  END
$$$$
