
     RDKit          3D

 35 37  0  0  0  0  0  0  0  0999 V2000
   -3.0493    2.1825   -0.1493 N   0  0  0  0  0  0  0  0  0  0  0  0
   -2.8359    0.9472    0.3706 C   0  0  0  0  0  0  0  0  0  0  0  0
   -1.7384    0.3055    0.0834 N   0  0  0  0  0  0  0  0  0  0  0  0
   -1.6422   -0.9063    0.6751 C   0  0  0  0  0  0  0  0  0  0  0  0
   -2.5644   -1.5218    1.4921 C   0  0  0  0  0  0  0  0  0  0  0  0
   -2.1311   -2.7564    1.9016 N   0  0  0  0  0  0  0  0  0  0  0  0
   -0.9384   -2.8766    1.3522 C   0  0  0  0  0  0  0  0  0  0  0  0
   -0.5973   -1.7812    0.5899 N   0  0  0  0  0  0  0  0  0  0  0  0
    0.6621   -1.6358   -0.1123 C   0  0  2  0  0  0  0  0  0  0  0  0
    1.5933   -0.9546    0.7810 O   0  0  0  0  0  0  0  0  0  0  0  0
    2.2913   -0.0177   -0.0516 C   0  0  2  0  0  0  0  0  0  0  0  0
    2.8597    1.1986    0.6615 C   0  0  0  0  0  0  0  0  0  0  0  0
    2.8834    2.3292   -0.2055 O   0  0  0  0  0  0  0  0  0  0  0  0
    3.1552    2.0467   -1.7893 P   0  0  0  0  0  5  0  0  0  0  0  0
    3.0566    3.3438   -2.5407 O   0  0  0  0  0  0  0  0  0  0  0  0
    4.3389    1.1236   -1.9053 O   0  0  0  0  0  1  0  0  0  0  0  0
    1.8305    1.1586   -2.1429 O   0  0  0  0  0  0  0  0  0  0  0  0
    1.2665    0.4470   -1.0658 C   0  0  1  0  0  0  0  0  0  0  0  0
    0.6360   -0.8716   -1.4567 C   0  0  1  0  0  0  0  0  0  0  0  0
    1.4588   -1.5481   -2.4291 O   0  0  0  0  0  0  0  0  0  0  0  0
   -3.7911   -0.8096    1.7829 C   0  0  0  0  0  0  0  0  0  0  0  0
   -4.7239   -1.2297    2.4621 O   0  0  0  0  0  0  0  0  0  0  0  0
   -3.8236    0.4470    1.1927 N   0  0  0  0  0  0  0  0  0  0  0  0
    0.0000    0.0000    0.0000 Na  0  0  0  0  0 15  0  0  0  0  0  0
   -3.4367    2.8653    0.4885 H   0  0  0  0  0  0  0  0  0  0  0  0
   -2.2065    2.5388   -0.5983 H   0  0  0  0  0  0  0  0  0  0  0  0
   -0.2747   -3.7236    1.4723 H   0  0  0  0  0  0  0  0  0  0  0  0
    1.0566   -2.6476   -0.2694 H   0  0  0  0  0  0  0  0  0  0  0  0
    3.1134   -0.5608   -0.5348 H   0  0  0  0  0  0  0  0  0  0  0  0
    2.2494    1.4553    1.5338 H   0  0  0  0  0  0  0  0  0  0  0  0
    3.8728    1.0009    1.0266 H   0  0  0  0  0  0  0  0  0  0  0  0
    0.5238    1.0919   -0.5856 H   0  0  0  0  0  0  0  0  0  0  0  0
   -0.3517   -0.7698   -1.9125 H   0  0  0  0  0  0  0  0  0  0  0  0
    1.9314   -0.8358   -2.9159 H   0  0  0  0  0  0  0  0  0  0  0  0
   -4.6744    0.9654    1.3241 H   0  0  0  0  0  0  0  0  0  0  0  0
  1  2  1  0
  2  3  2  0
  3  4  1  0
  4  5  2  0
  5  6  1  0
  6  7  2  0
  7  8  1  0
  8  9  1  0
  9 10  1  0
 10 11  1  0
 11 12  1  0
 12 13  1  0
 13 14  1  0
 14 15  2  0
 14 16  1  0
 14 17  1  0
 17 18  1  0
 18 19  1  0
 19 20  1  0
  5 21  1  0
 21 22  2  0
 21 23  1  0
 23  2  1  0
  8  4  1  0
 19  9  1  0
 18 11  1  0
  1 25  1  0
  1 26  1  0
  7 27  1  0
  9 28  1  6
 11 29  1  6
 12 30  1  0
 12 31  1  0
 18 32  1  1
 19 33  1  6
 20 34  1  0
 23 35  1  0
M  CHG  2  16  -1  24   1
M  END
$$$$
