
     RDKit          3D

 41 44  0  0  0  0  0  0  0  0999 V2000
   -0.7983   -2.2051   -2.9355 N   0  0  0  0  0  0  0  0  0  0  0  0
   -1.2313   -2.3765   -1.8730 C   0  0  0  0  0  0  0  0  0  0  0  0
   -1.8115   -2.5899   -0.5409 C   0  0  0  0  0  0  0  0  0  0  0  0
   -1.6990   -1.3692    0.3856 C   0  0  2  0  0  0  0  0  0  0  0  0
   -2.6861   -0.1987    0.1425 C   0  0  0  0  0  0  0  0  0  0  0  0
   -4.0973   -0.4891    0.6740 C   0  0  0  0  0  0  0  0  0  0  0  0
   -4.9900    0.5683    0.0246 C   0  0  0  0  0  0  0  0  0  0  0  0
   -4.1945    1.1312   -1.1516 C   0  0  0  0  0  0  0  0  0  0  0  0
   -2.9897    0.2089   -1.2995 C   0  0  0  0  0  0  0  0  0  0  0  0
   -0.3007   -0.9581    0.5359 N   0  0  0  0  0  0  0  0  0  0  0  0
    0.3548    0.0820   -0.0509 C   0  0  0  0  0  0  0  0  0  0  0  0
    1.6628    0.0290    0.3898 C   0  0  0  0  0  0  0  0  0  0  0  0
    2.6830    0.9790    0.0105 C   0  0  0  0  0  0  0  0  0  0  0  0
    2.2820    2.2234   -0.3568 N   0  0  0  0  0  0  0  0  0  0  0  0
    3.2295    3.1166   -0.6922 C   0  0  0  0  0  0  0  0  0  0  0  0
    4.5608    2.9408   -0.7142 N   0  0  0  0  0  0  0  0  0  0  0  0
    4.9003    1.6932   -0.3583 C   0  0  0  0  0  0  0  0  0  0  0  0
    6.1864    1.2305   -0.3062 N   0  0  0  0  0  0  0  0  0  0  0  0
    6.1886   -0.0866    0.0723 C   0  0  0  0  0  0  0  0  0  0  0  0
    4.8773   -0.4681    0.2693 C   0  0  0  0  0  0  0  0  0  0  0  0
    4.0466    0.6619    0.0107 C   0  0  0  0  0  0  0  0  0  0  0  0
    1.6813   -1.0855    1.2529 C   0  0  0  0  0  0  0  0  0  0  0  0
    0.4974   -1.7004    1.3309 N   0  0  0  0  0  0  0  0  0  0  0  0
   -1.2962   -3.4425   -0.0795 H   0  0  0  0  0  0  0  0  0  0  0  0
   -2.8600   -2.8914   -0.6406 H   0  0  0  0  0  0  0  0  0  0  0  0
   -1.9552   -1.7372    1.3922 H   0  0  0  0  0  0  0  0  0  0  0  0
   -2.3186    0.6864    0.6831 H   0  0  0  0  0  0  0  0  0  0  0  0
   -4.4362   -1.4872    0.3729 H   0  0  0  0  0  0  0  0  0  0  0  0
   -4.1429   -0.4398    1.7667 H   0  0  0  0  0  0  0  0  0  0  0  0
   -5.2338    1.3668    0.7341 H   0  0  0  0  0  0  0  0  0  0  0  0
   -5.9346    0.1247   -0.3071 H   0  0  0  0  0  0  0  0  0  0  0  0
   -4.7904    1.1775   -2.0681 H   0  0  0  0  0  0  0  0  0  0  0  0
   -3.8617    2.1497   -0.9197 H   0  0  0  0  0  0  0  0  0  0  0  0
   -3.2857   -0.6500   -1.9104 H   0  0  0  0  0  0  0  0  0  0  0  0
   -2.1553    0.7134   -1.7929 H   0  0  0  0  0  0  0  0  0  0  0  0
   -0.1285    0.7738   -0.7258 H   0  0  0  0  0  0  0  0  0  0  0  0
    2.8738    4.1019   -0.9787 H   0  0  0  0  0  0  0  0  0  0  0  0
    6.9944    1.7926   -0.5318 H   0  0  0  0  0  0  0  0  0  0  0  0
    7.1159   -0.6378    0.1597 H   0  0  0  0  0  0  0  0  0  0  0  0
    4.5601   -1.4617    0.5569 H   0  0  0  0  0  0  0  0  0  0  0  0
    2.5023   -1.4772    1.8383 H   0  0  0  0  0  0  0  0  0  0  0  0
  1  2  3  0
  2  3  1  0
  3  4  1  0
  4  5  1  0
  5  6  1  0
  6  7  1  0
  7  8  1  0
  8  9  1  0
  4 10  1  0
 10 11  1  0
 11 12  2  0
 12 13  1  0
 13 14  2  0
 14 15  1  0
 15 16  2  0
 16 17  1  0
 17 18  1  0
 18 19  1  0
 19 20  2  0
 20 21  1  0
 12 22  1  0
 22 23  2  0
  9  5  1  0
 23 10  1  0
 21 13  1  0
 21 17  2  0
  3 24  1  0
  3 25  1  0
  4 26  1  1
  5 27  1  0
  6 28  1  0
  6 29  1  0
  7 30  1  0
  7 31  1  0
  8 32  1  0
  8 33  1  0
  9 34  1  0
  9 35  1  0
 11 36  1  0
 15 37  1  0
 18 38  1  0
 19 39  1  0
 20 40  1  0
 22 41  1  0
M  END
$$$$
