
     RDKit          3D

 49 51  0  0  0  0  0  0  0  0999 V2000
    1.8089   -1.1020   -1.6655 C   0  0  0  0  0  0  0  0  0  0  0  0
    1.5163   -0.5315   -0.2687 C   0  0  1  0  0  0  0  0  0  0  0  0
    2.3701    0.7504    0.0234 C   0  0  1  0  0  0  0  0  0  0  0  0
    2.0095    1.2626    1.3147 O   0  0  0  0  0  0  0  0  0  0  0  0
    3.8649    0.5068    0.0158 C   0  0  0  0  0  0  0  0  0  0  0  0
    4.4982   -0.1610    1.0773 C   0  0  0  0  0  0  0  0  0  0  0  0
    5.8737   -0.4032    1.0518 C   0  0  0  0  0  0  0  0  0  0  0  0
    6.6216    0.0216   -0.0403 C   0  0  0  0  0  0  0  0  0  0  0  0
    7.9663   -0.1938   -0.1078 O   0  0  0  0  0  0  0  0  0  0  0  0
    6.0181    0.6848   -1.1011 C   0  0  0  0  0  0  0  0  0  0  0  0
    4.6437    0.9293   -1.0735 C   0  0  0  0  0  0  0  0  0  0  0  0
    0.0651   -0.2830    0.0181 N   0  0  0  0  0  0  0  0  0  0  0  0
   -0.5600    0.7230   -0.8632 C   0  0  0  0  0  0  0  0  0  0  0  0
   -2.0930    0.6176   -0.9203 C   0  0  0  0  0  0  0  0  0  0  0  0
   -2.6817    0.0922    0.3989 C   0  0  0  0  0  0  0  0  0  0  0  0
   -2.2852    1.0188    1.4277 O   0  0  0  0  0  0  0  0  0  0  0  0
   -4.2072    0.0135    0.4444 C   0  0  0  0  0  0  0  0  0  0  0  0
   -4.8646   -0.0353    1.6894 C   0  0  0  0  0  0  0  0  0  0  0  0
   -6.2549   -0.1375    1.7753 C   0  0  0  0  0  0  0  0  0  0  0  0
   -7.0199   -0.1992    0.6155 C   0  0  0  0  0  0  0  0  0  0  0  0
   -6.3938   -0.1592   -0.6269 C   0  0  0  0  0  0  0  0  0  0  0  0
   -5.0012   -0.0564   -0.7124 C   0  0  0  0  0  0  0  0  0  0  0  0
   -2.0776   -1.2923    0.7274 C   0  0  0  0  0  0  0  0  0  0  0  0
   -0.7185   -1.5231    0.0524 C   0  0  0  0  0  0  0  0  0  0  0  0
    1.1799   -1.9676   -1.8925 H   0  0  0  0  0  0  0  0  0  0  0  0
    2.8452   -1.4504   -1.7306 H   0  0  0  0  0  0  0  0  0  0  0  0
    1.6638   -0.3565   -2.4531 H   0  0  0  0  0  0  0  0  0  0  0  0
    1.8344   -1.2872    0.4635 H   0  0  0  0  0  0  0  0  0  0  0  0
    2.1257    1.5378   -0.6997 H   0  0  0  0  0  0  0  0  0  0  0  0
    1.0684    1.0281    1.4156 H   0  0  0  0  0  0  0  0  0  0  0  0
    3.9163   -0.4826    1.9390 H   0  0  0  0  0  0  0  0  0  0  0  0
    6.3367   -0.9157    1.8887 H   0  0  0  0  0  0  0  0  0  0  0  0
    8.2496   -0.6240    0.7154 H   0  0  0  0  0  0  0  0  0  0  0  0
    6.6164    1.0150   -1.9454 H   0  0  0  0  0  0  0  0  0  0  0  0
    4.1866    1.4535   -1.9095 H   0  0  0  0  0  0  0  0  0  0  0  0
   -0.1927    0.6596   -1.8927 H   0  0  0  0  0  0  0  0  0  0  0  0
   -0.2914    1.7199   -0.4942 H   0  0  0  0  0  0  0  0  0  0  0  0
   -2.4997    1.6085   -1.1594 H   0  0  0  0  0  0  0  0  0  0  0  0
   -2.3598   -0.0515   -1.7483 H   0  0  0  0  0  0  0  0  0  0  0  0
   -1.3343    0.8702    1.5748 H   0  0  0  0  0  0  0  0  0  0  0  0
   -4.2851    0.0176    2.6098 H   0  0  0  0  0  0  0  0  0  0  0  0
   -6.7363   -0.1645    2.7491 H   0  0  0  0  0  0  0  0  0  0  0  0
   -8.1017   -0.2760    0.6797 H   0  0  0  0  0  0  0  0  0  0  0  0
   -6.9898   -0.2072   -1.5347 H   0  0  0  0  0  0  0  0  0  0  0  0
   -4.5587   -0.0337   -1.7037 H   0  0  0  0  0  0  0  0  0  0  0  0
   -1.9599   -1.3969    1.8144 H   0  0  0  0  0  0  0  0  0  0  0  0
   -2.7440   -2.1013    0.4006 H   0  0  0  0  0  0  0  0  0  0  0  0
   -0.1944   -2.3024    0.6193 H   0  0  0  0  0  0  0  0  0  0  0  0
   -0.8738   -1.9191   -0.9591 H   0  0  0  0  0  0  0  0  0  0  0  0
  1  2  1  0
  2  3  1  0
  3  4  1  0
  3  5  1  0
  5  6  2  0
  6  7  1  0
  7  8  2  0
  8  9  1  0
  8 10  1  0
 10 11  2  0
  2 12  1  0
 12 13  1  0
 13 14  1  0
 14 15  1  0
 15 16  1  0
 15 17  1  0
 17 18  2  0
 18 19  1  0
 19 20  2  0
 20 21  1  0
 21 22  2  0
 15 23  1  0
 23 24  1  0
 11  5  1  0
 24 12  1  0
 22 17  1  0
  1 25  1  0
  1 26  1  0
  1 27  1  0
  2 28  1  1
  3 29  1  6
  4 30  1  0
  6 31  1  0
  7 32  1  0
  9 33  1  0
 10 34  1  0
 11 35  1  0
 13 36  1  0
 13 37  1  0
 14 38  1  0
 14 39  1  0
 16 40  1  0
 18 41  1  0
 19 42  1  0
 20 43  1  0
 21 44  1  0
 22 45  1  0
 23 46  1  0
 23 47  1  0
 24 48  1  0
 24 49  1  0
M  END
$$$$
