
     RDKit          3D

 48 50  0  0  0  0  0  0  0  0999 V2000
   -4.6201   -2.0020    0.4953 C   0  0  0  0  0  0  0  0  0  0  0  0
   -4.3764   -0.6408    0.8192 O   0  0  0  0  0  0  0  0  0  0  0  0
   -4.3703    0.1895   -0.3432 C   0  0  0  0  0  0  0  0  0  0  0  0
   -4.1009    1.6513    0.0446 C   0  0  0  0  0  0  0  0  0  0  0  0
   -2.7726    1.8600    0.6372 N   0  0  0  0  0  0  0  0  0  0  0  0
   -2.7054    2.0403    2.0222 C   0  0  0  0  0  0  0  0  0  0  0  0
   -3.6897    2.0808    2.7619 O   0  0  0  0  0  0  0  0  0  0  0  0
   -1.3353    2.3245    2.5895 C   0  0  0  0  0  0  0  0  0  0  0  0
   -0.2909    1.4378    1.9532 C   0  0  0  0  0  0  0  0  0  0  0  0
   -0.3514    1.5810    0.4605 C   0  0  0  0  0  0  0  0  0  0  0  0
    0.8178    1.4391   -0.3021 C   0  0  0  0  0  0  0  0  0  0  0  0
    0.7581    1.5058   -1.6901 C   0  0  0  0  0  0  0  0  0  0  0  0
    1.9390    1.3083   -2.4539 N   0  0  0  0  0  0  0  0  0  0  0  0
    2.3023   -0.2697   -2.9465 S   0  0  0  0  0  6  0  0  0  0  0  0
    1.0759   -0.9713   -3.2581 O   0  0  0  0  0  0  0  0  0  0  0  0
    3.3605   -0.1490   -3.9270 O   0  0  0  0  0  0  0  0  0  0  0  0
    3.0140   -0.9754   -1.4851 C   0  0  0  0  0  0  0  0  0  0  0  0
    2.2648   -1.8580   -0.7000 C   0  0  0  0  0  0  0  0  0  0  0  0
    2.8333   -2.4121    0.4492 C   0  0  0  0  0  0  0  0  0  0  0  0
    4.1524   -2.1011    0.8048 C   0  0  0  0  0  0  0  0  0  0  0  0
    4.7688   -2.6658    2.0489 C   0  0  0  0  0  0  0  0  0  0  0  0
    4.8797   -1.2169    0.0002 C   0  0  0  0  0  0  0  0  0  0  0  0
    6.1366   -0.8934    0.3355 F   0  0  0  0  0  0  0  0  0  0  0  0
    4.3288   -0.6567   -1.1456 C   0  0  0  0  0  0  0  0  0  0  0  0
   -0.4634    1.6943   -2.3262 C   0  0  0  0  0  0  0  0  0  0  0  0
   -1.6331    1.8202   -1.5687 C   0  0  0  0  0  0  0  0  0  0  0  0
   -1.5951    1.7636   -0.1679 C   0  0  0  0  0  0  0  0  0  0  0  0
   -4.6178   -2.5824    1.4218 H   0  0  0  0  0  0  0  0  0  0  0  0
   -3.8324   -2.3866   -0.1596 H   0  0  0  0  0  0  0  0  0  0  0  0
   -5.5972   -2.1131    0.0154 H   0  0  0  0  0  0  0  0  0  0  0  0
   -3.6138   -0.1775   -1.0447 H   0  0  0  0  0  0  0  0  0  0  0  0
   -5.3513    0.1277   -0.8285 H   0  0  0  0  0  0  0  0  0  0  0  0
   -4.8694    1.9614    0.7620 H   0  0  0  0  0  0  0  0  0  0  0  0
   -4.2178    2.3133   -0.8195 H   0  0  0  0  0  0  0  0  0  0  0  0
   -1.1148    3.3860    2.4241 H   0  0  0  0  0  0  0  0  0  0  0  0
   -1.3557    2.1480    3.6706 H   0  0  0  0  0  0  0  0  0  0  0  0
   -0.4643    0.3860    2.2116 H   0  0  0  0  0  0  0  0  0  0  0  0
    0.6990    1.7186    2.3307 H   0  0  0  0  0  0  0  0  0  0  0  0
    1.7719    1.2782    0.1938 H   0  0  0  0  0  0  0  0  0  0  0  0
    2.1304    1.9703   -3.2057 H   0  0  0  0  0  0  0  0  0  0  0  0
    1.2412   -2.1118   -0.9702 H   0  0  0  0  0  0  0  0  0  0  0  0
    2.2423   -3.0903    1.0621 H   0  0  0  0  0  0  0  0  0  0  0  0
    5.8034   -2.9721    1.8624 H   0  0  0  0  0  0  0  0  0  0  0  0
    4.7549   -1.9170    2.8470 H   0  0  0  0  0  0  0  0  0  0  0  0
    4.2248   -3.5514    2.3939 H   0  0  0  0  0  0  0  0  0  0  0  0
    4.9246    0.0184   -1.7525 H   0  0  0  0  0  0  0  0  0  0  0  0
   -0.5246    1.7206   -3.4110 H   0  0  0  0  0  0  0  0  0  0  0  0
   -2.5612    1.9660   -2.1112 H   0  0  0  0  0  0  0  0  0  0  0  0
  1  2  1  0
  2  3  1  0
  3  4  1  0
  4  5  1  0
  5  6  1  0
  6  7  2  0
  6  8  1  0
  8  9  1  0
  9 10  1  0
 10 11  2  0
 11 12  1  0
 12 13  1  0
 13 14  1  0
 14 15  2  0
 14 16  2  0
 14 17  1  0
 17 18  2  0
 18 19  1  0
 19 20  2  0
 20 21  1  0
 20 22  1  0
 22 23  1  0
 22 24  2  0
 12 25  2  0
 25 26  1  0
 26 27  2  0
 27  5  1  0
 27 10  1  0
 24 17  1  0
  1 28  1  0
  1 29  1  0
  1 30  1  0
  3 31  1  0
  3 32  1  0
  4 33  1  0
  4 34  1  0
  8 35  1  0
  8 36  1  0
  9 37  1  0
  9 38  1  0
 11 39  1  0
 13 40  1  0
 18 41  1  0
 19 42  1  0
 21 43  1  0
 21 44  1  0
 21 45  1  0
 24 46  1  0
 25 47  1  0
 26 48  1  0
M  END
$$$$
