
     RDKit          3D

 25 28  0  0  0  0  0  0  0  0999 V2000
   -0.2248    2.9318   -0.1527 O   0  0  0  0  0  0  0  0  0  0  0  0
   -0.1466    1.7114   -0.0890 C   0  0  0  0  0  0  0  0  0  0  0  0
   -1.3865    0.8310   -0.0303 C   0  0  0  0  0  0  0  0  0  0  0  0
   -2.6441    1.4412   -0.0503 C   0  0  0  0  0  0  0  0  0  0  0  0
   -3.7980    0.6551    0.0026 C   0  0  0  0  0  0  0  0  0  0  0  0
   -3.7044   -0.7383    0.0753 C   0  0  0  0  0  0  0  0  0  0  0  0
   -2.4560   -1.3640    0.0961 C   0  0  0  0  0  0  0  0  0  0  0  0
   -1.2965   -0.5890    0.0438 C   0  0  0  0  0  0  0  0  0  0  0  0
    0.0300   -1.1788    0.0620 C   0  0  0  0  0  0  0  0  0  0  0  0
    0.4051   -2.4611    0.1261 N   0  0  0  0  0  0  0  0  0  0  0  0
    1.7662   -2.3924    0.1091 N   0  0  0  0  0  0  0  0  0  0  0  0
    2.2648   -1.1152    0.0368 C   0  0  0  0  0  0  0  0  0  0  0  0
    3.5389   -0.5454   -0.0058 C   0  0  0  0  0  0  0  0  0  0  0  0
    3.5933    0.8655   -0.0809 C   0  0  0  0  0  0  0  0  0  0  0  0
    2.4344    1.6630   -0.1117 C   0  0  0  0  0  0  0  0  0  0  0  0
    1.1839    1.0528   -0.0672 C   0  0  0  0  0  0  0  0  0  0  0  0
    1.1369   -0.3305    0.0063 C   0  0  0  0  0  0  0  0  0  0  0  0
   -2.7288    2.5245   -0.1067 H   0  0  0  0  0  0  0  0  0  0  0  0
   -4.7760    1.1314   -0.0130 H   0  0  0  0  0  0  0  0  0  0  0  0
   -4.6099   -1.3398    0.1159 H   0  0  0  0  0  0  0  0  0  0  0  0
   -2.3914   -2.4484    0.1528 H   0  0  0  0  0  0  0  0  0  0  0  0
    2.2892   -3.2600    0.1498 H   0  0  0  0  0  0  0  0  0  0  0  0
    4.4436   -1.1437    0.0169 H   0  0  0  0  0  0  0  0  0  0  0  0
    4.5672    1.3530   -0.1162 H   0  0  0  0  0  0  0  0  0  0  0  0
    2.5094    2.7460   -0.1697 H   0  0  0  0  0  0  0  0  0  0  0  0
  1  2  2  0
  2  3  1  0
  3  4  2  0
  4  5  1  0
  5  6  2  0
  6  7  1  0
  7  8  2  0
  8  9  1  0
  9 10  2  0
 10 11  1  0
 11 12  1  0
 12 13  1  0
 13 14  2  0
 14 15  1  0
 15 16  2  0
 16 17  1  0
 16  2  1  0
  8  3  1  0
 17  9  1  0
 17 12  2  0
  4 18  1  0
  5 19  1  0
  6 20  1  0
  7 21  1  0
 11 22  1  0
 13 23  1  0
 14 24  1  0
 15 25  1  0
M  END
$$$$
