
     RDKit          3D

 52 54  0  0  0  0  0  0  0  0999 V2000
   -0.9541    2.4520    3.5153 C   0  0  0  0  0  0  0  0  0  0  0  0
   -1.8195    1.8656    2.5540 O   0  0  0  0  0  0  0  0  0  0  0  0
   -1.2804    0.6584    2.0208 C   0  0  0  0  0  0  0  0  0  0  0  0
   -2.3225   -0.1166    1.1920 C   0  0  0  0  0  0  0  0  0  0  0  0
   -3.5052   -0.0996    1.5534 O   0  0  0  0  0  0  0  0  0  0  0  0
   -1.9258   -0.8638    0.0684 N   0  0  0  0  0  0  0  0  0  0  0  0
   -2.9899   -1.5646   -0.6975 C   0  0  0  0  0  0  0  0  0  0  0  0
   -3.9867   -0.6079   -1.3617 C   0  0  0  0  0  0  0  0  0  0  0  0
   -5.0001   -1.3801   -2.2050 C   0  0  0  0  0  0  0  0  0  0  0  0
   -5.1841   -2.7312   -1.7788 O   0  0  0  0  0  0  0  0  0  0  0  0
   -5.1304   -2.8659   -0.3612 C   0  0  0  0  0  0  0  0  0  0  0  0
   -3.6970   -2.6675    0.1118 C   0  0  0  0  0  0  0  0  0  0  0  0
   -0.5890   -0.8500   -0.5581 C   0  0  0  0  0  0  0  0  0  0  0  0
   -0.2104    0.4896   -1.2001 C   0  0  0  0  0  0  0  0  0  0  0  0
    1.3090    0.4440   -1.2496 C   0  0  0  0  0  0  0  0  0  0  0  0
    1.6969   -0.3733   -0.1074 N   0  0  0  0  0  0  0  0  0  0  0  0
    2.8790   -0.3374    0.6081 C   0  0  0  0  0  0  0  0  0  0  0  0
    3.0265   -0.9344    1.6711 O   0  0  0  0  0  0  0  0  0  0  0  0
    4.0020    0.4607    0.1080 C   0  0  0  0  0  0  0  0  0  0  0  0
    4.4818    0.3789   -1.1780 C   0  0  0  0  0  0  0  0  0  0  0  0
    5.5234    1.1097   -1.6334 N   0  0  0  0  0  0  0  0  0  0  0  0
    6.1234    1.9221   -0.7390 C   0  0  0  0  0  0  0  0  0  0  0  0
    7.2645    2.7633   -1.2184 C   0  0  0  0  0  0  0  0  0  0  0  0
    5.7432    2.0549    0.5476 N   0  0  0  0  0  0  0  0  0  0  0  0
    4.6946    1.3009    0.9484 C   0  0  0  0  0  0  0  0  0  0  0  0
    0.6072   -1.2379    0.3242 C   0  0  0  0  0  0  0  0  0  0  0  0
   -1.4073    3.3836    3.8643 H   0  0  0  0  0  0  0  0  0  0  0  0
   -0.8256    1.7844    4.3726 H   0  0  0  0  0  0  0  0  0  0  0  0
    0.0176    2.6816    3.0677 H   0  0  0  0  0  0  0  0  0  0  0  0
   -0.4022    0.9282    1.4409 H   0  0  0  0  0  0  0  0  0  0  0  0
   -0.9808   -0.0041    2.8417 H   0  0  0  0  0  0  0  0  0  0  0  0
   -2.4973   -2.0919   -1.5256 H   0  0  0  0  0  0  0  0  0  0  0  0
   -4.5386   -0.0358   -0.6077 H   0  0  0  0  0  0  0  0  0  0  0  0
   -3.4734    0.1375   -1.9807 H   0  0  0  0  0  0  0  0  0  0  0  0
   -4.6635   -1.4209   -3.2462 H   0  0  0  0  0  0  0  0  0  0  0  0
   -5.9703   -0.8712   -2.2011 H   0  0  0  0  0  0  0  0  0  0  0  0
   -5.4757   -3.8706   -0.0974 H   0  0  0  0  0  0  0  0  0  0  0  0
   -5.8158   -2.1498    0.1077 H   0  0  0  0  0  0  0  0  0  0  0  0
   -3.1355   -3.5998   -0.0362 H   0  0  0  0  0  0  0  0  0  0  0  0
   -3.6913   -2.4971    1.1925 H   0  0  0  0  0  0  0  0  0  0  0  0
   -0.5905   -1.5917   -1.3679 H   0  0  0  0  0  0  0  0  0  0  0  0
   -0.5446    1.3461   -0.6077 H   0  0  0  0  0  0  0  0  0  0  0  0
   -0.6492    0.6083   -2.1964 H   0  0  0  0  0  0  0  0  0  0  0  0
    1.7567    1.4403   -1.2046 H   0  0  0  0  0  0  0  0  0  0  0  0
    1.6482   -0.0679   -2.1565 H   0  0  0  0  0  0  0  0  0  0  0  0
    4.0515   -0.3008   -1.9062 H   0  0  0  0  0  0  0  0  0  0  0  0
    7.8232    2.2423   -2.0019 H   0  0  0  0  0  0  0  0  0  0  0  0
    7.9524    2.9848   -0.3968 H   0  0  0  0  0  0  0  0  0  0  0  0
    6.8830    3.7051   -1.6232 H   0  0  0  0  0  0  0  0  0  0  0  0
    4.4229    1.4036    1.9956 H   0  0  0  0  0  0  0  0  0  0  0  0
    0.9023   -2.2787    0.1465 H   0  0  0  0  0  0  0  0  0  0  0  0
    0.4475   -1.1354    1.3987 H   0  0  0  0  0  0  0  0  0  0  0  0
  1  2  1  0
  2  3  1  0
  3  4  1  0
  4  5  2  0
  4  6  1  0
  6  7  1  0
  7  8  1  0
  8  9  1  0
  9 10  1  0
 10 11  1  0
 11 12  1  0
  6 13  1  0
 13 14  1  0
 14 15  1  0
 15 16  1  0
 16 17  1  0
 17 18  2  0
 17 19  1  0
 19 20  2  0
 20 21  1  0
 21 22  2  0
 22 23  1  0
 22 24  1  0
 24 25  2  0
 16 26  1  0
 12  7  1  0
 26 13  1  0
 25 19  1  0
  1 27  1  0
  1 28  1  0
  1 29  1  0
  3 30  1  0
  3 31  1  0
  7 32  1  0
  8 33  1  0
  8 34  1  0
  9 35  1  0
  9 36  1  0
 11 37  1  0
 11 38  1  0
 12 39  1  0
 12 40  1  0
 13 41  1  0
 14 42  1  0
 14 43  1  0
 15 44  1  0
 15 45  1  0
 20 46  1  0
 23 47  1  0
 23 48  1  0
 23 49  1  0
 25 50  1  0
 26 51  1  0
 26 52  1  0
M  END
$$$$
