
     RDKit          3D

 48 50  0  0  0  0  0  0  0  0999 V2000
   -4.5692    3.1570    2.0811 C   0  0  0  0  0  0  0  0  0  0  0  0
   -4.0105    2.0038    1.3018 C   0  0  0  0  0  0  0  0  0  0  0  0
   -2.8670    2.1678    0.5133 C   0  0  0  0  0  0  0  0  0  0  0  0
   -2.3274    1.0839   -0.1845 C   0  0  0  0  0  0  0  0  0  0  0  0
   -2.9081   -0.1892   -0.0965 C   0  0  0  0  0  0  0  0  0  0  0  0
   -2.3410   -1.3241   -0.8385 C   0  0  0  0  0  0  0  0  0  0  0  0
   -2.6334   -1.4349   -2.2138 C   0  0  0  0  0  0  0  0  0  0  0  0
   -2.1475   -2.4983   -2.9734 C   0  0  0  0  0  0  0  0  0  0  0  0
   -1.3683   -3.4661   -2.3623 C   0  0  0  0  0  0  0  0  0  0  0  0
   -0.9063   -4.4961   -3.0828 F   0  0  0  0  0  0  0  0  0  0  0  0
   -1.0592   -3.3858   -1.0100 C   0  0  0  0  0  0  0  0  0  0  0  0
   -1.5256   -2.3097   -0.2308 C   0  0  0  0  0  0  0  0  0  0  0  0
   -1.1547   -2.2732    1.2413 C   0  0  0  0  0  0  0  0  0  0  0  0
   -0.5911   -1.0336    1.6682 O   0  0  0  0  0  0  0  0  0  0  0  0
    0.7052   -0.7382    1.3617 C   0  0  0  0  0  0  0  0  0  0  0  0
    1.0916    0.5618    1.6976 C   0  0  0  0  0  0  0  0  0  0  0  0
    2.3875    1.0128    1.4403 C   0  0  0  0  0  0  0  0  0  0  0  0
    3.3240    0.1616    0.8442 C   0  0  0  0  0  0  0  0  0  0  0  0
    4.7160    0.6526    0.5380 C   0  0  0  0  0  0  0  0  0  0  0  0
    4.7658    1.3948   -0.7896 C   0  0  0  0  0  0  0  0  0  0  0  0
    6.1608    1.8633   -1.0682 C   0  0  0  0  0  0  0  0  0  0  0  0
    6.9579    1.3476   -1.8333 O   0  0  0  0  0  0  0  0  0  0  0  0
    6.4946    2.9599   -0.3633 O   0  0  0  0  0  0  0  0  0  0  0  0
    2.9360   -1.1413    0.5097 C   0  0  0  0  0  0  0  0  0  0  0  0
    1.6355   -1.5900    0.7715 C   0  0  0  0  0  0  0  0  0  0  0  0
   -4.0493   -0.3487    0.7020 C   0  0  0  0  0  0  0  0  0  0  0  0
   -4.5912    0.7346    1.3998 C   0  0  0  0  0  0  0  0  0  0  0  0
   -5.6560    3.0694    2.1809 H   0  0  0  0  0  0  0  0  0  0  0  0
   -4.3658    4.1069    1.5754 H   0  0  0  0  0  0  0  0  0  0  0  0
   -4.1224    3.1852    3.0795 H   0  0  0  0  0  0  0  0  0  0  0  0
   -2.3843    3.1392    0.4379 H   0  0  0  0  0  0  0  0  0  0  0  0
   -1.4334    1.2317   -0.7872 H   0  0  0  0  0  0  0  0  0  0  0  0
   -3.2549   -0.6819   -2.6959 H   0  0  0  0  0  0  0  0  0  0  0  0
   -2.3781   -2.5768   -4.0306 H   0  0  0  0  0  0  0  0  0  0  0  0
   -0.4475   -4.1707   -0.5747 H   0  0  0  0  0  0  0  0  0  0  0  0
   -2.0756   -2.4208    1.8190 H   0  0  0  0  0  0  0  0  0  0  0  0
   -0.5062   -3.1101    1.5296 H   0  0  0  0  0  0  0  0  0  0  0  0
    0.3696    1.2322    2.1588 H   0  0  0  0  0  0  0  0  0  0  0  0
    2.6570    2.0323    1.7068 H   0  0  0  0  0  0  0  0  0  0  0  0
    5.0589    1.2995    1.3558 H   0  0  0  0  0  0  0  0  0  0  0  0
    5.4144   -0.1944    0.5255 H   0  0  0  0  0  0  0  0  0  0  0  0
    4.4515    0.7470   -1.6170 H   0  0  0  0  0  0  0  0  0  0  0  0
    4.0933    2.2607   -0.8030 H   0  0  0  0  0  0  0  0  0  0  0  0
    7.4141    3.1531   -0.6436 H   0  0  0  0  0  0  0  0  0  0  0  0
    3.6440   -1.8212    0.0402 H   0  0  0  0  0  0  0  0  0  0  0  0
    1.3901   -2.6093    0.4996 H   0  0  0  0  0  0  0  0  0  0  0  0
   -4.5236   -1.3239    0.7860 H   0  0  0  0  0  0  0  0  0  0  0  0
   -5.4705    0.5797    2.0208 H   0  0  0  0  0  0  0  0  0  0  0  0
  1  2  1  0
  2  3  2  0
  3  4  1  0
  4  5  2  0
  5  6  1  0
  6  7  2  0
  7  8  1  0
  8  9  2  0
  9 10  1  0
  9 11  1  0
 11 12  2  0
 12 13  1  0
 13 14  1  0
 14 15  1  0
 15 16  2  0
 16 17  1  0
 17 18  2  0
 18 19  1  0
 19 20  1  0
 20 21  1  0
 21 22  2  0
 21 23  1  0
 18 24  1  0
 24 25  2  0
  5 26  1  0
 26 27  2  0
 27  2  1  0
 12  6  1  0
 25 15  1  0
  1 28  1  0
  1 29  1  0
  1 30  1  0
  3 31  1  0
  4 32  1  0
  7 33  1  0
  8 34  1  0
 11 35  1  0
 13 36  1  0
 13 37  1  0
 16 38  1  0
 17 39  1  0
 19 40  1  0
 19 41  1  0
 20 42  1  0
 20 43  1  0
 23 44  1  0
 24 45  1  0
 25 46  1  0
 26 47  1  0
 27 48  1  0
M  END
$$$$
