
     RDKit          3D

 26 27  0  0  0  0  0  0  0  0999 V2000
    4.9128    1.5309    1.0864 O   0  0  0  0  0  0  0  0  0  0  0  0
    3.9145    0.8358    1.2146 C   0  0  0  0  0  0  0  0  0  0  0  0
    3.8131   -0.0198    2.2567 O   0  0  0  0  0  0  0  0  0  0  0  0
    2.7614    0.7966    0.3556 C   0  0  0  0  0  0  0  0  0  0  0  0
    2.4795    1.4933   -0.8032 C   0  0  0  0  0  0  0  0  0  0  0  0
    1.2027    1.0625   -1.2387 C   0  0  0  0  0  0  0  0  0  0  0  0
    0.7620    0.1273   -0.3228 C   0  0  0  0  0  0  0  0  0  0  0  0
   -0.4453   -0.6863   -0.1727 C   0  0  0  0  0  0  0  0  0  0  0  0
   -0.3935   -1.8810    0.5671 C   0  0  0  0  0  0  0  0  0  0  0  0
   -1.5185   -2.6996    0.7046 C   0  0  0  0  0  0  0  0  0  0  0  0
   -2.7183   -2.3428    0.0973 C   0  0  0  0  0  0  0  0  0  0  0  0
   -2.7980   -1.1610   -0.6352 C   0  0  0  0  0  0  0  0  0  0  0  0
   -1.6781   -0.3264   -0.7472 C   0  0  0  0  0  0  0  0  0  0  0  0
   -1.7965    0.8234   -1.4848 O   0  0  0  0  0  0  0  0  0  0  0  0
   -2.4462    1.8471   -0.7363 C   0  0  0  0  0  0  0  0  0  0  0  0
   -3.7634    1.5807   -0.6004 F   0  0  0  0  0  0  0  0  0  0  0  0
   -1.8916    2.0093    0.4832 F   0  0  0  0  0  0  0  0  0  0  0  0
   -2.3236    3.0117   -1.4122 F   0  0  0  0  0  0  0  0  0  0  0  0
    1.7149   -0.0369    0.6445 O   0  0  0  0  0  0  0  0  0  0  0  0
    4.6487    0.1158    2.7458 H   0  0  0  0  0  0  0  0  0  0  0  0
    3.1272    2.2211   -1.2735 H   0  0  0  0  0  0  0  0  0  0  0  0
    0.6748    1.3915   -2.1229 H   0  0  0  0  0  0  0  0  0  0  0  0
    0.5373   -2.1924    1.0391 H   0  0  0  0  0  0  0  0  0  0  0  0
   -1.4501   -3.6204    1.2790 H   0  0  0  0  0  0  0  0  0  0  0  0
   -3.5898   -2.9857    0.1925 H   0  0  0  0  0  0  0  0  0  0  0  0
   -3.7361   -0.8946   -1.1165 H   0  0  0  0  0  0  0  0  0  0  0  0
  1  2  2  0
  2  3  1  0
  2  4  1  0
  4  5  2  0
  5  6  1  0
  6  7  2  0
  7  8  1  0
  8  9  2  0
  9 10  1  0
 10 11  2  0
 11 12  1  0
 12 13  2  0
 13 14  1  0
 14 15  1  0
 15 16  1  0
 15 17  1  0
 15 18  1  0
  7 19  1  0
 19  4  1  0
 13  8  1  0
  3 20  1  0
  5 21  1  0
  6 22  1  0
  9 23  1  0
 10 24  1  0
 11 25  1  0
 12 26  1  0
M  END
$$$$
