
     RDKit          3D

 49 48  0  0  0  0  0  0  0  0999 V2000
    0.6863    0.0000    0.0000 Cl  0  0  0  0  0  0  0  0  0  0  0  0
    0.6906    0.0000    0.0000 Cl  0  0  0  0  0  0  0  0  0  0  0  0
   -1.0702   -3.1313    0.6087 N   0  0  0  0  0  0  0  0  0  0  0  0
   -1.4015   -1.6943    0.6147 C   0  0  1  0  0  0  0  0  0  0  0  0
   -0.0973   -0.9356    0.7045 C   0  0  0  0  0  0  0  0  0  0  0  0
    0.8039   -1.2488   -0.4636 C   0  0  0  0  0  0  0  0  0  0  0  0
    2.0353   -0.6053   -0.4817 N   0  0  0  0  0  0  0  0  0  0  0  0
    3.0191   -0.9128    0.4695 C   0  0  0  0  0  0  0  0  0  0  0  0
    4.2160   -0.0709    0.1981 C   0  0  0  0  0  0  0  0  0  0  0  0
    4.2414    1.1764    0.7828 C   0  0  0  0  0  0  0  0  0  0  0  0
    5.2881    2.0445    0.6112 C   0  0  0  0  0  0  0  0  0  0  0  0
    6.3437    1.6478   -0.1730 C   0  0  0  0  0  0  0  0  0  0  0  0
    7.6961    2.7633   -0.3971 Cl  0  0  0  0  0  0  0  0  0  0  0  0
    6.3371    0.3961   -0.7705 C   0  0  0  0  0  0  0  0  0  0  0  0
    5.2644   -0.4623   -0.5795 C   0  0  0  0  0  0  0  0  0  0  0  0
   -2.2412   -1.3625   -0.5199 C   0  0  0  0  0  0  0  0  0  0  0  0
   -2.4448   -2.1626   -1.5000 O   0  0  0  0  0  0  0  0  0  0  0  0
   -2.8887   -0.1179   -0.6037 N   0  0  0  0  0  0  0  0  0  0  0  0
   -3.6883    0.1945   -1.7983 C   0  0  0  0  0  0  0  0  0  0  0  0
   -5.0227    0.7755   -1.4295 C   0  0  0  0  0  0  0  0  0  0  0  0
   -4.7271    2.0340   -0.6051 C   0  0  0  0  0  0  0  0  0  0  0  0
   -4.1630    1.5373    0.6976 C   0  0  0  0  0  0  0  0  0  0  0  0
   -2.8211    0.8704    0.4351 C   0  0  0  0  0  0  0  0  0  0  0  0
   -0.6863    0.0000    0.0000 H   0  0  0  0  0  0  0  0  0  0  0  0
   -0.6906    0.0000    0.0000 H   0  0  0  0  0  0  0  0  0  0  0  0
   -1.9315   -3.7002    0.8265 H   0  0  0  0  0  0  0  0  0  0  0  0
   -0.3677   -3.2921    1.3390 H   0  0  0  0  0  0  0  0  0  0  0  0
   -1.9471   -1.5319    1.5528 H   0  0  0  0  0  0  0  0  0  0  0  0
   -0.2494    0.1525    0.7333 H   0  0  0  0  0  0  0  0  0  0  0  0
    0.3396   -1.2342    1.6805 H   0  0  0  0  0  0  0  0  0  0  0  0
    0.8809   -2.3713   -0.5239 H   0  0  0  0  0  0  0  0  0  0  0  0
    0.2419   -0.9556   -1.3784 H   0  0  0  0  0  0  0  0  0  0  0  0
    2.1798    0.2024   -1.0843 H   0  0  0  0  0  0  0  0  0  0  0  0
    3.3855   -1.9781    0.3734 H   0  0  0  0  0  0  0  0  0  0  0  0
    2.7679   -0.7635    1.5207 H   0  0  0  0  0  0  0  0  0  0  0  0
    3.4163    1.5340    1.4179 H   0  0  0  0  0  0  0  0  0  0  0  0
    5.2907    3.0058    1.0720 H   0  0  0  0  0  0  0  0  0  0  0  0
    7.1835    0.1037   -1.3868 H   0  0  0  0  0  0  0  0  0  0  0  0
    5.2528   -1.4550   -1.0499 H   0  0  0  0  0  0  0  0  0  0  0  0
   -3.8048   -0.7147   -2.4442 H   0  0  0  0  0  0  0  0  0  0  0  0
   -3.1310    0.9460   -2.4116 H   0  0  0  0  0  0  0  0  0  0  0  0
   -5.5065    0.0621   -0.7136 H   0  0  0  0  0  0  0  0  0  0  0  0
   -5.6502    0.9804   -2.2946 H   0  0  0  0  0  0  0  0  0  0  0  0
   -5.6318    2.6442   -0.4800 H   0  0  0  0  0  0  0  0  0  0  0  0
   -3.9331    2.5955   -1.1399 H   0  0  0  0  0  0  0  0  0  0  0  0
   -4.8577    0.7274    1.0507 H   0  0  0  0  0  0  0  0  0  0  0  0
   -4.0704    2.3162    1.4640 H   0  0  0  0  0  0  0  0  0  0  0  0
   -2.4660    0.3733    1.3748 H   0  0  0  0  0  0  0  0  0  0  0  0
   -2.0705    1.6178    0.1306 H   0  0  0  0  0  0  0  0  0  0  0  0
  3  4  1  0
  4  5  1  0
  5  6  1  0
  6  7  1  0
  7  8  1  0
  8  9  1  0
  9 10  2  0
 10 11  1  0
 11 12  2  0
 12 13  1  0
 12 14  1  0
 14 15  2  0
  4 16  1  0
 16 17  2  0
 16 18  1  0
 18 19  1  0
 19 20  1  0
 20 21  1  0
 21 22  1  0
 22 23  1  0
 15  9  1  0
 23 18  1  0
  1 24  1  0
  2 25  1  0
  3 26  1  0
  3 27  1  0
  4 28  1  1
  5 29  1  0
  5 30  1  0
  6 31  1  0
  6 32  1  0
  7 33  1  0
  8 34  1  0
  8 35  1  0
 10 36  1  0
 11 37  1  0
 14 38  1  0
 15 39  1  0
 19 40  1  0
 19 41  1  0
 20 42  1  0
 20 43  1  0
 21 44  1  0
 21 45  1  0
 22 46  1  0
 22 47  1  0
 23 48  1  0
 23 49  1  0
M  END
$$$$
