
     RDKit          3D

 48 52  0  0  0  0  0  0  0  0999 V2000
    8.0466   -1.4387   -0.3763 N   0  0  0  0  0  0  0  0  0  0  0  0
    7.0267   -2.1136    0.2370 C   0  0  0  0  0  0  0  0  0  0  0  0
    7.2314   -3.1825    0.7972 O   0  0  0  0  0  0  0  0  0  0  0  0
    5.6668   -1.5180    0.1552 C   0  0  0  0  0  0  0  0  0  0  0  0
    4.5610   -2.3602    0.2978 C   0  0  0  0  0  0  0  0  0  0  0  0
    3.2660   -1.8372    0.2240 C   0  0  0  0  0  0  0  0  0  0  0  0
    3.0484   -0.4655    0.0217 C   0  0  0  0  0  0  0  0  0  0  0  0
    1.6710    0.0353   -0.0465 C   0  0  0  0  0  0  0  0  0  0  0  0
    0.5798   -0.7055   -0.1037 N   0  0  0  0  0  0  0  0  0  0  0  0
   -0.4837    0.1672   -0.1721 C   0  0  0  0  0  0  0  0  0  0  0  0
   -1.8437   -0.3110   -0.3168 C   0  0  0  0  0  0  0  0  0  0  0  0
   -2.6724    0.1672   -1.3424 C   0  0  0  0  0  0  0  0  0  0  0  0
   -3.9815   -0.3041   -1.4692 C   0  0  0  0  0  0  0  0  0  0  0  0
   -4.4631   -1.2604   -0.5782 C   0  0  0  0  0  0  0  0  0  0  0  0
   -3.6264   -1.7742    0.4183 C   0  0  0  0  0  0  0  0  0  0  0  0
   -2.3243   -1.2956    0.5548 C   0  0  0  0  0  0  0  0  0  0  0  0
   -4.0231   -2.7452    1.3027 O   0  0  0  0  0  0  0  0  0  0  0  0
   -5.2100   -3.4053    0.8492 C   0  0  0  0  0  0  0  0  0  0  0  0
   -6.2414   -2.3891    0.3879 C   0  0  0  0  0  0  0  0  0  0  0  0
   -5.7640   -1.6600   -0.7488 O   0  0  0  0  0  0  0  0  0  0  0  0
   -0.0542    1.4796   -0.0821 C   0  0  0  0  0  0  0  0  0  0  0  0
   -0.6829    2.7891   -0.0134 C   0  0  0  0  0  0  0  0  0  0  0  0
   -1.9781    3.0008    0.4406 C   0  0  0  0  0  0  0  0  0  0  0  0
   -2.4675    4.3045    0.4790 C   0  0  0  0  0  0  0  0  0  0  0  0
   -1.6503    5.3526    0.0747 C   0  0  0  0  0  0  0  0  0  0  0  0
   -0.3657    5.0539   -0.3456 C   0  0  0  0  0  0  0  0  0  0  0  0
    0.1403    3.8011   -0.3905 N   0  0  0  0  0  0  0  0  0  0  0  0
    1.3190    1.3611   -0.0526 N   0  0  0  0  0  0  0  0  0  0  0  0
    4.1659    0.3732   -0.1073 C   0  0  0  0  0  0  0  0  0  0  0  0
    5.4660   -0.1468   -0.0386 C   0  0  0  0  0  0  0  0  0  0  0  0
    8.9267   -1.9372   -0.4249 H   0  0  0  0  0  0  0  0  0  0  0  0
    7.8698   -0.7495   -1.0926 H   0  0  0  0  0  0  0  0  0  0  0  0
    4.7000   -3.4270    0.4625 H   0  0  0  0  0  0  0  0  0  0  0  0
    2.4159   -2.5109    0.3297 H   0  0  0  0  0  0  0  0  0  0  0  0
   -2.3018    0.9036   -2.0522 H   0  0  0  0  0  0  0  0  0  0  0  0
   -4.6232    0.0753   -2.2594 H   0  0  0  0  0  0  0  0  0  0  0  0
   -1.6789   -1.6995    1.3314 H   0  0  0  0  0  0  0  0  0  0  0  0
   -5.6037   -3.9912    1.6856 H   0  0  0  0  0  0  0  0  0  0  0  0
   -4.9391   -4.0987    0.0433 H   0  0  0  0  0  0  0  0  0  0  0  0
   -7.1656   -2.8955    0.0923 H   0  0  0  0  0  0  0  0  0  0  0  0
   -6.4830   -1.6733    1.1834 H   0  0  0  0  0  0  0  0  0  0  0  0
   -2.6036    2.1827    0.7790 H   0  0  0  0  0  0  0  0  0  0  0  0
   -3.4783    4.4977    0.8278 H   0  0  0  0  0  0  0  0  0  0  0  0
   -2.0040    6.3775    0.0929 H   0  0  0  0  0  0  0  0  0  0  0  0
    0.3124    5.8397   -0.6664 H   0  0  0  0  0  0  0  0  0  0  0  0
    1.9399    2.1553   -0.0095 H   0  0  0  0  0  0  0  0  0  0  0  0
    4.0523    1.4420   -0.2649 H   0  0  0  0  0  0  0  0  0  0  0  0
    6.3073    0.5361   -0.1142 H   0  0  0  0  0  0  0  0  0  0  0  0
  1  2  1  0
  2  3  2  0
  2  4  1  0
  4  5  2  0
  5  6  1  0
  6  7  2  0
  7  8  1  0
  8  9  2  0
  9 10  1  0
 10 11  1  0
 11 12  2  0
 12 13  1  0
 13 14  2  0
 14 15  1  0
 15 16  2  0
 15 17  1  0
 17 18  1  0
 18 19  1  0
 19 20  1  0
 10 21  2  0
 21 22  1  0
 22 23  2  0
 23 24  1  0
 24 25  2  0
 25 26  1  0
 26 27  2  0
 21 28  1  0
  7 29  1  0
 29 30  2  0
 30  4  1  0
 28  8  1  0
 16 11  1  0
 27 22  1  0
 20 14  1  0
  1 31  1  0
  1 32  1  0
  5 33  1  0
  6 34  1  0
 12 35  1  0
 13 36  1  0
 16 37  1  0
 18 38  1  0
 18 39  1  0
 19 40  1  0
 19 41  1  0
 23 42  1  0
 24 43  1  0
 25 44  1  0
 26 45  1  0
 28 46  1  0
 29 47  1  0
 30 48  1  0
M  END
$$$$
