
     RDKit          3D

 45 47  0  0  0  0  0  0  0  0999 V2000
    4.5456    5.0472   -4.5024 C   0  0  0  0  0  0  0  0  0  0  0  0
    3.3566    4.3111   -5.1038 C   0  0  0  0  0  0  0  0  0  0  0  0
    2.4599    3.6853   -4.0373 C   0  0  0  0  0  0  0  0  0  0  0  0
    3.2040    2.6906   -3.3350 O   0  0  0  0  0  0  0  0  0  0  0  0
    2.5660    2.0297   -2.3234 C   0  0  0  0  0  0  0  0  0  0  0  0
    3.3538    1.0955   -1.6494 C   0  0  0  0  0  0  0  0  0  0  0  0
    2.8268    0.3474   -0.5919 C   0  0  0  0  0  0  0  0  0  0  0  0
    1.4963    0.5187   -0.1880 C   0  0  0  0  0  0  0  0  0  0  0  0
    0.9689   -0.2751    0.9189 C   0  0  0  0  0  0  0  0  0  0  0  0
    1.5828   -1.1741    1.6637 N   0  0  0  0  0  0  0  0  0  0  0  0
    0.6053   -1.5879    2.5426 C   0  0  0  0  0  0  0  0  0  0  0  0
    0.8878   -2.5579    3.5478 C   0  0  0  0  0  0  0  0  0  0  0  0
    1.1053   -3.3507    4.3689 N   0  0  0  0  0  0  0  0  0  0  0  0
   -0.5826   -0.9322    2.2894 C   0  0  0  0  0  0  0  0  0  0  0  0
   -1.8443   -0.8961    2.7665 N   0  0  0  0  0  0  0  0  0  0  0  0
   -2.4297   -1.9739    3.5530 C   0  0  0  0  0  0  0  0  0  0  0  0
   -2.8118   -3.2009    2.7026 C   0  0  0  0  0  0  0  0  0  0  0  0
   -3.9137   -2.9305    1.6835 C   0  0  0  0  0  0  0  0  0  0  0  0
   -5.1653   -3.3215    2.4284 C   0  0  0  0  0  0  0  0  0  0  0  0
   -4.6842   -4.5001    3.2418 C   0  0  0  0  0  0  0  0  0  0  0  0
   -3.3195   -4.2261    3.5827 O   0  0  0  0  0  0  0  0  0  0  0  0
   -0.3477   -0.0806    1.2461 O   0  0  0  0  0  0  0  0  0  0  0  0
    0.7112    1.4590   -0.8712 C   0  0  0  0  0  0  0  0  0  0  0  0
    1.2408    2.2090   -1.9308 C   0  0  0  0  0  0  0  0  0  0  0  0
    4.2128    5.8429   -3.8282 H   0  0  0  0  0  0  0  0  0  0  0  0
    5.1923    4.3672   -3.9393 H   0  0  0  0  0  0  0  0  0  0  0  0
    5.1467    5.5035   -5.2952 H   0  0  0  0  0  0  0  0  0  0  0  0
    2.7678    5.0099   -5.7082 H   0  0  0  0  0  0  0  0  0  0  0  0
    3.7345    3.5279   -5.7712 H   0  0  0  0  0  0  0  0  0  0  0  0
    1.5982    3.2229   -4.5334 H   0  0  0  0  0  0  0  0  0  0  0  0
    2.1152    4.4641   -3.3462 H   0  0  0  0  0  0  0  0  0  0  0  0
    4.3892    0.9478   -1.9482 H   0  0  0  0  0  0  0  0  0  0  0  0
    3.4662   -0.3731   -0.0841 H   0  0  0  0  0  0  0  0  0  0  0  0
   -2.5137   -0.3294    2.2510 H   0  0  0  0  0  0  0  0  0  0  0  0
   -1.7622   -2.2736    4.3691 H   0  0  0  0  0  0  0  0  0  0  0  0
   -3.3238   -1.5865    4.0573 H   0  0  0  0  0  0  0  0  0  0  0  0
   -1.9208   -3.5957    2.2022 H   0  0  0  0  0  0  0  0  0  0  0  0
   -3.7838   -3.6002    0.8240 H   0  0  0  0  0  0  0  0  0  0  0  0
   -3.9392   -1.9073    1.3007 H   0  0  0  0  0  0  0  0  0  0  0  0
   -6.0054   -3.5692    1.7744 H   0  0  0  0  0  0  0  0  0  0  0  0
   -5.4744   -2.5060    3.0923 H   0  0  0  0  0  0  0  0  0  0  0  0
   -4.7052   -5.4242    2.6543 H   0  0  0  0  0  0  0  0  0  0  0  0
   -5.2693   -4.6511    4.1531 H   0  0  0  0  0  0  0  0  0  0  0  0
   -0.3263    1.6222   -0.5862 H   0  0  0  0  0  0  0  0  0  0  0  0
    0.5892    2.9219   -2.4250 H   0  0  0  0  0  0  0  0  0  0  0  0
  1  2  1  0
  2  3  1  0
  3  4  1  0
  4  5  1  0
  5  6  2  0
  6  7  1  0
  7  8  2  0
  8  9  1  0
  9 10  2  0
 10 11  1  0
 11 12  1  0
 12 13  3  0
 11 14  2  0
 14 15  1  0
 15 16  1  0
 16 17  1  0
 17 18  1  0
 18 19  1  0
 19 20  1  0
 20 21  1  0
 14 22  1  0
  8 23  1  0
 23 24  2  0
 24  5  1  0
 22  9  1  0
 21 17  1  0
  1 25  1  0
  1 26  1  0
  1 27  1  0
  2 28  1  0
  2 29  1  0
  3 30  1  0
  3 31  1  0
  6 32  1  0
  7 33  1  0
 15 34  1  0
 16 35  1  0
 16 36  1  0
 17 37  1  0
 18 38  1  0
 18 39  1  0
 19 40  1  0
 19 41  1  0
 20 42  1  0
 20 43  1  0
 23 44  1  0
 24 45  1  0
M  END
$$$$
