
     RDKit          3D

 32 34  0  0  0  0  0  0  0  0999 V2000
   -4.2997   -2.5350    0.8812 C   0  0  0  0  0  0  0  0  0  0  0  0
   -3.3949   -1.4686    0.3905 C   0  0  0  0  0  0  0  0  0  0  0  0
   -3.6502   -0.1658    0.0197 C   0  0  0  0  0  0  0  0  0  0  0  0
   -2.4182    0.4356   -0.3680 C   0  0  0  0  0  0  0  0  0  0  0  0
   -2.2544    1.8346   -0.8440 C   0  0  0  0  0  0  0  0  0  0  0  0
   -1.4368   -0.5293   -0.2094 C   0  0  0  0  0  0  0  0  0  0  0  0
   -0.0437   -0.5805   -0.4439 C   0  0  0  0  0  0  0  0  0  0  0  0
    0.8570    0.1893    0.1842 C   0  0  0  0  0  0  0  0  0  0  0  0
    0.6429    1.2078    1.2809 C   0  0  0  0  0  0  0  0  0  0  0  0
   -0.3830    1.5434    1.8375 O   0  0  0  0  0  0  0  0  0  0  0  0
    1.9105    1.7003    1.5616 N   0  0  0  0  0  0  0  0  0  0  0  0
    2.8822    1.0945    0.7745 C   0  0  0  0  0  0  0  0  0  0  0  0
    4.2396    1.3425    0.8005 C   0  0  0  0  0  0  0  0  0  0  0  0
    5.0410    0.6155   -0.0824 C   0  0  0  0  0  0  0  0  0  0  0  0
    4.4730   -0.3281   -0.9579 C   0  0  0  0  0  0  0  0  0  0  0  0
    3.0927   -0.5627   -0.9657 C   0  0  0  0  0  0  0  0  0  0  0  0
    2.3028    0.1591   -0.0870 C   0  0  0  0  0  0  0  0  0  0  0  0
   -2.0458   -1.6750    0.2436 N   0  0  0  0  0  0  0  0  0  0  0  0
   -4.0131   -2.8482    1.8903 H   0  0  0  0  0  0  0  0  0  0  0  0
   -5.3364   -2.1853    0.9162 H   0  0  0  0  0  0  0  0  0  0  0  0
   -4.2587   -3.4081    0.2221 H   0  0  0  0  0  0  0  0  0  0  0  0
   -4.6217    0.3124    0.0279 H   0  0  0  0  0  0  0  0  0  0  0  0
   -2.2857    2.5300    0.0006 H   0  0  0  0  0  0  0  0  0  0  0  0
   -3.0606    2.1006   -1.5357 H   0  0  0  0  0  0  0  0  0  0  0  0
   -1.3056    1.9742   -1.3711 H   0  0  0  0  0  0  0  0  0  0  0  0
    0.2895   -1.2957   -1.1909 H   0  0  0  0  0  0  0  0  0  0  0  0
    2.0702    2.4010    2.2683 H   0  0  0  0  0  0  0  0  0  0  0  0
    4.6736    2.0710    1.4755 H   0  0  0  0  0  0  0  0  0  0  0  0
    6.1164    0.7802   -0.0958 H   0  0  0  0  0  0  0  0  0  0  0  0
    5.1168   -0.8813   -1.6389 H   0  0  0  0  0  0  0  0  0  0  0  0
    2.6681   -1.2904   -1.6484 H   0  0  0  0  0  0  0  0  0  0  0  0
   -1.5677   -2.5380    0.4629 H   0  0  0  0  0  0  0  0  0  0  0  0
  1  2  1  0
  2  3  2  0
  3  4  1  0
  4  5  1  0
  4  6  2  0
  6  7  1  0
  7  8  2  0
  8  9  1  0
  9 10  2  0
  9 11  1  0
 11 12  1  0
 12 13  2  0
 13 14  1  0
 14 15  2  0
 15 16  1  0
 16 17  2  0
  6 18  1  0
 18  2  1  0
 17  8  1  0
 17 12  1  0
  1 19  1  0
  1 20  1  0
  1 21  1  0
  3 22  1  0
  5 23  1  0
  5 24  1  0
  5 25  1  0
  7 26  1  0
 11 27  1  0
 13 28  1  0
 14 29  1  0
 15 30  1  0
 16 31  1  0
 18 32  1  0
M  END
$$$$
