
     RDKit          3D

 31 32  0  0  0  0  0  0  0  0999 V2000
   -4.8649    0.1956   -0.1705 C   0  0  0  0  0  0  0  0  0  0  0  0
   -3.4043    0.4441    0.0929 C   0  0  0  0  0  0  0  0  0  0  0  0
   -3.0341    1.1524    1.2488 C   0  0  0  0  0  0  0  0  0  0  0  0
   -1.6950    1.4391    1.5099 C   0  0  0  0  0  0  0  0  0  0  0  0
   -0.7094    1.0240    0.6143 C   0  0  0  0  0  0  0  0  0  0  0  0
    0.7032    1.3815    0.8988 C   0  0  0  0  0  0  0  0  0  0  0  0
    0.9547    2.4366    1.4756 O   0  0  0  0  0  0  0  0  0  0  0  0
    1.8229    0.4900    0.5064 C   0  0  0  0  0  0  0  0  0  0  0  0
    3.0186    1.0704    0.0749 C   0  0  0  0  0  0  0  0  0  0  0  0
    4.0946    0.2597   -0.2979 C   0  0  0  0  0  0  0  0  0  0  0  0
    4.0113   -1.1310   -0.1900 C   0  0  0  0  0  0  0  0  0  0  0  0
    5.0443   -1.9384   -0.6777 N   0  0  0  0  0  0  0  0  0  0  0  0
    2.7999   -1.7038    0.2084 C   0  0  0  0  0  0  0  0  0  0  0  0
    1.7163   -0.9019    0.5816 C   0  0  0  0  0  0  0  0  0  0  0  0
   -1.0727    0.3347   -0.5490 C   0  0  0  0  0  0  0  0  0  0  0  0
   -2.4089   -0.0118   -0.7923 C   0  0  0  0  0  0  0  0  0  0  0  0
   -2.7379   -0.6079   -2.0190 N   0  0  0  0  0  0  0  0  0  0  0  0
   -5.0694   -0.8798   -0.1828 H   0  0  0  0  0  0  0  0  0  0  0  0
   -5.4966    0.6431    0.6043 H   0  0  0  0  0  0  0  0  0  0  0  0
   -5.1594    0.6356   -1.1286 H   0  0  0  0  0  0  0  0  0  0  0  0
   -3.7917    1.5039    1.9462 H   0  0  0  0  0  0  0  0  0  0  0  0
   -1.4252    2.0022    2.4011 H   0  0  0  0  0  0  0  0  0  0  0  0
    3.1111    2.1528    0.0141 H   0  0  0  0  0  0  0  0  0  0  0  0
    5.0031    0.7281   -0.6677 H   0  0  0  0  0  0  0  0  0  0  0  0
    5.9584   -1.4966   -0.6492 H   0  0  0  0  0  0  0  0  0  0  0  0
    5.0592   -2.8735   -0.2827 H   0  0  0  0  0  0  0  0  0  0  0  0
    2.6925   -2.7851    0.2401 H   0  0  0  0  0  0  0  0  0  0  0  0
    0.8041   -1.3782    0.9305 H   0  0  0  0  0  0  0  0  0  0  0  0
   -0.3167    0.0757   -1.2858 H   0  0  0  0  0  0  0  0  0  0  0  0
   -3.6192   -1.1102   -2.0188 H   0  0  0  0  0  0  0  0  0  0  0  0
   -1.9886   -1.1513   -2.4357 H   0  0  0  0  0  0  0  0  0  0  0  0
  1  2  1  0
  2  3  2  0
  3  4  1  0
  4  5  2  0
  5  6  1  0
  6  7  2  0
  6  8  1  0
  8  9  2  0
  9 10  1  0
 10 11  2  0
 11 12  1  0
 11 13  1  0
 13 14  2  0
  5 15  1  0
 15 16  2  0
 16 17  1  0
 16  2  1  0
 14  8  1  0
  1 18  1  0
  1 19  1  0
  1 20  1  0
  3 21  1  0
  4 22  1  0
  9 23  1  0
 10 24  1  0
 12 25  1  0
 12 26  1  0
 13 27  1  0
 14 28  1  0
 15 29  1  0
 17 30  1  0
 17 31  1  0
M  END
$$$$
