
     RDKit          3D

 35 36  0  0  0  0  0  0  0  0999 V2000
    5.6945    0.9362   -0.3293 C   0  0  0  0  0  0  0  0  0  0  0  0
    5.0750   -0.1446    0.3548 O   0  0  0  0  0  0  0  0  0  0  0  0
    3.7790   -0.4486    0.0285 C   0  0  0  0  0  0  0  0  0  0  0  0
    3.0007    0.2789   -0.8808 C   0  0  0  0  0  0  0  0  0  0  0  0
    1.6816   -0.1010   -1.1482 C   0  0  0  0  0  0  0  0  0  0  0  0
    1.1359   -1.2102   -0.4993 C   0  0  0  0  0  0  0  0  0  0  0  0
   -0.5357   -1.7062   -0.8350 S   0  0  0  0  0  6  0  0  0  0  0  0
   -1.0638   -0.8563   -1.8802 O   0  0  0  0  0  0  0  0  0  0  0  0
   -0.5180   -3.1469   -0.9766 O   0  0  0  0  0  0  0  0  0  0  0  0
   -1.3076   -1.3749    0.6382 N   0  0  0  0  0  0  0  0  0  0  0  0
   -1.8298   -0.0509    0.7977 C   0  0  0  0  0  0  0  0  0  0  0  0
   -0.9875    0.9812    1.2110 C   0  0  0  0  0  0  0  0  0  0  0  0
   -1.4833    2.2807    1.3028 C   0  0  0  0  0  0  0  0  0  0  0  0
   -2.8138    2.5437    0.9760 C   0  0  0  0  0  0  0  0  0  0  0  0
   -3.6570    1.5105    0.5543 C   0  0  0  0  0  0  0  0  0  0  0  0
   -3.1675    0.2071    0.4522 C   0  0  0  0  0  0  0  0  0  0  0  0
   -3.9065   -0.8843    0.0677 O   0  0  0  0  0  0  0  0  0  0  0  0
   -5.0742   -0.6086   -0.6978 C   0  0  0  0  0  0  0  0  0  0  0  0
    1.8966   -1.9545    0.4024 C   0  0  0  0  0  0  0  0  0  0  0  0
    3.2117   -1.5679    0.6660 C   0  0  0  0  0  0  0  0  0  0  0  0
    4.1148   -2.5099    1.8017 Cl  0  0  0  0  0  0  0  0  0  0  0  0
    6.7258    1.0113    0.0288 H   0  0  0  0  0  0  0  0  0  0  0  0
    5.1942    1.8834   -0.1030 H   0  0  0  0  0  0  0  0  0  0  0  0
    5.7294    0.7538   -1.4084 H   0  0  0  0  0  0  0  0  0  0  0  0
    3.3903    1.1489   -1.4003 H   0  0  0  0  0  0  0  0  0  0  0  0
    1.0900    0.4737   -1.8590 H   0  0  0  0  0  0  0  0  0  0  0  0
   -2.0093   -2.1029    0.7959 H   0  0  0  0  0  0  0  0  0  0  0  0
    0.0454    0.7813    1.4788 H   0  0  0  0  0  0  0  0  0  0  0  0
   -0.8344    3.0882    1.6326 H   0  0  0  0  0  0  0  0  0  0  0  0
   -3.1993    3.5580    1.0536 H   0  0  0  0  0  0  0  0  0  0  0  0
   -4.6890    1.7521    0.3225 H   0  0  0  0  0  0  0  0  0  0  0  0
   -5.8630   -0.1896   -0.0651 H   0  0  0  0  0  0  0  0  0  0  0  0
   -5.4403   -1.5578   -1.1009 H   0  0  0  0  0  0  0  0  0  0  0  0
   -4.8543    0.0509   -1.5443 H   0  0  0  0  0  0  0  0  0  0  0  0
    1.4695   -2.8248    0.8951 H   0  0  0  0  0  0  0  0  0  0  0  0
  1  2  1  0
  2  3  1  0
  3  4  2  0
  4  5  1  0
  5  6  2  0
  6  7  1  0
  7  8  2  0
  7  9  2  0
  7 10  1  0
 10 11  1  0
 11 12  2  0
 12 13  1  0
 13 14  2  0
 14 15  1  0
 15 16  2  0
 16 17  1  0
 17 18  1  0
  6 19  1  0
 19 20  2  0
 20 21  1  0
 20  3  1  0
 16 11  1  0
  1 22  1  0
  1 23  1  0
  1 24  1  0
  4 25  1  0
  5 26  1  0
 10 27  1  0
 12 28  1  0
 13 29  1  0
 14 30  1  0
 15 31  1  0
 18 32  1  0
 18 33  1  0
 18 34  1  0
 19 35  1  0
M  END
$$$$
