
     RDKit          3D

 30 30  0  0  0  0  0  0  0  0999 V2000
    1.8961   -2.8411   -0.3047 O   0  0  0  0  0  0  0  0  0  0  0  0
    2.6673   -2.2051    0.4658 C   0  0  0  0  0  0  0  0  0  0  0  0
    3.5589   -2.6328    1.2506 O   0  0  0  0  0  1  0  0  0  0  0  0
    2.5208   -0.6805    0.4586 C   0  0  0  0  0  0  0  0  0  0  0  0
    1.6699    0.1267   -0.2126 C   0  0  0  0  0  0  0  0  0  0  0  0
    1.7253    1.6196    0.0483 C   0  0  0  0  0  0  0  0  0  0  0  0
    0.4884    2.1659    0.7722 C   0  0  0  0  0  0  0  0  0  0  0  0
   -0.8132    2.0699   -0.0318 C   0  0  0  0  0  0  0  0  0  0  0  0
   -1.4346    0.6902   -0.0309 C   0  0  0  0  0  0  0  0  0  0  0  0
   -2.7033    0.5129    0.5493 C   0  0  0  0  0  0  0  0  0  0  0  0
   -3.3005   -0.7464    0.5931 C   0  0  0  0  0  0  0  0  0  0  0  0
   -2.6365   -1.8460    0.0620 C   0  0  0  0  0  0  0  0  0  0  0  0
   -1.3806   -1.6853   -0.5232 C   0  0  0  0  0  0  0  0  0  0  0  0
   -0.7665   -0.4227   -0.5929 C   0  0  0  0  0  0  0  0  0  0  0  0
    0.6070   -0.2597   -1.2324 C   0  0  2  0  0  0  0  0  0  0  0  0
    0.9702   -1.3463   -2.0715 O   0  0  0  0  0  0  0  0  0  0  0  0
    0.0000    0.0000    0.0000 Na  0  0  0  0  0 15  0  0  0  0  0  0
    3.2252   -0.2298    1.1594 H   0  0  0  0  0  0  0  0  0  0  0  0
    1.8660    2.1495   -0.9026 H   0  0  0  0  0  0  0  0  0  0  0  0
    2.6061    1.8713    0.6534 H   0  0  0  0  0  0  0  0  0  0  0  0
    0.3733    1.6722    1.7457 H   0  0  0  0  0  0  0  0  0  0  0  0
    0.6765    3.2271    0.9802 H   0  0  0  0  0  0  0  0  0  0  0  0
   -0.6634    2.4048   -1.0654 H   0  0  0  0  0  0  0  0  0  0  0  0
   -1.5259    2.7812    0.4056 H   0  0  0  0  0  0  0  0  0  0  0  0
   -3.2304    1.3577    0.9850 H   0  0  0  0  0  0  0  0  0  0  0  0
   -4.2752   -0.8721    1.0541 H   0  0  0  0  0  0  0  0  0  0  0  0
   -3.0818   -2.8353    0.1090 H   0  0  0  0  0  0  0  0  0  0  0  0
   -0.8638   -2.5613   -0.9141 H   0  0  0  0  0  0  0  0  0  0  0  0
    0.5155    0.5634   -1.9522 H   0  0  0  0  0  0  0  0  0  0  0  0
    1.3090   -2.0480   -1.4581 H   0  0  0  0  0  0  0  0  0  0  0  0
  1  2  2  0
  2  3  1  0
  2  4  1  0
  4  5  2  0
  5  6  1  0
  6  7  1  0
  7  8  1  0
  8  9  1  0
  9 10  2  0
 10 11  1  0
 11 12  2  0
 12 13  1  0
 13 14  2  0
 14 15  1  0
 15 16  1  0
 15  5  1  0
 14  9  1  0
  4 18  1  0
  6 19  1  0
  6 20  1  0
  7 21  1  0
  7 22  1  0
  8 23  1  0
  8 24  1  0
 10 25  1  0
 11 26  1  0
 12 27  1  0
 13 28  1  0
 15 29  1  6
 16 30  1  0
M  CHG  2   3  -1  17   1
M  END
$$$$
