
     RDKit          3D

 35 36  0  0  0  0  0  0  0  0999 V2000
    3.2179   -2.5413   -0.4631 C   0  0  0  0  0  0  0  0  0  0  0  0
    3.6886   -1.1717   -0.9236 C   0  0  0  0  0  0  0  0  0  0  0  0
    2.5907   -0.2626   -1.0190 O   0  0  0  0  0  0  0  0  0  0  0  0
    2.2566    0.3872    0.1528 C   0  0  0  0  0  0  0  0  0  0  0  0
    2.9902    0.1544    1.2647 N   0  0  0  0  0  0  0  0  0  0  0  0
    2.6220    0.8015    2.3904 C   0  0  0  0  0  0  0  0  0  0  0  0
    1.5515    1.6736    2.4617 C   0  0  0  0  0  0  0  0  0  0  0  0
    0.8121    1.8974    1.3062 C   0  0  0  0  0  0  0  0  0  0  0  0
    1.1618    1.2490    0.1141 C   0  0  0  0  0  0  0  0  0  0  0  0
    0.3537    1.4711   -1.1371 C   0  0  0  0  0  0  0  0  0  0  0  0
   -0.8829    0.6899   -1.1491 N   0  0  0  0  0  0  0  0  0  0  0  0
   -0.7539   -0.7256   -1.4666 C   0  0  0  0  0  0  0  0  0  0  0  0
   -2.0564    1.2998   -0.6842 C   0  0  0  0  0  0  0  0  0  0  0  0
   -2.0937    2.5221   -0.5177 O   0  0  0  0  0  0  0  0  0  0  0  0
   -3.2355    0.4947   -0.3948 C   0  0  0  0  0  0  0  0  0  0  0  0
   -4.5557    0.8895   -0.2485 C   0  0  0  0  0  0  0  0  0  0  0  0
   -5.3021   -0.2671    0.0812 C   0  0  0  0  0  0  0  0  0  0  0  0
   -4.3959   -1.2987    0.1390 C   0  0  0  0  0  0  0  0  0  0  0  0
   -4.8124   -3.1080    0.5503 Br  0  0  0  0  0  0  0  0  0  0  0  0
   -3.1448   -0.8466   -0.1351 O   0  0  0  0  0  0  0  0  0  0  0  0
    4.0435   -3.2586   -0.4790 H   0  0  0  0  0  0  0  0  0  0  0  0
    2.8108   -2.5035    0.5519 H   0  0  0  0  0  0  0  0  0  0  0  0
    2.4175   -2.9101   -1.1131 H   0  0  0  0  0  0  0  0  0  0  0  0
    4.0940   -1.2700   -1.9372 H   0  0  0  0  0  0  0  0  0  0  0  0
    4.5103   -0.7854   -0.3089 H   0  0  0  0  0  0  0  0  0  0  0  0
    3.2312    0.5920    3.2650 H   0  0  0  0  0  0  0  0  0  0  0  0
    1.2964    2.1664    3.3931 H   0  0  0  0  0  0  0  0  0  0  0  0
   -0.0380    2.5765    1.3335 H   0  0  0  0  0  0  0  0  0  0  0  0
    0.1305    2.5418   -1.2206 H   0  0  0  0  0  0  0  0  0  0  0  0
    0.9249    1.2326   -2.0418 H   0  0  0  0  0  0  0  0  0  0  0  0
    0.0766   -0.8781   -2.1622 H   0  0  0  0  0  0  0  0  0  0  0  0
   -0.5662   -1.2846   -0.5456 H   0  0  0  0  0  0  0  0  0  0  0  0
   -1.6580   -1.0944   -1.9570 H   0  0  0  0  0  0  0  0  0  0  0  0
   -4.9199    1.9015   -0.3674 H   0  0  0  0  0  0  0  0  0  0  0  0
   -6.3654   -0.3347    0.2633 H   0  0  0  0  0  0  0  0  0  0  0  0
  1  2  1  0
  2  3  1  0
  3  4  1  0
  4  5  2  0
  5  6  1  0
  6  7  2  0
  7  8  1  0
  8  9  2  0
  9 10  1  0
 10 11  1  0
 11 12  1  0
 11 13  1  0
 13 14  2  0
 13 15  1  0
 15 16  2  0
 16 17  1  0
 17 18  2  0
 18 19  1  0
 18 20  1  0
  9  4  1  0
 20 15  1  0
  1 21  1  0
  1 22  1  0
  1 23  1  0
  2 24  1  0
  2 25  1  0
  6 26  1  0
  7 27  1  0
  8 28  1  0
 10 29  1  0
 10 30  1  0
 12 31  1  0
 12 32  1  0
 12 33  1  0
 16 34  1  0
 17 35  1  0
M  END
$$$$
