
     RDKit          3D

 66 69  0  0  0  0  0  0  0  0999 V2000
    7.7118    0.1641   -0.3934 C   0  0  0  0  0  0  0  0  0  0  0  0
    7.2277    1.4718    0.2368 C   0  0  0  0  0  0  0  0  0  0  0  0
    8.3851    2.4674    0.3264 C   0  0  0  0  0  0  0  0  0  0  0  0
    6.6261    1.2381    1.6317 C   0  0  0  0  0  0  0  0  0  0  0  0
    5.4219    0.4298    1.5932 N   0  0  0  0  0  0  0  0  0  0  0  0
    4.1994    0.9837    1.2734 C   0  0  0  0  0  0  0  0  0  0  0  0
    4.0282    2.1761    1.0538 O   0  0  0  0  0  0  0  0  0  0  0  0
    3.0534    0.0391    1.1721 C   0  0  0  0  0  0  0  0  0  0  0  0
    2.9823   -1.1132    1.9629 C   0  0  0  0  0  0  0  0  0  0  0  0
    1.8806   -1.9625    1.8528 C   0  0  0  0  0  0  0  0  0  0  0  0
    0.8459   -1.6576    0.9573 C   0  0  0  0  0  0  0  0  0  0  0  0
   -0.3314   -2.5574    0.8568 C   0  0  0  0  0  0  0  0  0  0  0  0
   -0.3721   -3.5420    1.5893 O   0  0  0  0  0  0  0  0  0  0  0  0
   -1.3268   -2.2147   -0.0619 N   0  0  0  0  0  0  0  0  0  0  0  0
   -2.5231   -3.0726   -0.1922 C   0  0  0  0  0  0  0  0  0  0  0  0
   -2.1845   -4.5069   -0.6065 C   0  0  0  0  0  0  0  0  0  0  0  0
   -3.3870   -3.0389    1.0694 C   0  0  0  0  0  0  0  0  0  0  0  0
   -1.2430   -1.0670   -0.8047 C   0  0  0  0  0  0  0  0  0  0  0  0
   -2.1479   -0.6528   -1.6455 N   0  0  0  0  0  0  0  0  0  0  0  0
   -1.6198    0.5112   -2.1544 N   0  0  0  0  0  0  0  0  0  0  0  0
   -2.3252    1.3711   -3.0823 C   0  0  0  0  0  0  0  0  0  0  0  0
   -3.4124    2.2091   -2.4081 C   0  0  0  0  0  0  0  0  0  0  0  0
   -3.9412    3.1631   -2.9744 O   0  0  0  0  0  0  0  0  0  0  0  0
   -3.8226    1.7470   -1.1742 N   0  0  0  0  0  0  0  0  0  0  0  0
   -4.9729    2.3018   -0.4814 C   0  0  0  0  0  0  0  0  0  0  0  0
   -4.9441    1.9332    1.0036 C   0  0  0  0  0  0  0  0  0  0  0  0
   -5.8305    0.6939    1.1581 C   0  0  0  0  0  0  0  0  0  0  0  0
   -6.3549    0.3654   -0.2343 C   0  0  0  0  0  0  0  0  0  0  0  0
   -6.2777    1.6867   -0.9845 C   0  0  0  0  0  0  0  0  0  0  0  0
   -0.3861    0.7932   -1.5551 C   0  0  0  0  0  0  0  0  0  0  0  0
    0.3096    1.7700   -1.7763 O   0  0  0  0  0  0  0  0  0  0  0  0
   -0.1678   -0.2601   -0.6913 N   0  0  0  0  0  0  0  0  0  0  0  0
    0.9030   -0.5037    0.1709 C   0  0  0  0  0  0  0  0  0  0  0  0
    2.0087    0.3472    0.2855 C   0  0  0  0  0  0  0  0  0  0  0  0
    6.8853   -0.5406   -0.5299 H   0  0  0  0  0  0  0  0  0  0  0  0
    8.4717   -0.3192    0.2304 H   0  0  0  0  0  0  0  0  0  0  0  0
    8.1518    0.3493   -1.3791 H   0  0  0  0  0  0  0  0  0  0  0  0
    6.4607    1.9005   -0.4206 H   0  0  0  0  0  0  0  0  0  0  0  0
    8.8136    2.6562   -0.6636 H   0  0  0  0  0  0  0  0  0  0  0  0
    9.1837    2.0924    0.9759 H   0  0  0  0  0  0  0  0  0  0  0  0
    8.0425    3.4262    0.7298 H   0  0  0  0  0  0  0  0  0  0  0  0
    6.3789    2.1977    2.1010 H   0  0  0  0  0  0  0  0  0  0  0  0
    7.3394    0.7216    2.2834 H   0  0  0  0  0  0  0  0  0  0  0  0
    5.5339   -0.5743    1.5718 H   0  0  0  0  0  0  0  0  0  0  0  0
    3.7556   -1.3452    2.6907 H   0  0  0  0  0  0  0  0  0  0  0  0
    1.8240   -2.8537    2.4761 H   0  0  0  0  0  0  0  0  0  0  0  0
   -3.1478   -2.6734   -0.9993 H   0  0  0  0  0  0  0  0  0  0  0  0
   -3.0970   -5.0515   -0.8721 H   0  0  0  0  0  0  0  0  0  0  0  0
   -1.6945   -5.0678    0.1933 H   0  0  0  0  0  0  0  0  0  0  0  0
   -1.5223   -4.5143   -1.4781 H   0  0  0  0  0  0  0  0  0  0  0  0
   -4.3296   -3.5716    0.9040 H   0  0  0  0  0  0  0  0  0  0  0  0
   -3.6245   -2.0066    1.3460 H   0  0  0  0  0  0  0  0  0  0  0  0
   -2.8894   -3.5053    1.9252 H   0  0  0  0  0  0  0  0  0  0  0  0
   -2.7896    0.7444   -3.8500 H   0  0  0  0  0  0  0  0  0  0  0  0
   -1.6084    2.0551   -3.5478 H   0  0  0  0  0  0  0  0  0  0  0  0
   -3.5130    0.8043   -0.9453 H   0  0  0  0  0  0  0  0  0  0  0  0
   -4.9658    3.3879   -0.6241 H   0  0  0  0  0  0  0  0  0  0  0  0
   -5.3692    2.7506    1.5996 H   0  0  0  0  0  0  0  0  0  0  0  0
   -3.9304    1.7510    1.3768 H   0  0  0  0  0  0  0  0  0  0  0  0
   -5.2817   -0.1506    1.5880 H   0  0  0  0  0  0  0  0  0  0  0  0
   -6.6636    0.9200    1.8348 H   0  0  0  0  0  0  0  0  0  0  0  0
   -5.7086   -0.3808   -0.7119 H   0  0  0  0  0  0  0  0  0  0  0  0
   -7.3707   -0.0396   -0.2079 H   0  0  0  0  0  0  0  0  0  0  0  0
   -7.1255    2.3207   -0.6992 H   0  0  0  0  0  0  0  0  0  0  0  0
   -6.3059    1.5428   -2.0686 H   0  0  0  0  0  0  0  0  0  0  0  0
    2.0834    1.2601   -0.3029 H   0  0  0  0  0  0  0  0  0  0  0  0
  1  2  1  0
  2  3  1  0
  2  4  1  0
  4  5  1  0
  5  6  1  0
  6  7  2  0
  6  8  1  0
  8  9  2  0
  9 10  1  0
 10 11  2  0
 11 12  1  0
 12 13  2  0
 12 14  1  0
 14 15  1  0
 15 16  1  0
 15 17  1  0
 14 18  1  0
 18 19  2  0
 19 20  1  0
 20 21  1  0
 21 22  1  0
 22 23  2  0
 22 24  1  0
 24 25  1  0
 25 26  1  0
 26 27  1  0
 27 28  1  0
 28 29  1  0
 20 30  1  0
 30 31  2  0
 30 32  1  0
 32 33  1  0
 33 34  2  0
 34  8  1  0
 33 11  1  0
 32 18  1  0
 29 25  1  0
  1 35  1  0
  1 36  1  0
  1 37  1  0
  2 38  1  0
  3 39  1  0
  3 40  1  0
  3 41  1  0
  4 42  1  0
  4 43  1  0
  5 44  1  0
  9 45  1  0
 10 46  1  0
 15 47  1  0
 16 48  1  0
 16 49  1  0
 16 50  1  0
 17 51  1  0
 17 52  1  0
 17 53  1  0
 21 54  1  0
 21 55  1  0
 24 56  1  0
 25 57  1  0
 26 58  1  0
 26 59  1  0
 27 60  1  0
 27 61  1  0
 28 62  1  0
 28 63  1  0
 29 64  1  0
 29 65  1  0
 34 66  1  0
M  END
$$$$
