
     RDKit          3D

 52 54  0  0  0  0  0  0  0  0999 V2000
    3.9894   -1.0697   -1.8020 C   0  0  0  0  0  0  0  0  0  0  0  0
    4.6753   -0.5395   -0.5390 C   0  0  0  0  0  0  0  0  0  0  0  0
    6.0555    0.0297   -0.8951 C   0  0  0  0  0  0  0  0  0  0  0  0
    4.9272   -1.6761    0.3024 O   0  0  0  0  0  0  0  0  0  0  0  0
    3.8048    0.4720    0.1565 C   0  0  0  0  0  0  0  0  0  0  0  0
    3.7003    1.8227   -0.1027 C   0  0  0  0  0  0  0  0  0  0  0  0
    2.8206    2.4202    0.7307 O   0  0  0  0  0  0  0  0  0  0  0  0
    2.2958    1.4548    1.5647 C   0  0  0  0  0  0  0  0  0  0  0  0
    1.0743    1.8913    2.8520 S   0  0  0  0  0  6  0  0  0  0  0  0
    1.9490    2.5172    3.8399 O   0  0  0  0  0  0  0  0  0  0  0  0
    0.1930    2.8019    2.1212 O   0  0  0  0  0  0  0  0  0  0  0  0
    0.4369    0.5076    3.2868 N   0  0  0  0  0  2  0  0  0  0  0  0
   -0.2109   -0.2298    2.3821 C   0  0  0  0  0  0  0  0  0  0  0  0
    0.0201   -1.4274    2.2464 O   0  0  0  0  0  0  0  0  0  0  0  0
   -1.1594    0.4603    1.6480 N   0  0  0  0  0  0  0  0  0  0  0  0
   -2.0578    0.0083    0.6614 C   0  0  0  0  0  0  0  0  0  0  0  0
   -2.5436   -1.2884    0.5038 C   0  0  0  0  0  0  0  0  0  0  0  0
   -3.4367   -1.6143   -0.5519 C   0  0  0  0  0  0  0  0  0  0  0  0
   -3.8708   -0.6786   -1.4772 C   0  0  0  0  0  0  0  0  0  0  0  0
   -3.4265    0.6169   -1.2960 C   0  0  0  0  0  0  0  0  0  0  0  0
   -2.5528    0.9598   -0.2402 C   0  0  0  0  0  0  0  0  0  0  0  0
   -2.1996    2.4201   -0.3321 C   0  0  0  0  0  0  0  0  0  0  0  0
   -3.3037    2.9556   -1.2518 C   0  0  0  0  0  0  0  0  0  0  0  0
   -3.7097    1.7988   -2.1681 C   0  0  0  0  0  0  0  0  0  0  0  0
   -3.7959   -3.0687   -0.5258 C   0  0  0  0  0  0  0  0  0  0  0  0
   -3.4741   -3.4196    0.9252 C   0  0  0  0  0  0  0  0  0  0  0  0
   -2.2950   -2.5224    1.3233 C   0  0  0  0  0  0  0  0  0  0  0  0
    2.8828    0.2425    1.2205 C   0  0  0  0  0  0  0  0  0  0  0  0
    0.0000    0.0000    0.0000 Na  0  0  0  0  0 15  0  0  0  0  0  0
    4.6009   -1.8393   -2.2878 H   0  0  0  0  0  0  0  0  0  0  0  0
    3.0311   -1.5444   -1.5567 H   0  0  0  0  0  0  0  0  0  0  0  0
    3.7961   -0.2708   -2.5273 H   0  0  0  0  0  0  0  0  0  0  0  0
    5.9924    0.8521   -1.6161 H   0  0  0  0  0  0  0  0  0  0  0  0
    6.7010   -0.7476   -1.3208 H   0  0  0  0  0  0  0  0  0  0  0  0
    6.5674    0.4005    0.0016 H   0  0  0  0  0  0  0  0  0  0  0  0
    5.0220   -1.3348    1.2098 H   0  0  0  0  0  0  0  0  0  0  0  0
    4.1749    2.4854   -0.8129 H   0  0  0  0  0  0  0  0  0  0  0  0
   -1.0665    1.4731    1.7270 H   0  0  0  0  0  0  0  0  0  0  0  0
   -4.5313   -0.9474   -2.2917 H   0  0  0  0  0  0  0  0  0  0  0  0
   -1.2113    2.5386   -0.7888 H   0  0  0  0  0  0  0  0  0  0  0  0
   -2.2340    2.9285    0.6350 H   0  0  0  0  0  0  0  0  0  0  0  0
   -4.1678    3.2510   -0.6407 H   0  0  0  0  0  0  0  0  0  0  0  0
   -2.9872    3.8415   -1.8112 H   0  0  0  0  0  0  0  0  0  0  0  0
   -4.7634    1.8663   -2.4533 H   0  0  0  0  0  0  0  0  0  0  0  0
   -3.0811    1.7636   -3.0641 H   0  0  0  0  0  0  0  0  0  0  0  0
   -4.8511   -3.2444   -0.7548 H   0  0  0  0  0  0  0  0  0  0  0  0
   -3.1622   -3.6248   -1.2239 H   0  0  0  0  0  0  0  0  0  0  0  0
   -3.2559   -4.4833    1.0621 H   0  0  0  0  0  0  0  0  0  0  0  0
   -4.3410   -3.1811    1.5576 H   0  0  0  0  0  0  0  0  0  0  0  0
   -1.3545   -2.9955    1.0244 H   0  0  0  0  0  0  0  0  0  0  0  0
   -2.3174   -2.3309    2.3996 H   0  0  0  0  0  0  0  0  0  0  0  0
    2.6507   -0.7017    1.6963 H   0  0  0  0  0  0  0  0  0  0  0  0
  1  2  1  0
  2  3  1  0
  2  4  1  0
  2  5  1  0
  5  6  2  0
  6  7  1  0
  7  8  1  0
  8  9  1  0
  9 10  2  0
  9 11  2  0
  9 12  1  0
 12 13  1  0
 13 14  2  0
 13 15  1  0
 15 16  1  0
 16 17  2  0
 17 18  1  0
 18 19  2  0
 19 20  1  0
 20 21  2  0
 21 22  1  0
 22 23  1  0
 23 24  1  0
 18 25  1  0
 25 26  1  0
 26 27  1  0
  8 28  2  0
 28  5  1  0
 21 16  1  0
 27 17  1  0
 24 20  1  0
  1 30  1  0
  1 31  1  0
  1 32  1  0
  3 33  1  0
  3 34  1  0
  3 35  1  0
  4 36  1  0
  6 37  1  0
 15 38  1  0
 19 39  1  0
 22 40  1  0
 22 41  1  0
 23 42  1  0
 23 43  1  0
 24 44  1  0
 24 45  1  0
 25 46  1  0
 25 47  1  0
 26 48  1  0
 26 49  1  0
 27 50  1  0
 27 51  1  0
 28 52  1  0
M  CHG  2  12  -1  29   1
M  END
$$$$
