
     RDKit          3D

 56 59  0  0  0  0  0  0  0  0999 V2000
   -2.4666    0.0167    1.8000 O   0  0  0  0  0  0  0  0  0  0  0  0
   -1.9369    0.0119    0.6950 C   0  0  0  0  0  0  0  0  0  0  0  0
   -0.6138    0.3408    0.4937 N   0  0  0  0  0  0  0  0  0  0  0  0
    0.2096    0.8093    1.5950 C   0  0  0  0  0  0  0  0  0  0  0  0
    1.6975    0.8707    1.2119 C   0  0  2  0  0  0  0  0  0  0  0  0
    1.8201    1.6799    0.0295 O   0  0  0  0  0  0  0  0  0  0  0  0
    2.2680   -0.5468    0.9550 C   0  0  0  0  0  0  0  0  0  0  0  0
    3.7315   -0.7098    0.8813 N   0  0  0  0  0  0  0  0  0  0  0  0
    4.4199   -0.4113    2.1404 C   0  0  0  0  0  0  0  0  0  0  0  0
    5.8615   -0.9406    2.0948 C   0  0  0  0  0  0  0  0  0  0  0  0
    6.5811   -0.5720    0.8210 C   0  0  0  0  0  0  0  0  0  0  0  0
    7.9727   -0.7092    0.7333 C   0  0  0  0  0  0  0  0  0  0  0  0
    8.6364   -0.4054   -0.4550 C   0  0  0  0  0  0  0  0  0  0  0  0
    7.9157    0.0309   -1.5646 C   0  0  0  0  0  0  0  0  0  0  0  0
    6.5287    0.1610   -1.4894 C   0  0  0  0  0  0  0  0  0  0  0  0
    5.8478   -0.1510   -0.3035 C   0  0  0  0  0  0  0  0  0  0  0  0
    4.3458    0.0456   -0.2213 C   0  0  0  0  0  0  0  0  0  0  0  0
   -2.7287   -0.3212   -0.5182 C   0  0  0  0  0  0  0  0  0  0  0  0
   -2.1341   -0.8154   -1.6757 C   0  0  0  0  0  0  0  0  0  0  0  0
   -2.9612   -1.0980   -2.7438 C   0  0  0  0  0  0  0  0  0  0  0  0
   -4.2997   -0.9213   -2.7254 N   0  0  0  0  0  0  0  0  0  0  0  0
   -4.8659   -0.4577   -1.5933 C   0  0  0  0  0  0  0  0  0  0  0  0
   -6.2551   -0.3264   -1.6274 N   0  0  0  0  0  0  0  0  0  0  0  0
   -7.0492    0.5572   -0.8330 C   0  0  0  0  0  0  0  0  0  0  0  0
   -7.4909   -0.0727    0.5097 C   0  0  0  0  0  0  0  0  0  0  0  0
   -8.7726   -0.5608   -0.1932 C   0  0  0  0  0  0  0  0  0  0  0  0
   -8.5398    0.5371   -1.2486 C   0  0  0  0  0  0  0  0  0  0  0  0
   -4.1144   -0.1551   -0.4698 C   0  0  0  0  0  0  0  0  0  0  0  0
   -0.3077    0.6117   -0.4340 H   0  0  0  0  0  0  0  0  0  0  0  0
    0.0482    0.1715    2.4709 H   0  0  0  0  0  0  0  0  0  0  0  0
   -0.1506    1.8158    1.8387 H   0  0  0  0  0  0  0  0  0  0  0  0
    2.2486    1.3612    2.0210 H   0  0  0  0  0  0  0  0  0  0  0  0
    1.6019    2.5934    0.2865 H   0  0  0  0  0  0  0  0  0  0  0  0
    1.8517   -0.9322    0.0148 H   0  0  0  0  0  0  0  0  0  0  0  0
    1.9051   -1.2240    1.7389 H   0  0  0  0  0  0  0  0  0  0  0  0
    3.9102   -0.8917    2.9844 H   0  0  0  0  0  0  0  0  0  0  0  0
    4.4277    0.6683    2.3391 H   0  0  0  0  0  0  0  0  0  0  0  0
    6.4101   -0.5473    2.9588 H   0  0  0  0  0  0  0  0  0  0  0  0
    5.8498   -2.0352    2.1736 H   0  0  0  0  0  0  0  0  0  0  0  0
    8.5443   -1.0574    1.5902 H   0  0  0  0  0  0  0  0  0  0  0  0
    9.7160   -0.5126   -0.5162 H   0  0  0  0  0  0  0  0  0  0  0  0
    8.4340    0.2688   -2.4896 H   0  0  0  0  0  0  0  0  0  0  0  0
    5.9782    0.5067   -2.3612 H   0  0  0  0  0  0  0  0  0  0  0  0
    4.1793    1.1230   -0.1107 H   0  0  0  0  0  0  0  0  0  0  0  0
    3.8990   -0.2814   -1.1680 H   0  0  0  0  0  0  0  0  0  0  0  0
   -1.0708   -1.0071   -1.7503 H   0  0  0  0  0  0  0  0  0  0  0  0
   -2.5620   -1.4934   -3.6738 H   0  0  0  0  0  0  0  0  0  0  0  0
   -6.5564   -0.4774   -2.5864 H   0  0  0  0  0  0  0  0  0  0  0  0
   -6.6163    1.5607   -0.7725 H   0  0  0  0  0  0  0  0  0  0  0  0
   -6.8601   -0.8629    0.9263 H   0  0  0  0  0  0  0  0  0  0  0  0
   -7.6783    0.6707    1.2939 H   0  0  0  0  0  0  0  0  0  0  0  0
   -9.6947   -0.4738    0.3870 H   0  0  0  0  0  0  0  0  0  0  0  0
   -8.6970   -1.5790   -0.5915 H   0  0  0  0  0  0  0  0  0  0  0  0
   -9.0630    1.4746   -1.0245 H   0  0  0  0  0  0  0  0  0  0  0  0
   -8.7665    0.2548   -2.2808 H   0  0  0  0  0  0  0  0  0  0  0  0
   -4.5880    0.2043    0.4370 H   0  0  0  0  0  0  0  0  0  0  0  0
  1  2  2  0
  2  3  1  0
  3  4  1  0
  4  5  1  0
  5  6  1  0
  5  7  1  0
  7  8  1  0
  8  9  1  0
  9 10  1  0
 10 11  1  0
 11 12  2  0
 12 13  1  0
 13 14  2  0
 14 15  1  0
 15 16  2  0
 16 17  1  0
  2 18  1  0
 18 19  2  0
 19 20  1  0
 20 21  2  0
 21 22  1  0
 22 23  1  0
 23 24  1  0
 24 25  1  0
 25 26  1  0
 26 27  1  0
 22 28  2  0
 17  8  1  0
 28 18  1  0
 16 11  1  0
 27 24  1  0
  3 29  1  0
  4 30  1  0
  4 31  1  0
  5 32  1  1
  6 33  1  0
  7 34  1  0
  7 35  1  0
  9 36  1  0
  9 37  1  0
 10 38  1  0
 10 39  1  0
 12 40  1  0
 13 41  1  0
 14 42  1  0
 15 43  1  0
 17 44  1  0
 17 45  1  0
 19 46  1  0
 20 47  1  0
 23 48  1  0
 24 49  1  0
 25 50  1  0
 25 51  1  0
 26 52  1  0
 26 53  1  0
 27 54  1  0
 27 55  1  0
 28 56  1  0
M  END
$$$$
