
     RDKit          3D

 51 52  0  0  0  0  0  0  0  0999 V2000
    8.1323    1.9264    2.2190 C   0  0  0  0  0  0  0  0  0  0  0  0
    7.5039    0.8463    1.5396 O   0  0  0  0  0  0  0  0  0  0  0  0
    8.1247    0.5940    0.2723 C   0  0  0  0  0  0  0  0  0  0  0  0
    7.4270   -0.5903   -0.3918 C   0  0  0  0  0  0  0  0  0  0  0  0
    6.0111   -0.3280   -0.5715 N   0  0  0  0  0  0  0  0  0  0  0  0
    5.2497   -1.1007   -1.4316 C   0  0  0  0  0  0  0  0  0  0  0  0
    5.7655   -1.9182   -2.1915 O   0  0  0  0  0  0  0  0  0  0  0  0
    3.7898   -0.8706   -1.3477 C   0  0  0  0  0  0  0  0  0  0  0  0
    3.0923    0.1860   -0.6514 C   0  0  0  0  0  0  0  0  0  0  0  0
    1.7704   -0.0597   -0.8904 C   0  0  0  0  0  0  0  0  0  0  0  0
    1.7354   -1.1565   -1.6739 N   0  0  0  0  0  0  0  0  0  0  0  0
    2.9075   -1.6944   -1.9680 N   0  0  0  0  0  0  0  0  0  0  0  0
    0.4139   -1.6085   -2.0530 C   0  0  0  0  0  0  0  0  0  0  0  0
   -0.4620   -0.4135   -1.6057 C   0  0  1  0  0  0  0  0  0  0  0  0
   -1.7379   -0.8288   -1.0347 N   0  0  0  0  0  0  0  0  0  0  0  0
   -2.7183    0.1096   -0.8232 C   0  0  0  0  0  0  0  0  0  0  0  0
   -2.6279    1.2832   -1.1503 O   0  0  0  0  0  0  0  0  0  0  0  0
   -3.7989   -0.4498   -0.1887 N   0  0  0  0  0  0  0  0  0  0  0  0
   -4.9817    0.3580    0.0438 C   0  0  0  0  0  0  0  0  0  0  0  0
   -5.9479   -0.3475    0.9923 C   0  0  0  0  0  0  0  0  0  0  0  0
   -7.1648    0.5121    1.3778 C   0  0  0  0  0  0  0  0  0  0  0  0
   -7.9992   -0.2136    2.4359 C   0  0  0  0  0  0  0  0  0  0  0  0
   -8.0423    0.8533    0.1727 C   0  0  0  0  0  0  0  0  0  0  0  0
    0.4102    0.4326   -0.6123 C   0  0  0  0  0  0  0  0  0  0  0  0
    9.1824    1.6932    2.4196 H   0  0  0  0  0  0  0  0  0  0  0  0
    8.0552    2.8455    1.6303 H   0  0  0  0  0  0  0  0  0  0  0  0
    7.6195    2.0779    3.1725 H   0  0  0  0  0  0  0  0  0  0  0  0
    8.0342    1.4874   -0.3564 H   0  0  0  0  0  0  0  0  0  0  0  0
    9.1852    0.3624    0.4213 H   0  0  0  0  0  0  0  0  0  0  0  0
    7.5024   -1.4815    0.2410 H   0  0  0  0  0  0  0  0  0  0  0  0
    7.8862   -0.8118   -1.3607 H   0  0  0  0  0  0  0  0  0  0  0  0
    5.5488    0.1059    0.2164 H   0  0  0  0  0  0  0  0  0  0  0  0
    3.5137    0.9978   -0.0766 H   0  0  0  0  0  0  0  0  0  0  0  0
    0.3846   -1.7704   -3.1334 H   0  0  0  0  0  0  0  0  0  0  0  0
    0.2043   -2.5328   -1.5069 H   0  0  0  0  0  0  0  0  0  0  0  0
   -0.6782    0.2091   -2.4854 H   0  0  0  0  0  0  0  0  0  0  0  0
   -1.7106   -1.5394   -0.3155 H   0  0  0  0  0  0  0  0  0  0  0  0
   -3.9650   -1.4084   -0.4606 H   0  0  0  0  0  0  0  0  0  0  0  0
   -4.6702    1.3237    0.4580 H   0  0  0  0  0  0  0  0  0  0  0  0
   -5.4431    0.5416   -0.9322 H   0  0  0  0  0  0  0  0  0  0  0  0
   -5.4035   -0.6254    1.9047 H   0  0  0  0  0  0  0  0  0  0  0  0
   -6.2826   -1.2896    0.5386 H   0  0  0  0  0  0  0  0  0  0  0  0
   -6.8067    1.4511    1.8185 H   0  0  0  0  0  0  0  0  0  0  0  0
   -8.3901   -1.1623    2.0523 H   0  0  0  0  0  0  0  0  0  0  0  0
   -7.3981   -0.4292    3.3256 H   0  0  0  0  0  0  0  0  0  0  0  0
   -8.8494    0.4010    2.7504 H   0  0  0  0  0  0  0  0  0  0  0  0
   -8.3756   -0.0525   -0.3449 H   0  0  0  0  0  0  0  0  0  0  0  0
   -7.5059    1.4798   -0.5463 H   0  0  0  0  0  0  0  0  0  0  0  0
   -8.9322    1.4099    0.4859 H   0  0  0  0  0  0  0  0  0  0  0  0
    0.3061    1.5028   -0.8142 H   0  0  0  0  0  0  0  0  0  0  0  0
    0.1357    0.2383    0.4301 H   0  0  0  0  0  0  0  0  0  0  0  0
  1  2  1  0
  2  3  1  0
  3  4  1  0
  4  5  1  0
  5  6  1  0
  6  7  2  0
  6  8  1  0
  8  9  1  0
  9 10  2  0
 10 11  1  0
 11 12  1  0
 11 13  1  0
 13 14  1  0
 14 15  1  0
 15 16  1  0
 16 17  2  0
 16 18  1  0
 18 19  1  0
 19 20  1  0
 20 21  1  0
 21 22  1  0
 21 23  1  0
 14 24  1  0
 12  8  2  0
 24 10  1  0
  1 25  1  0
  1 26  1  0
  1 27  1  0
  3 28  1  0
  3 29  1  0
  4 30  1  0
  4 31  1  0
  5 32  1  0
  9 33  1  0
 13 34  1  0
 13 35  1  0
 14 36  1  6
 15 37  1  0
 18 38  1  0
 19 39  1  0
 19 40  1  0
 20 41  1  0
 20 42  1  0
 21 43  1  0
 22 44  1  0
 22 45  1  0
 22 46  1  0
 23 47  1  0
 23 48  1  0
 23 49  1  0
 24 50  1  0
 24 51  1  0
M  END
$$$$
