
     RDKit          3D

 27 29  0  0  0  0  0  0  0  0999 V2000
   -3.3444   -1.9806    1.4707 N   0  0  0  0  0  0  0  0  0  0  0  0
   -3.0564   -0.6585    1.2029 C   0  0  0  0  0  0  0  0  0  0  0  0
   -3.9390    0.3427    1.4125 C   0  0  0  0  0  0  0  0  0  0  0  0
   -3.6547    1.6690    1.1503 N   0  0  0  0  0  0  0  0  0  0  0  0
   -2.4509    2.1305    0.6453 C   0  0  0  0  0  0  0  0  0  0  0  0
   -2.2514    3.3203    0.4257 O   0  0  0  0  0  0  0  0  0  0  0  0
   -1.4624    1.0876    0.4081 C   0  0  0  0  0  0  0  0  0  0  0  0
   -0.1347    1.2238   -0.0950 C   0  0  0  0  0  0  0  0  0  0  0  0
    0.5272    0.0124   -0.1820 C   0  0  0  0  0  0  0  0  0  0  0  0
    1.8886   -0.2524   -0.6677 C   0  0  0  0  0  0  0  0  0  0  0  0
    2.7586   -1.1171    0.0134 C   0  0  0  0  0  0  0  0  0  0  0  0
    4.0541   -1.3457   -0.4591 C   0  0  0  0  0  0  0  0  0  0  0  0
    4.4975   -0.7103   -1.6167 C   0  0  0  0  0  0  0  0  0  0  0  0
    3.6480    0.1550   -2.3018 C   0  0  0  0  0  0  0  0  0  0  0  0
    2.3530    0.3841   -1.8290 C   0  0  0  0  0  0  0  0  0  0  0  0
   -0.4824   -1.2775    0.3381 S   0  0  0  0  0  0  0  0  0  0  0  0
   -1.7866   -0.2298    0.6849 C   0  0  0  0  0  0  0  0  0  0  0  0
   -4.0378   -2.1124    2.2005 H   0  0  0  0  0  0  0  0  0  0  0  0
   -2.5022   -2.5323    1.6243 H   0  0  0  0  0  0  0  0  0  0  0  0
   -4.9359    0.1496    1.7955 H   0  0  0  0  0  0  0  0  0  0  0  0
   -4.3559    2.3798    1.3154 H   0  0  0  0  0  0  0  0  0  0  0  0
    0.3099    2.1736   -0.3701 H   0  0  0  0  0  0  0  0  0  0  0  0
    2.4417   -1.6147    0.9269 H   0  0  0  0  0  0  0  0  0  0  0  0
    4.7165   -2.0180    0.0799 H   0  0  0  0  0  0  0  0  0  0  0  0
    5.5048   -0.8886   -1.9840 H   0  0  0  0  0  0  0  0  0  0  0  0
    3.9908    0.6518   -3.2057 H   0  0  0  0  0  0  0  0  0  0  0  0
    1.7040    1.0577   -2.3844 H   0  0  0  0  0  0  0  0  0  0  0  0
  1  2  1  0
  2  3  2  0
  3  4  1  0
  4  5  1  0
  5  6  2  0
  5  7  1  0
  7  8  1  0
  8  9  2  0
  9 10  1  0
 10 11  2  0
 11 12  1  0
 12 13  2  0
 13 14  1  0
 14 15  2  0
  9 16  1  0
 16 17  1  0
 17  2  1  0
 17  7  2  0
 15 10  1  0
  1 18  1  0
  1 19  1  0
  3 20  1  0
  4 21  1  0
  8 22  1  0
 11 23  1  0
 12 24  1  0
 13 25  1  0
 14 26  1  0
 15 27  1  0
M  END
$$$$
