
     RDKit          3D

 16 16  0  0  0  0  0  0  0  0999 V2000
   -2.2563   -1.9858    0.0573 O   0  0  0  0  0  0  0  0  0  0  0  0
   -1.8951   -0.8308   -0.0642 C   0  0  0  0  0  0  0  0  0  0  0  0
   -2.7899    0.1543   -0.2795 O   0  0  0  0  0  0  0  0  0  0  0  0
   -0.4949   -0.3435    0.0002 C   0  0  0  0  0  0  0  0  0  0  0  0
    0.4957   -1.3131    0.2222 C   0  0  0  0  0  0  0  0  0  0  0  0
    1.8359   -0.9388    0.2963 C   0  0  0  0  0  0  0  0  0  0  0  0
    3.1600   -2.2544    0.5957 Br  0  0  0  0  0  0  0  0  0  0  0  0
    2.2091    0.3942    0.1520 C   0  0  0  0  0  0  0  0  0  0  0  0
    1.2281    1.3629   -0.0690 C   0  0  0  0  0  0  0  0  0  0  0  0
    1.7885    3.1677   -0.2593 Br  0  0  0  0  0  0  0  0  0  0  0  0
   -0.1247    1.0037   -0.1463 C   0  0  0  0  0  0  0  0  0  0  0  0
   -1.0441    1.9972   -0.3649 O   0  0  0  0  0  0  0  0  0  0  0  0
   -3.6493   -0.3263   -0.2947 H   0  0  0  0  0  0  0  0  0  0  0  0
    0.2171   -2.3598    0.3369 H   0  0  0  0  0  0  0  0  0  0  0  0
    3.2567    0.6790    0.2109 H   0  0  0  0  0  0  0  0  0  0  0  0
   -1.9369    1.5936   -0.3936 H   0  0  0  0  0  0  0  0  0  0  0  0
  1  2  2  0
  2  3  1  0
  2  4  1  0
  4  5  2  0
  5  6  1  0
  6  7  1  0
  6  8  2  0
  8  9  1  0
  9 10  1  0
  9 11  2  0
 11 12  1  0
 11  4  1  0
  3 13  1  0
  5 14  1  0
  8 15  1  0
 12 16  1  0
M  END
$$$$
