
     RDKit          3D

 53 55  0  0  0  0  0  0  0  0999 V2000
   -2.1124   -2.4370    0.7416 O   0  0  0  0  0  0  0  0  0  0  0  0
   -2.0530   -1.4182    0.0636 C   0  0  0  0  0  0  0  0  0  0  0  0
   -0.7527   -0.7426   -0.3302 C   0  0  0  0  0  0  0  0  0  0  0  0
    0.4688   -1.4718    0.2247 C   0  0  0  0  0  0  0  0  0  0  0  0
    1.7661   -0.7749   -0.1836 C   0  0  0  0  0  0  0  0  0  0  0  0
    2.9897   -1.5031    0.3803 C   0  0  0  0  0  0  0  0  0  0  0  0
    4.2319   -0.8417   -0.0049 N   0  0  0  0  0  0  0  0  0  0  0  0
    4.8167   -1.2085   -1.2068 C   0  0  0  0  0  0  0  0  0  0  0  0
    4.3564   -2.0557   -1.9708 O   0  0  0  0  0  0  0  0  0  0  0  0
    5.9740   -0.5684   -1.5484 N   0  0  0  0  0  0  0  0  0  0  0  0
    6.5658    0.4293   -0.7804 C   0  0  0  0  0  0  0  0  0  0  0  0
    7.7553    1.0231   -1.2029 C   0  0  0  0  0  0  0  0  0  0  0  0
    8.3377    2.0291   -0.4281 C   0  0  0  0  0  0  0  0  0  0  0  0
    7.7323    2.4398    0.7612 C   0  0  0  0  0  0  0  0  0  0  0  0
    6.5414    1.8445    1.1797 C   0  0  0  0  0  0  0  0  0  0  0  0
    5.9614    0.8362    0.4032 C   0  0  0  0  0  0  0  0  0  0  0  0
    4.7012    0.1865    0.8117 C   0  0  0  0  0  0  0  0  0  0  0  0
    4.1268    0.5784    1.8251 O   0  0  0  0  0  0  0  0  0  0  0  0
   -3.1623   -0.7625   -0.4324 N   0  0  0  0  0  0  0  0  0  0  0  0
   -4.5211   -1.1751   -0.0922 C   0  0  0  0  0  0  0  0  0  0  0  0
   -4.9242   -0.7113    1.3187 C   0  0  0  0  0  0  0  0  0  0  0  0
   -4.8514    0.7983    1.5440 C   0  0  0  0  0  0  0  0  0  0  0  0
   -6.0941    1.5792    1.1289 C   0  0  0  0  0  0  0  0  0  0  0  0
   -6.7928    1.1470   -0.1555 C   0  0  0  0  0  0  0  0  0  0  0  0
   -5.8642    0.7095   -1.2833 C   0  0  0  0  0  0  0  0  0  0  0  0
   -5.4970   -0.7735   -1.2040 C   0  0  0  0  0  0  0  0  0  0  0  0
   -0.7741    0.2872    0.0457 H   0  0  0  0  0  0  0  0  0  0  0  0
   -0.7023   -0.7085   -1.4249 H   0  0  0  0  0  0  0  0  0  0  0  0
    0.4765   -2.5076   -0.1368 H   0  0  0  0  0  0  0  0  0  0  0  0
    0.4038   -1.5197    1.3189 H   0  0  0  0  0  0  0  0  0  0  0  0
    1.8330   -0.7303   -1.2776 H   0  0  0  0  0  0  0  0  0  0  0  0
    1.7558    0.2627    0.1723 H   0  0  0  0  0  0  0  0  0  0  0  0
    3.0047   -2.5391    0.0214 H   0  0  0  0  0  0  0  0  0  0  0  0
    2.9272   -1.5436    1.4743 H   0  0  0  0  0  0  0  0  0  0  0  0
    6.3893   -0.8628   -2.4227 H   0  0  0  0  0  0  0  0  0  0  0  0
    8.2380    0.7154   -2.1264 H   0  0  0  0  0  0  0  0  0  0  0  0
    9.2658    2.4952   -0.7518 H   0  0  0  0  0  0  0  0  0  0  0  0
    8.1876    3.2236    1.3624 H   0  0  0  0  0  0  0  0  0  0  0  0
    6.0696    2.1654    2.1061 H   0  0  0  0  0  0  0  0  0  0  0  0
   -3.0281    0.1548   -0.8372 H   0  0  0  0  0  0  0  0  0  0  0  0
   -4.5088   -2.2733   -0.0707 H   0  0  0  0  0  0  0  0  0  0  0  0
   -5.9250   -1.0856    1.5663 H   0  0  0  0  0  0  0  0  0  0  0  0
   -4.2398   -1.1820    2.0368 H   0  0  0  0  0  0  0  0  0  0  0  0
   -4.6932    0.9816    2.6149 H   0  0  0  0  0  0  0  0  0  0  0  0
   -3.9718    1.2221    1.0464 H   0  0  0  0  0  0  0  0  0  0  0  0
   -6.8294    1.5381    1.9429 H   0  0  0  0  0  0  0  0  0  0  0  0
   -5.8127    2.6367    1.0418 H   0  0  0  0  0  0  0  0  0  0  0  0
   -7.5100    0.3477    0.0696 H   0  0  0  0  0  0  0  0  0  0  0  0
   -7.3968    1.9943   -0.5049 H   0  0  0  0  0  0  0  0  0  0  0  0
   -6.4004    0.8577   -2.2297 H   0  0  0  0  0  0  0  0  0  0  0  0
   -4.9724    1.3435   -1.3338 H   0  0  0  0  0  0  0  0  0  0  0  0
   -5.0684   -1.0702   -2.1706 H   0  0  0  0  0  0  0  0  0  0  0  0
   -6.4183   -1.3600   -1.0919 H   0  0  0  0  0  0  0  0  0  0  0  0
  1  2  2  0
  2  3  1  0
  3  4  1  0
  4  5  1  0
  5  6  1  0
  6  7  1  0
  7  8  1  0
  8  9  2  0
  8 10  1  0
 10 11  1  0
 11 12  2  0
 12 13  1  0
 13 14  2  0
 14 15  1  0
 15 16  2  0
 16 17  1  0
 17 18  2  0
  2 19  1  0
 19 20  1  0
 20 21  1  0
 21 22  1  0
 22 23  1  0
 23 24  1  0
 24 25  1  0
 25 26  1  0
 17  7  1  0
 26 20  1  0
 16 11  1  0
  3 27  1  0
  3 28  1  0
  4 29  1  0
  4 30  1  0
  5 31  1  0
  5 32  1  0
  6 33  1  0
  6 34  1  0
 10 35  1  0
 12 36  1  0
 13 37  1  0
 14 38  1  0
 15 39  1  0
 19 40  1  0
 20 41  1  0
 21 42  1  0
 21 43  1  0
 22 44  1  0
 22 45  1  0
 23 46  1  0
 23 47  1  0
 24 48  1  0
 24 49  1  0
 25 50  1  0
 25 51  1  0
 26 52  1  0
 26 53  1  0
M  END
$$$$
