
     RDKit          3D

 52 54  0  0  0  0  0  0  0  0999 V2000
    3.4802   -0.6041    3.7155 C   0  0  0  0  0  0  0  0  0  0  0  0
    2.2495   -0.5289    2.8523 C   0  0  0  0  0  0  0  0  0  0  0  0
    0.9957   -0.6629    3.4708 C   0  0  0  0  0  0  0  0  0  0  0  0
   -0.1858   -0.6050    2.7284 C   0  0  0  0  0  0  0  0  0  0  0  0
   -0.1375   -0.4109    1.3526 C   0  0  0  0  0  0  0  0  0  0  0  0
   -1.2777   -0.3493    0.5232 N   0  0  0  0  0  0  0  0  0  0  0  0
   -2.6046   -0.3930    0.9096 C   0  0  0  0  0  0  0  0  0  0  0  0
   -3.0378   -0.4257    2.0550 O   0  0  0  0  0  0  0  0  0  0  0  0
   -3.5803   -0.3591   -0.2164 C   0  0  0  0  0  0  0  0  0  0  0  0
   -3.3358   -1.0364   -1.4121 C   0  0  0  0  0  0  0  0  0  0  0  0
   -4.2741   -0.9662   -2.4343 C   0  0  0  0  0  0  0  0  0  0  0  0
   -5.4557   -0.2360   -2.2540 C   0  0  0  0  0  0  0  0  0  0  0  0
   -5.7546    0.4302   -1.0506 C   0  0  0  0  0  0  0  0  0  0  0  0
   -6.9430    1.1620   -0.9026 N   0  0  0  0  0  0  0  0  0  0  0  0
   -8.1369    0.6166   -1.5553 C   0  0  0  0  0  0  0  0  0  0  0  0
   -7.1954    1.8527    0.3623 C   0  0  0  0  0  0  0  0  0  0  0  0
   -4.7784    0.3548   -0.0424 C   0  0  0  0  0  0  0  0  0  0  0  0
    1.1122   -0.2804    0.7288 C   0  0  0  0  0  0  0  0  0  0  0  0
    2.3094   -0.3328    1.4570 C   0  0  0  0  0  0  0  0  0  0  0  0
    3.5782   -0.2126    0.8376 N   0  0  0  0  0  0  0  0  0  0  0  0
    3.8522    0.0495   -0.4937 C   0  0  0  0  0  0  0  0  0  0  0  0
    3.0451    0.3048   -1.3796 O   0  0  0  0  0  0  0  0  0  0  0  0
    5.3014    0.0507   -0.8447 C   0  0  0  0  0  0  0  0  0  0  0  0
    6.2037   -0.8453   -0.2550 C   0  0  0  0  0  0  0  0  0  0  0  0
    7.5516   -0.8132   -0.6186 C   0  0  0  0  0  0  0  0  0  0  0  0
    7.9891    0.0995   -1.5732 C   0  0  0  0  0  0  0  0  0  0  0  0
    9.3127    0.0892   -1.8975 O   0  0  0  0  0  0  0  0  0  0  0  0
    7.1014    0.9828   -2.1798 C   0  0  0  0  0  0  0  0  0  0  0  0
    5.7527    0.9538   -1.8179 C   0  0  0  0  0  0  0  0  0  0  0  0
    4.0539    0.3251    3.6415 H   0  0  0  0  0  0  0  0  0  0  0  0
    3.2267   -0.7472    4.7710 H   0  0  0  0  0  0  0  0  0  0  0  0
    4.1062   -1.4491    3.4117 H   0  0  0  0  0  0  0  0  0  0  0  0
    0.9228   -0.8163    4.5461 H   0  0  0  0  0  0  0  0  0  0  0  0
   -1.1271   -0.7195    3.2567 H   0  0  0  0  0  0  0  0  0  0  0  0
   -1.0902   -0.1896   -0.4593 H   0  0  0  0  0  0  0  0  0  0  0  0
   -2.4388   -1.6321   -1.5531 H   0  0  0  0  0  0  0  0  0  0  0  0
   -4.0946   -1.4762   -3.3775 H   0  0  0  0  0  0  0  0  0  0  0  0
   -6.1407   -0.1878   -3.0960 H   0  0  0  0  0  0  0  0  0  0  0  0
   -9.0315    1.1872   -1.2784 H   0  0  0  0  0  0  0  0  0  0  0  0
   -8.0631    0.6842   -2.6467 H   0  0  0  0  0  0  0  0  0  0  0  0
   -8.3072   -0.4263   -1.2608 H   0  0  0  0  0  0  0  0  0  0  0  0
   -8.0894    2.4816    0.2860 H   0  0  0  0  0  0  0  0  0  0  0  0
   -7.3553    1.1390    1.1780 H   0  0  0  0  0  0  0  0  0  0  0  0
   -6.3732    2.5299    0.6186 H   0  0  0  0  0  0  0  0  0  0  0  0
   -4.9283    0.8440    0.9166 H   0  0  0  0  0  0  0  0  0  0  0  0
    1.1339   -0.1405   -0.3461 H   0  0  0  0  0  0  0  0  0  0  0  0
    4.3752   -0.2634    1.4561 H   0  0  0  0  0  0  0  0  0  0  0  0
    5.8719   -1.5927    0.4602 H   0  0  0  0  0  0  0  0  0  0  0  0
    8.2576   -1.5079   -0.1710 H   0  0  0  0  0  0  0  0  0  0  0  0
    9.4694    0.7473   -2.5953 H   0  0  0  0  0  0  0  0  0  0  0  0
    7.4336    1.6900   -2.9342 H   0  0  0  0  0  0  0  0  0  0  0  0
    5.0507    1.6356   -2.2957 H   0  0  0  0  0  0  0  0  0  0  0  0
  1  2  1  0
  2  3  2  0
  3  4  1  0
  4  5  2  0
  5  6  1  0
  6  7  1  0
  7  8  2  0
  7  9  1  0
  9 10  2  0
 10 11  1  0
 11 12  2  0
 12 13  1  0
 13 14  1  0
 14 15  1  0
 14 16  1  0
 13 17  2  0
  5 18  1  0
 18 19  2  0
 19 20  1  0
 20 21  1  0
 21 22  2  0
 21 23  1  0
 23 24  2  0
 24 25  1  0
 25 26  2  0
 26 27  1  0
 26 28  1  0
 28 29  2  0
 19  2  1  0
 29 23  1  0
 17  9  1  0
  1 30  1  0
  1 31  1  0
  1 32  1  0
  3 33  1  0
  4 34  1  0
  6 35  1  0
 10 36  1  0
 11 37  1  0
 12 38  1  0
 15 39  1  0
 15 40  1  0
 15 41  1  0
 16 42  1  0
 16 43  1  0
 16 44  1  0
 17 45  1  0
 18 46  1  0
 20 47  1  0
 24 48  1  0
 25 49  1  0
 27 50  1  0
 28 51  1  0
 29 52  1  0
M  END
$$$$
