
     RDKit          3D

 45 47  0  0  0  0  0  0  0  0999 V2000
    1.9200   -1.3658   -2.1118 O   0  0  0  0  0  0  0  0  0  0  0  0
    1.7517   -1.5912   -0.9118 C   0  0  0  0  0  0  0  0  0  0  0  0
    2.8006   -2.2842   -0.0433 C   0  0  0  0  0  0  0  0  0  0  0  0
    4.4606   -2.3069   -0.7949 S   0  0  0  0  0  0  0  0  0  0  0  0
    4.9305   -0.6140   -0.4938 C   0  0  0  0  0  0  0  0  0  0  0  0
    4.6609    0.3748   -1.4434 C   0  0  0  0  0  0  0  0  0  0  0  0
    5.0281    1.7002   -1.2026 C   0  0  0  0  0  0  0  0  0  0  0  0
    5.6735    2.0407   -0.0148 C   0  0  0  0  0  0  0  0  0  0  0  0
    5.9555    1.0562    0.9313 C   0  0  0  0  0  0  0  0  0  0  0  0
    5.5873   -0.2694    0.6914 C   0  0  0  0  0  0  0  0  0  0  0  0
    0.5629   -1.2189   -0.2721 N   0  0  0  0  0  0  0  0  0  0  0  0
    0.0639   -1.8808    0.9372 C   0  0  0  0  0  0  0  0  0  0  0  0
   -0.8890   -0.9895    1.7401 C   0  0  0  0  0  0  0  0  0  0  0  0
   -1.9391   -0.3767    0.9210 N   0  0  0  0  0  0  0  0  0  0  0  0
   -3.0816    0.0454    1.6012 C   0  0  0  0  0  0  0  0  0  0  0  0
   -3.2904   -0.3033    2.7697 O   0  0  0  0  0  0  0  0  0  0  0  0
   -4.1545    0.8900    0.8777 C   0  0  0  0  0  0  0  0  0  0  0  0
   -4.9846    0.0646   -0.0913 C   0  0  0  0  0  0  0  0  0  0  0  0
   -5.6342    1.1398   -0.9256 C   0  0  0  0  0  0  0  0  0  0  0  0
   -4.5502    2.1938   -1.0082 C   0  0  0  0  0  0  0  0  0  0  0  0
   -3.7147    2.0409    0.1505 O   0  0  0  0  0  0  0  0  0  0  0  0
   -1.4600    0.2553   -0.3129 C   0  0  0  0  0  0  0  0  0  0  0  0
   -0.4833   -0.6244   -1.1050 C   0  0  0  0  0  0  0  0  0  0  0  0
    2.4854   -3.3218    0.1040 H   0  0  0  0  0  0  0  0  0  0  0  0
    2.8737   -1.7912    0.9302 H   0  0  0  0  0  0  0  0  0  0  0  0
    4.1604    0.1206   -2.3759 H   0  0  0  0  0  0  0  0  0  0  0  0
    4.8123    2.4640   -1.9451 H   0  0  0  0  0  0  0  0  0  0  0  0
    5.9622    3.0722    0.1701 H   0  0  0  0  0  0  0  0  0  0  0  0
    6.4672    1.3194    1.8534 H   0  0  0  0  0  0  0  0  0  0  0  0
    5.8223   -1.0287    1.4329 H   0  0  0  0  0  0  0  0  0  0  0  0
    0.8828   -2.2041    1.5831 H   0  0  0  0  0  0  0  0  0  0  0  0
   -0.4602   -2.7856    0.6048 H   0  0  0  0  0  0  0  0  0  0  0  0
   -0.3283   -0.1666    2.2015 H   0  0  0  0  0  0  0  0  0  0  0  0
   -1.3293   -1.5803    2.5506 H   0  0  0  0  0  0  0  0  0  0  0  0
   -4.8127    1.2803    1.6664 H   0  0  0  0  0  0  0  0  0  0  0  0
   -4.3550   -0.5737   -0.7212 H   0  0  0  0  0  0  0  0  0  0  0  0
   -5.7078   -0.5804    0.4166 H   0  0  0  0  0  0  0  0  0  0  0  0
   -5.9685    0.7936   -1.9072 H   0  0  0  0  0  0  0  0  0  0  0  0
   -6.5048    1.5443   -0.3956 H   0  0  0  0  0  0  0  0  0  0  0  0
   -4.9574    3.2087   -1.0342 H   0  0  0  0  0  0  0  0  0  0  0  0
   -3.9238    2.0506   -1.8947 H   0  0  0  0  0  0  0  0  0  0  0  0
   -0.9721    1.1932   -0.0217 H   0  0  0  0  0  0  0  0  0  0  0  0
   -2.2935    0.4960   -0.9712 H   0  0  0  0  0  0  0  0  0  0  0  0
   -0.0404   -0.0307   -1.9122 H   0  0  0  0  0  0  0  0  0  0  0  0
   -1.0266   -1.4564   -1.5707 H   0  0  0  0  0  0  0  0  0  0  0  0
  1  2  2  0
  2  3  1  0
  3  4  1  0
  4  5  1  0
  5  6  2  0
  6  7  1  0
  7  8  2  0
  8  9  1  0
  9 10  2  0
  2 11  1  0
 11 12  1  0
 12 13  1  0
 13 14  1  0
 14 15  1  0
 15 16  2  0
 15 17  1  0
 17 18  1  0
 18 19  1  0
 19 20  1  0
 20 21  1  0
 14 22  1  0
 22 23  1  0
 10  5  1  0
 23 11  1  0
 21 17  1  0
  3 24  1  0
  3 25  1  0
  6 26  1  0
  7 27  1  0
  8 28  1  0
  9 29  1  0
 10 30  1  0
 12 31  1  0
 12 32  1  0
 13 33  1  0
 13 34  1  0
 17 35  1  0
 18 36  1  0
 18 37  1  0
 19 38  1  0
 19 39  1  0
 20 40  1  0
 20 41  1  0
 22 42  1  0
 22 43  1  0
 23 44  1  0
 23 45  1  0
M  END
$$$$
