
     RDKit          3D

 14 14  0  0  0  0  0  0  0  0999 V2000
    2.4532   -1.3419    0.3239 O   0  0  0  0  0  0  0  0  0  0  0  0
    1.9252   -0.2952   -0.0026 C   0  0  0  0  0  0  0  0  0  0  0  0
    2.6529    0.7625   -0.3997 O   0  0  0  0  0  0  0  0  0  0  0  0
    0.4748   -0.0323   -0.0144 C   0  0  0  0  0  0  0  0  0  0  0  0
   -0.4120   -1.0390    0.3740 C   0  0  0  0  0  0  0  0  0  0  0  0
   -1.7823   -0.7870    0.3616 C   0  0  0  0  0  0  0  0  0  0  0  0
   -2.2169    0.4666   -0.0399 C   0  0  0  0  0  0  0  0  0  0  0  0
   -1.3865    1.4622   -0.4215 N   0  0  0  0  0  0  0  0  0  0  0  0
   -0.0566    1.1905   -0.4003 C   0  0  0  0  0  0  0  0  0  0  0  0
    3.5812    0.4498   -0.3432 H   0  0  0  0  0  0  0  0  0  0  0  0
   -0.0403   -2.0129    0.6841 H   0  0  0  0  0  0  0  0  0  0  0  0
   -2.4935   -1.5503    0.6581 H   0  0  0  0  0  0  0  0  0  0  0  0
   -3.2755    0.7107   -0.0663 H   0  0  0  0  0  0  0  0  0  0  0  0
    0.5763    2.0162   -0.7138 H   0  0  0  0  0  0  0  0  0  0  0  0
  1  2  2  0
  2  3  1  0
  2  4  1  0
  4  5  2  0
  5  6  1  0
  6  7  2  0
  7  8  1  0
  8  9  2  0
  9  4  1  0
  3 10  1  0
  5 11  1  0
  6 12  1  0
  7 13  1  0
  9 14  1  0
M  END
$$$$
