
     RDKit          3D

 53 55  0  0  0  0  0  0  0  0999 V2000
    2.0594   -2.6156   -0.9110 C   0  0  0  0  0  0  0  0  0  0  0  0
    2.4983   -1.1860   -0.7396 C   0  0  0  0  0  0  0  0  0  0  0  0
    3.4510   -0.7987   -1.4204 O   0  0  0  0  0  0  0  0  0  0  0  0
    1.8130   -0.3431    0.1365 N   0  0  0  0  0  0  0  0  0  0  0  0
    2.3243    1.0437    0.3118 C   0  0  0  0  0  0  0  0  0  0  0  0
    2.1789    1.9093   -0.9459 C   0  0  0  0  0  0  0  0  0  0  0  0
    2.6793    3.3195   -0.6605 C   0  0  0  0  0  0  0  0  0  0  0  0
    4.0199    3.3024   -0.1739 O   0  0  0  0  0  0  0  0  0  0  0  0
    4.1567    2.5777    1.0474 C   0  0  0  0  0  0  0  0  0  0  0  0
    3.7525    1.1195    0.8691 C   0  0  0  0  0  0  0  0  0  0  0  0
    0.6584   -0.7139    0.9969 C   0  0  0  0  0  0  0  0  0  0  0  0
    1.0697   -1.5075    2.2455 C   0  0  0  0  0  0  0  0  0  0  0  0
   -0.1363   -1.7179    3.1620 C   0  0  0  0  0  0  0  0  0  0  0  0
   -1.3231   -2.3289    2.4201 C   0  0  0  0  0  0  0  0  0  0  0  0
   -1.6641   -1.5695    1.2176 N   0  0  0  0  0  0  0  0  0  0  0  0
   -2.9863   -1.6755    0.7663 C   0  0  0  0  0  0  0  0  0  0  0  0
   -3.8343   -2.3755    1.3140 O   0  0  0  0  0  0  0  0  0  0  0  0
   -3.4005   -0.8828   -0.4144 C   0  0  0  0  0  0  0  0  0  0  0  0
   -4.0916   -1.5193   -1.4480 C   0  0  0  0  0  0  0  0  0  0  0  0
   -4.4926   -0.7848   -2.5627 C   0  0  0  0  0  0  0  0  0  0  0  0
   -4.2212    0.5841   -2.6340 C   0  0  0  0  0  0  0  0  0  0  0  0
   -3.5664    1.2392   -1.5821 C   0  0  0  0  0  0  0  0  0  0  0  0
   -3.2666    2.7063   -1.6698 C   0  0  0  0  0  0  0  0  0  0  0  0
   -3.1529    0.4953   -0.4698 C   0  0  0  0  0  0  0  0  0  0  0  0
   -0.5485   -1.3550    0.2838 C   0  0  0  0  0  0  0  0  0  0  0  0
    1.7856   -3.0903    0.0275 H   0  0  0  0  0  0  0  0  0  0  0  0
    1.2381   -2.6619   -1.6298 H   0  0  0  0  0  0  0  0  0  0  0  0
    2.8968   -3.1931   -1.3182 H   0  0  0  0  0  0  0  0  0  0  0  0
    1.6945    1.5215    1.0739 H   0  0  0  0  0  0  0  0  0  0  0  0
    1.1335    1.9376   -1.2736 H   0  0  0  0  0  0  0  0  0  0  0  0
    2.7653    1.4937   -1.7717 H   0  0  0  0  0  0  0  0  0  0  0  0
    2.6658    3.9121   -1.5807 H   0  0  0  0  0  0  0  0  0  0  0  0
    2.0371    3.8292    0.0672 H   0  0  0  0  0  0  0  0  0  0  0  0
    5.2056    2.6374    1.3550 H   0  0  0  0  0  0  0  0  0  0  0  0
    3.5579    3.0645    1.8263 H   0  0  0  0  0  0  0  0  0  0  0  0
    4.4644    0.6478    0.1847 H   0  0  0  0  0  0  0  0  0  0  0  0
    3.8214    0.5877    1.8245 H   0  0  0  0  0  0  0  0  0  0  0  0
    0.2497    0.2342    1.3738 H   0  0  0  0  0  0  0  0  0  0  0  0
    1.8514   -0.9675    2.7930 H   0  0  0  0  0  0  0  0  0  0  0  0
    1.4933   -2.4804    1.9833 H   0  0  0  0  0  0  0  0  0  0  0  0
   -0.4358   -0.7491    3.5817 H   0  0  0  0  0  0  0  0  0  0  0  0
    0.1449   -2.3584    4.0052 H   0  0  0  0  0  0  0  0  0  0  0  0
   -2.1858   -2.3689    3.0947 H   0  0  0  0  0  0  0  0  0  0  0  0
   -1.0990   -3.3575    2.1119 H   0  0  0  0  0  0  0  0  0  0  0  0
   -4.3148   -2.5816   -1.3842 H   0  0  0  0  0  0  0  0  0  0  0  0
   -5.0213   -1.2768   -3.3755 H   0  0  0  0  0  0  0  0  0  0  0  0
   -4.5380    1.1410   -3.5139 H   0  0  0  0  0  0  0  0  0  0  0  0
   -4.0286    3.2265   -2.2596 H   0  0  0  0  0  0  0  0  0  0  0  0
   -3.2585    3.1631   -0.6746 H   0  0  0  0  0  0  0  0  0  0  0  0
   -2.2896    2.8606   -2.1381 H   0  0  0  0  0  0  0  0  0  0  0  0
   -2.6463    0.9853    0.3583 H   0  0  0  0  0  0  0  0  0  0  0  0
   -0.3229   -2.3434   -0.1210 H   0  0  0  0  0  0  0  0  0  0  0  0
   -0.8419   -0.7360   -0.5668 H   0  0  0  0  0  0  0  0  0  0  0  0
  1  2  1  0
  2  3  2  0
  2  4  1  0
  4  5  1  0
  5  6  1  0
  6  7  1  0
  7  8  1  0
  8  9  1  0
  9 10  1  0
  4 11  1  0
 11 12  1  0
 12 13  1  0
 13 14  1  0
 14 15  1  0
 15 16  1  0
 16 17  2  0
 16 18  1  0
 18 19  2  0
 19 20  1  0
 20 21  2  0
 21 22  1  0
 22 23  1  0
 22 24  2  0
 15 25  1  0
 10  5  1  0
 25 11  1  0
 24 18  1  0
  1 26  1  0
  1 27  1  0
  1 28  1  0
  5 29  1  0
  6 30  1  0
  6 31  1  0
  7 32  1  0
  7 33  1  0
  9 34  1  0
  9 35  1  0
 10 36  1  0
 10 37  1  0
 11 38  1  0
 12 39  1  0
 12 40  1  0
 13 41  1  0
 13 42  1  0
 14 43  1  0
 14 44  1  0
 19 45  1  0
 20 46  1  0
 21 47  1  0
 23 48  1  0
 23 49  1  0
 23 50  1  0
 24 51  1  0
 25 52  1  0
 25 53  1  0
M  END
$$$$
