
     RDKit          3D

 43 45  0  0  0  0  0  0  0  0999 V2000
   -3.4386    3.1786   -0.5689 C   0  0  0  0  0  0  0  0  0  0  0  0
   -3.4609    1.7723    0.0100 C   0  0  0  0  0  0  0  0  0  0  0  0
   -2.2352    0.9603   -0.3837 C   0  0  0  0  0  0  0  0  0  0  0  0
   -1.4036    1.4235   -1.1643 O   0  0  0  0  0  0  0  0  0  0  0  0
   -2.1107   -0.3146    0.1723 N   0  0  0  0  0  0  0  0  0  0  0  0
   -3.1028   -0.9133    1.0677 C   0  0  0  0  0  0  0  0  0  0  0  0
   -3.4348   -2.3368    0.6349 C   0  0  0  0  0  0  0  0  0  0  0  0
   -2.2006   -3.2323    0.5572 C   0  0  0  0  0  0  0  0  0  0  0  0
   -0.8980   -2.4522    0.7139 C   0  0  0  0  0  0  0  0  0  0  0  0
   -0.8703   -1.1192   -0.0976 C   0  0  0  0  0  0  0  0  0  0  0  0
   -0.7904   -1.4764   -1.6011 C   0  0  0  0  0  0  0  0  0  0  0  0
    0.3642   -0.3464    0.3558 C   0  0  0  0  0  0  0  0  0  0  0  0
    0.4097    0.3338    1.5154 N   0  0  0  0  0  0  0  0  0  0  0  0
    1.7023    0.8572    1.5289 O   0  0  0  0  0  0  0  0  0  0  0  0
    2.3217    0.4091    0.3961 C   0  0  0  0  0  0  0  0  0  0  0  0
    3.7039    0.8237    0.1819 C   0  0  0  0  0  0  0  0  0  0  0  0
    4.3804    0.3989   -0.9752 C   0  0  0  0  0  0  0  0  0  0  0  0
    5.7053    0.7765   -1.2093 C   0  0  0  0  0  0  0  0  0  0  0  0
    6.3598    1.5818   -0.2866 C   0  0  0  0  0  0  0  0  0  0  0  0
    7.6297    1.9440   -0.5089 F   0  0  0  0  0  0  0  0  0  0  0  0
    5.7148    2.0171    0.8643 C   0  0  0  0  0  0  0  0  0  0  0  0
    4.3891    1.6394    1.0989 C   0  0  0  0  0  0  0  0  0  0  0  0
    1.5543   -0.3662   -0.3378 N   0  0  0  0  0  0  0  0  0  0  0  0
   -4.3289    3.7328   -0.2560 H   0  0  0  0  0  0  0  0  0  0  0  0
   -3.4191    3.1539   -1.6635 H   0  0  0  0  0  0  0  0  0  0  0  0
   -2.5553    3.7296   -0.2291 H   0  0  0  0  0  0  0  0  0  0  0  0
   -3.5031    1.8455    1.1019 H   0  0  0  0  0  0  0  0  0  0  0  0
   -4.3554    1.2587   -0.3577 H   0  0  0  0  0  0  0  0  0  0  0  0
   -4.0293   -0.3373    1.0936 H   0  0  0  0  0  0  0  0  0  0  0  0
   -2.6905   -0.8940    2.0833 H   0  0  0  0  0  0  0  0  0  0  0  0
   -3.9130   -2.3085   -0.3526 H   0  0  0  0  0  0  0  0  0  0  0  0
   -4.1680   -2.7749    1.3217 H   0  0  0  0  0  0  0  0  0  0  0  0
   -2.2045   -3.7743   -0.3960 H   0  0  0  0  0  0  0  0  0  0  0  0
   -2.2516   -3.9999    1.3388 H   0  0  0  0  0  0  0  0  0  0  0  0
   -0.0507   -3.0934    0.4368 H   0  0  0  0  0  0  0  0  0  0  0  0
   -0.7618   -2.2389    1.7839 H   0  0  0  0  0  0  0  0  0  0  0  0
   -0.5973   -0.6014   -2.2298 H   0  0  0  0  0  0  0  0  0  0  0  0
    0.0216   -2.1865   -1.7980 H   0  0  0  0  0  0  0  0  0  0  0  0
   -1.7239   -1.9272   -1.9553 H   0  0  0  0  0  0  0  0  0  0  0  0
    3.8712   -0.2300   -1.7047 H   0  0  0  0  0  0  0  0  0  0  0  0
    6.2255    0.4484   -2.1037 H   0  0  0  0  0  0  0  0  0  0  0  0
    6.2451    2.6476    1.5711 H   0  0  0  0  0  0  0  0  0  0  0  0
    3.8997    1.9914    2.0051 H   0  0  0  0  0  0  0  0  0  0  0  0
  1  2  1  0
  2  3  1  0
  3  4  2  0
  3  5  1  0
  5  6  1  0
  6  7  1  0
  7  8  1  0
  8  9  1  0
  9 10  1  0
 10 11  1  0
 10 12  1  0
 12 13  2  0
 13 14  1  0
 14 15  1  0
 15 16  1  0
 16 17  2  0
 17 18  1  0
 18 19  2  0
 19 20  1  0
 19 21  1  0
 21 22  2  0
 15 23  2  0
 10  5  1  0
 23 12  1  0
 22 16  1  0
  1 24  1  0
  1 25  1  0
  1 26  1  0
  2 27  1  0
  2 28  1  0
  6 29  1  0
  6 30  1  0
  7 31  1  0
  7 32  1  0
  8 33  1  0
  8 34  1  0
  9 35  1  0
  9 36  1  0
 11 37  1  0
 11 38  1  0
 11 39  1  0
 17 40  1  0
 18 41  1  0
 21 42  1  0
 22 43  1  0
M  END
$$$$
