
     RDKit          3D

 76 79  0  0  0  0  0  0  0  0999 V2000
    7.4455    4.3009   -0.7482 N   0  0  0  0  0  0  0  0  0  0  0  0
    8.6459    3.6588   -0.8672 C   0  0  0  0  0  0  0  0  0  0  0  0
    9.6816    4.2745   -1.0703 O   0  0  0  0  0  0  0  0  0  0  0  0
    8.6776    2.1828   -0.7326 C   0  0  0  0  0  0  0  0  0  0  0  0
    9.8936    1.5426   -0.4827 C   0  0  0  0  0  0  0  0  0  0  0  0
    9.9369    0.1515   -0.3953 C   0  0  0  0  0  0  0  0  0  0  0  0
    8.7646   -0.5779   -0.5472 C   0  0  0  0  0  0  0  0  0  0  0  0
    7.5953    0.0548   -0.7952 N   0  0  0  0  0  4  0  0  0  0  0  0
    6.3563   -0.7576   -0.8826 C   0  0  2  0  0  0  0  0  0  0  0  0
    5.3598   -0.0692   -1.6303 O   0  0  0  0  0  0  0  0  0  0  0  0
    4.0837   -0.5001   -1.0789 C   0  0  2  0  0  0  0  0  0  0  0  0
    3.1772    0.7166   -0.9140 C   0  0  0  0  0  0  0  0  0  0  0  0
    2.0515    0.4264   -0.1285 O   0  0  0  0  0  0  0  0  0  0  0  0
    1.1018   -0.7997   -0.5959 P   0  0  0  0  0  5  0  0  0  0  0  0
    0.9544   -0.7347   -2.0989 O   0  0  0  0  0  0  0  0  0  0  0  0
    1.7267   -2.0680   -0.0283 O   0  0  0  0  0  1  0  0  0  0  0  0
   -0.2648   -0.4759    0.1492 O   0  0  0  0  0  0  0  0  0  0  0  0
   -0.6283    0.8532    0.9902 P   0  0  0  0  0  5  0  0  0  0  0  0
   -0.6871    2.0743    0.1141 O   0  0  0  0  0  0  0  0  0  0  0  0
    0.1040    0.8519    2.3141 O   0  0  0  0  0  1  0  0  0  0  0  0
   -2.1833    0.4725    1.3127 O   0  0  0  0  0  0  0  0  0  0  0  0
   -2.3947   -0.5945    2.2235 C   0  0  0  0  0  0  0  0  0  0  0  0
   -3.7243   -1.2511    1.8791 C   0  0  1  0  0  0  0  0  0  0  0  0
   -4.8119   -0.3385    2.1521 O   0  0  0  0  0  0  0  0  0  0  0  0
   -5.8606   -0.6039    1.1988 C   0  0  1  0  0  0  0  0  0  0  0  0
   -6.2323    0.6333    0.5432 N   0  0  0  0  0  0  0  0  0  0  0  0
   -5.4738    1.3950   -0.3146 C   0  0  0  0  0  0  0  0  0  0  0  0
   -6.1636    2.3969   -0.8293 N   0  0  0  0  0  0  0  0  0  0  0  0
   -7.4005    2.3228   -0.2223 C   0  0  0  0  0  0  0  0  0  0  0  0
   -8.5488    3.1452   -0.2980 C   0  0  0  0  0  0  0  0  0  0  0  0
   -8.5975    4.2929   -1.0850 N   0  0  0  0  0  0  0  0  0  0  0  0
   -9.6136    2.8441    0.4826 N   0  0  0  0  0  0  0  0  0  0  0  0
   -9.5315    1.7459    1.2695 C   0  0  0  0  0  0  0  0  0  0  0  0
   -8.5111    0.8659    1.4025 N   0  0  0  0  0  0  0  0  0  0  0  0
   -7.4636    1.2340    0.6372 C   0  0  0  0  0  0  0  0  0  0  0  0
   -5.3859   -1.7217    0.2639 C   0  0  2  0  0  0  0  0  0  0  0  0
   -5.8454   -2.9698    0.7920 O   0  0  0  0  0  0  0  0  0  0  0  0
   -5.9892   -4.2261   -0.1807 P   0  0  0  0  0  5  0  0  0  0  0  0
   -5.9863   -5.5552    0.4902 O   0  0  0  0  0  0  0  0  0  0  0  0
   -7.3817   -3.9274   -0.8999 O   0  0  0  0  0  0  0  0  0  0  0  0
   -4.9500   -4.0397   -1.3700 O   0  0  0  0  0  0  0  0  0  0  0  0
   -3.8680   -1.6411    0.4017 C   0  0  2  0  0  0  0  0  0  0  0  0
   -3.1982   -2.8637    0.0538 O   0  0  0  0  0  0  0  0  0  0  0  0
    4.3663   -1.2302    0.2502 C   0  0  1  0  0  0  0  0  0  0  0  0
    4.2255   -2.6491    0.0872 O   0  0  0  0  0  0  0  0  0  0  0  0
    5.8200   -0.9463    0.5287 C   0  0  1  0  0  0  0  0  0  0  0  0
    6.4877   -2.0088    1.2155 O   0  0  0  0  0  0  0  0  0  0  0  0
    7.5379    1.4085   -0.9011 C   0  0  0  0  0  0  0  0  0  0  0  0
    0.0000    0.0000    0.0000 Na  0  0  0  0  0 15  0  0  0  0  0  0
    7.4678    5.3162   -0.8076 H   0  0  0  0  0  0  0  0  0  0  0  0
    6.6057    3.9156   -0.3347 H   0  0  0  0  0  0  0  0  0  0  0  0
   10.8132    2.1197   -0.3774 H   0  0  0  0  0  0  0  0  0  0  0  0
   10.8816   -0.3520   -0.2027 H   0  0  0  0  0  0  0  0  0  0  0  0
    8.7426   -1.6647   -0.4577 H   0  0  0  0  0  0  0  0  0  0  0  0
    6.6039   -1.7018   -1.3901 H   0  0  0  0  0  0  0  0  0  0  0  0
    3.6505   -1.1963   -1.8041 H   0  0  0  0  0  0  0  0  0  0  0  0
    3.7305    1.5336   -0.4267 H   0  0  0  0  0  0  0  0  0  0  0  0
    2.8631    1.1102   -1.8913 H   0  0  0  0  0  0  0  0  0  0  0  0
   -2.4205   -0.1663    3.2319 H   0  0  0  0  0  0  0  0  0  0  0  0
   -1.5790   -1.3340    2.1590 H   0  0  0  0  0  0  0  0  0  0  0  0
   -3.8575   -2.1291    2.5249 H   0  0  0  0  0  0  0  0  0  0  0  0
   -6.7266   -0.9390    1.7769 H   0  0  0  0  0  0  0  0  0  0  0  0
   -4.4299    1.1866   -0.5391 H   0  0  0  0  0  0  0  0  0  0  0  0
   -7.6617    4.6541   -1.2577 H   0  0  0  0  0  0  0  0  0  0  0  0
   -9.2662    4.9618   -0.7150 H   0  0  0  0  0  0  0  0  0  0  0  0
  -10.4067    1.5432    1.8872 H   0  0  0  0  0  0  0  0  0  0  0  0
   -5.7488   -1.6121   -0.7600 H   0  0  0  0  0  0  0  0  0  0  0  0
   -8.0581   -4.5330   -0.5502 H   0  0  0  0  0  0  0  0  0  0  0  0
   -4.0345   -3.8940   -1.0054 H   0  0  0  0  0  0  0  0  0  0  0  0
   -3.4918   -0.8624   -0.2696 H   0  0  0  0  0  0  0  0  0  0  0  0
   -2.2393   -2.6706    0.1622 H   0  0  0  0  0  0  0  0  0  0  0  0
    3.7362   -0.9247    1.0958 H   0  0  0  0  0  0  0  0  0  0  0  0
    3.2214   -2.7356    0.0185 H   0  0  0  0  0  0  0  0  0  0  0  0
    5.9191   -0.0275    1.1200 H   0  0  0  0  0  0  0  0  0  0  0  0
    5.8151   -2.7354    1.2342 H   0  0  0  0  0  0  0  0  0  0  0  0
    6.5715    1.8422   -1.1393 H   0  0  0  0  0  0  0  0  0  0  0  0
  1  2  1  0
  2  3  2  0
  2  4  1  0
  4  5  2  0
  5  6  1  0
  6  7  2  0
  7  8  1  0
  8  9  1  0
  9 10  1  0
 10 11  1  0
 11 12  1  0
 12 13  1  0
 13 14  1  0
 14 15  2  0
 14 16  1  0
 14 17  1  0
 17 18  1  0
 18 19  2  0
 18 20  1  0
 18 21  1  0
 21 22  1  0
 22 23  1  0
 23 24  1  0
 24 25  1  0
 25 26  1  0
 26 27  1  0
 27 28  2  0
 28 29  1  0
 29 30  2  0
 30 31  1  0
 30 32  1  0
 32 33  2  0
 33 34  1  0
 34 35  2  0
 25 36  1  0
 36 37  1  0
 37 38  1  0
 38 39  2  0
 38 40  1  0
 38 41  1  0
 36 42  1  0
 42 43  1  0
 11 44  1  0
 44 45  1  0
 44 46  1  0
 46 47  1  0
  8 48  2  0
 48  4  1  0
 46  9  1  0
 42 23  1  0
 35 26  1  0
 35 29  1  0
  1 50  1  0
  1 51  1  0
  5 52  1  0
  6 53  1  0
  7 54  1  0
  9 55  1  6
 11 56  1  6
 12 57  1  0
 12 58  1  0
 22 59  1  0
 22 60  1  0
 23 61  1  1
 25 62  1  1
 27 63  1  0
 31 64  1  0
 31 65  1  0
 33 66  1  0
 36 67  1  6
 40 68  1  0
 41 69  1  0
 42 70  1  6
 43 71  1  0
 44 72  1  1
 45 73  1  0
 46 74  1  1
 47 75  1  0
 48 76  1  0
M  CHG  4   8   1  16  -1  20  -1  49   1
M  END
$$$$
