
     RDKit          3D

 54 57  0  0  0  0  0  0  0  0999 V2000
   -8.0242   -2.0555   -0.6826 C   0  0  0  0  0  0  0  0  0  0  0  0
   -7.7207   -0.7196   -0.0090 C   0  0  0  0  0  0  0  0  0  0  0  0
   -9.0112   -0.0813    0.4983 C   0  0  0  0  0  0  0  0  0  0  0  0
   -6.8772   -0.9415    1.1375 O   0  0  0  0  0  0  0  0  0  0  0  0
   -5.5476   -0.7672    0.8598 C   0  0  0  0  0  0  0  0  0  0  0  0
   -4.7749   -1.9167    0.6852 C   0  0  0  0  0  0  0  0  0  0  0  0
   -3.4014   -1.8101    0.4496 C   0  0  0  0  0  0  0  0  0  0  0  0
   -2.7786   -0.5538    0.4037 C   0  0  0  0  0  0  0  0  0  0  0  0
   -1.3474   -0.4091    0.1635 C   0  0  0  0  0  0  0  0  0  0  0  0
   -0.6196    0.6790    0.0621 N   0  0  0  0  0  0  0  0  0  0  0  0
    0.6530    0.1811   -0.1540 C   0  0  0  0  0  0  0  0  0  0  0  0
    1.8075    1.0639   -0.3148 C   0  0  0  0  0  0  0  0  0  0  0  0
    1.6311    2.4555   -0.1712 C   0  0  0  0  0  0  0  0  0  0  0  0
    2.7074    3.3516   -0.2756 C   0  0  0  0  0  0  0  0  0  0  0  0
    3.9937    2.8803   -0.5240 C   0  0  0  0  0  0  0  0  0  0  0  0
    4.1792    1.5136   -0.6840 C   0  0  0  0  0  0  0  0  0  0  0  0
    3.1008    0.6118   -0.5914 C   0  0  0  0  0  0  0  0  0  0  0  0
    3.6087   -0.7918   -0.7643 C   0  0  0  0  0  0  0  0  0  0  0  0
    4.9740   -0.5544   -1.4238 C   0  0  0  0  0  0  0  0  0  0  0  0
    5.4944    0.8062   -0.9193 C   0  0  2  0  0  0  0  0  0  0  0  0
    6.2449    0.7383    0.3323 N   0  0  0  0  0  0  0  0  0  0  0  0
    7.7006    0.7304    0.1502 C   0  0  0  0  0  0  0  0  0  0  0  0
    8.2728   -0.5911   -0.3817 C   0  0  0  0  0  0  0  0  0  0  0  0
    7.8386   -1.6755    0.4368 O   0  0  0  0  0  0  0  0  0  0  0  0
    0.7011   -1.1614   -0.1847 N   0  0  0  0  0  0  0  0  0  0  0  0
   -0.6168   -1.5520    0.0217 O   0  0  0  0  0  0  0  0  0  0  0  0
   -3.5652    0.5941    0.6103 C   0  0  0  0  0  0  0  0  0  0  0  0
   -4.9444    0.4947    0.8516 C   0  0  0  0  0  0  0  0  0  0  0  0
   -5.6978    1.6891    1.1000 C   0  0  0  0  0  0  0  0  0  0  0  0
   -6.2919    2.6693    1.2842 N   0  0  0  0  0  0  0  0  0  0  0  0
   -8.7605   -1.9363   -1.4844 H   0  0  0  0  0  0  0  0  0  0  0  0
   -7.1176   -2.4883   -1.1208 H   0  0  0  0  0  0  0  0  0  0  0  0
   -8.4056   -2.7839    0.0421 H   0  0  0  0  0  0  0  0  0  0  0  0
   -7.2568   -0.0394   -0.7359 H   0  0  0  0  0  0  0  0  0  0  0  0
   -8.7971    0.8613    1.0136 H   0  0  0  0  0  0  0  0  0  0  0  0
   -9.7056    0.1199   -0.3242 H   0  0  0  0  0  0  0  0  0  0  0  0
   -9.5083   -0.7303    1.2280 H   0  0  0  0  0  0  0  0  0  0  0  0
   -5.2407   -2.8983    0.7380 H   0  0  0  0  0  0  0  0  0  0  0  0
   -2.8248   -2.7253    0.3137 H   0  0  0  0  0  0  0  0  0  0  0  0
    0.6430    2.8623    0.0432 H   0  0  0  0  0  0  0  0  0  0  0  0
    2.5354    4.4181   -0.1438 H   0  0  0  0  0  0  0  0  0  0  0  0
    4.8359    3.5634   -0.5749 H   0  0  0  0  0  0  0  0  0  0  0  0
    2.9818   -1.3969   -1.4255 H   0  0  0  0  0  0  0  0  0  0  0  0
    3.7182   -1.2787    0.2115 H   0  0  0  0  0  0  0  0  0  0  0  0
    5.6588   -1.3907   -1.2492 H   0  0  0  0  0  0  0  0  0  0  0  0
    4.8350   -0.4935   -2.5148 H   0  0  0  0  0  0  0  0  0  0  0  0
    6.0501    1.3218   -1.7125 H   0  0  0  0  0  0  0  0  0  0  0  0
    5.9882   -0.1082    0.8462 H   0  0  0  0  0  0  0  0  0  0  0  0
    8.0196    1.5677   -0.4815 H   0  0  0  0  0  0  0  0  0  0  0  0
    8.1340    0.9077    1.1426 H   0  0  0  0  0  0  0  0  0  0  0  0
    9.3662   -0.5568   -0.3580 H   0  0  0  0  0  0  0  0  0  0  0  0
    7.9544   -0.7780   -1.4124 H   0  0  0  0  0  0  0  0  0  0  0  0
    8.2995   -2.4736    0.1235 H   0  0  0  0  0  0  0  0  0  0  0  0
   -3.0922    1.5778    0.5949 H   0  0  0  0  0  0  0  0  0  0  0  0
  1  2  1  0
  2  3  1  0
  2  4  1  0
  4  5  1  0
  5  6  2  0
  6  7  1  0
  7  8  2  0
  8  9  1  0
  9 10  2  0
 10 11  1  0
 11 12  1  0
 12 13  2  0
 13 14  1  0
 14 15  2  0
 15 16  1  0
 16 17  2  0
 17 18  1  0
 18 19  1  0
 19 20  1  0
 20 21  1  0
 21 22  1  0
 22 23  1  0
 23 24  1  0
 11 25  2  0
 25 26  1  0
  8 27  1  0
 27 28  2  0
 28 29  1  0
 29 30  3  0
 28  5  1  0
 26  9  1  0
 17 12  1  0
 20 16  1  0
  1 31  1  0
  1 32  1  0
  1 33  1  0
  2 34  1  0
  3 35  1  0
  3 36  1  0
  3 37  1  0
  6 38  1  0
  7 39  1  0
 13 40  1  0
 14 41  1  0
 15 42  1  0
 18 43  1  0
 18 44  1  0
 19 45  1  0
 19 46  1  0
 20 47  1  6
 21 48  1  0
 22 49  1  0
 22 50  1  0
 23 51  1  0
 23 52  1  0
 24 53  1  0
 27 54  1  0
M  END
$$$$
