
     RDKit          3D

 61 64  0  0  0  0  0  0  0  0999 V2000
   -5.4371    4.7919   -0.4935 C   0  0  0  0  0  0  0  0  0  0  0  0
   -5.4606    3.0130   -0.5655 S   0  0  0  0  0  6  0  0  0  0  0  0
   -6.4003    2.5389    0.4280 O   0  0  0  0  0  0  0  0  0  0  0  0
   -5.5621    2.6004   -1.9483 O   0  0  0  0  0  0  0  0  0  0  0  0
   -3.9079    2.6267   -0.0199 N   0  0  0  0  0  0  0  0  0  0  0  0
   -2.7584    2.9900   -0.8835 C   0  0  0  0  0  0  0  0  0  0  0  0
   -1.9713    1.7031   -1.0776 C   0  0  0  0  0  0  0  0  0  0  0  0
   -2.2241    0.9148    0.2160 C   0  0  0  0  0  0  0  0  0  0  0  0
   -1.7806   -0.5064    0.1492 N   0  0  0  0  0  0  0  0  0  0  0  0
   -0.3634   -0.6092   -0.2701 C   0  0  0  0  0  0  0  0  0  0  0  0
    0.6841    0.0748    0.6374 C   0  0  0  0  0  0  0  0  0  0  0  0
    2.0438   -0.1695    0.1882 N   0  0  0  0  0  0  0  0  0  0  0  0
    2.5747    0.5401   -0.8701 C   0  0  0  0  0  0  0  0  0  0  0  0
    1.9684    1.4295   -1.4557 O   0  0  0  0  0  0  0  0  0  0  0  0
    3.9382    0.1444   -1.3137 C   0  0  0  0  0  0  0  0  0  0  0  0
    4.2833    0.3280   -2.6536 C   0  0  0  0  0  0  0  0  0  0  0  0
    5.5567   -0.0357   -3.1048 C   0  0  0  0  0  0  0  0  0  0  0  0
    6.5083   -0.5714   -2.2485 C   0  0  0  0  0  0  0  0  0  0  0  0
    7.7165   -0.9062   -2.7315 N   0  0  0  0  0  0  0  0  0  0  0  0
    8.6264   -1.4142   -1.8716 C   0  0  0  0  0  0  0  0  0  0  0  0
    8.3878   -1.6106   -0.5250 C   0  0  0  0  0  0  0  0  0  0  0  0
    7.1368   -1.2663   -0.0275 C   0  0  0  0  0  0  0  0  0  0  0  0
    6.1651   -0.7385   -0.8886 C   0  0  0  0  0  0  0  0  0  0  0  0
    4.8851   -0.3777   -0.4266 C   0  0  0  0  0  0  0  0  0  0  0  0
   -2.1405   -1.3119    1.3546 C   0  0  0  0  0  0  0  0  0  0  0  0
   -1.2891   -2.5753    1.6106 C   0  0  0  0  0  0  0  0  0  0  0  0
   -1.7286   -3.2930    2.8884 C   0  0  0  0  0  0  0  0  0  0  0  0
   -3.1097   -3.1203    3.1890 O   0  0  0  0  0  0  0  0  0  0  0  0
   -3.9055   -3.0668    2.0140 C   0  0  0  0  0  0  0  0  0  0  0  0
   -3.6190   -1.7721    1.2602 C   0  0  0  0  0  0  0  0  0  0  0  0
   -3.7300    1.2042    0.3958 C   0  0  0  0  0  0  0  0  0  0  0  0
   -6.4275    5.1510   -0.7818 H   0  0  0  0  0  0  0  0  0  0  0  0
   -4.6902    5.1736   -1.1910 H   0  0  0  0  0  0  0  0  0  0  0  0
   -5.2155    5.1006    0.5298 H   0  0  0  0  0  0  0  0  0  0  0  0
   -3.0536    3.4158   -1.8462 H   0  0  0  0  0  0  0  0  0  0  0  0
   -2.1586    3.7369   -0.3516 H   0  0  0  0  0  0  0  0  0  0  0  0
   -0.9162    1.9256   -1.2608 H   0  0  0  0  0  0  0  0  0  0  0  0
   -2.3620    1.1553   -1.9451 H   0  0  0  0  0  0  0  0  0  0  0  0
   -1.6957    1.4167    1.0391 H   0  0  0  0  0  0  0  0  0  0  0  0
   -0.0929   -1.6626   -0.4129 H   0  0  0  0  0  0  0  0  0  0  0  0
   -0.2658   -0.2129   -1.2885 H   0  0  0  0  0  0  0  0  0  0  0  0
    0.6220   -0.2912    1.6660 H   0  0  0  0  0  0  0  0  0  0  0  0
    0.5290    1.1584    0.6604 H   0  0  0  0  0  0  0  0  0  0  0  0
    2.4933   -1.0248    0.4861 H   0  0  0  0  0  0  0  0  0  0  0  0
    3.5658    0.7510   -3.3543 H   0  0  0  0  0  0  0  0  0  0  0  0
    5.8137    0.1063   -4.1523 H   0  0  0  0  0  0  0  0  0  0  0  0
    9.5868   -1.6661   -2.3129 H   0  0  0  0  0  0  0  0  0  0  0  0
    9.1566   -2.0203    0.1203 H   0  0  0  0  0  0  0  0  0  0  0  0
    6.9274   -1.4105    1.0293 H   0  0  0  0  0  0  0  0  0  0  0  0
    4.6498   -0.4813    0.6291 H   0  0  0  0  0  0  0  0  0  0  0  0
   -2.0226   -0.6748    2.2426 H   0  0  0  0  0  0  0  0  0  0  0  0
   -1.3983   -3.2629    0.7609 H   0  0  0  0  0  0  0  0  0  0  0  0
   -0.2202   -2.3644    1.7041 H   0  0  0  0  0  0  0  0  0  0  0  0
   -1.1669   -2.9060    3.7454 H   0  0  0  0  0  0  0  0  0  0  0  0
   -1.5098   -4.3643    2.8175 H   0  0  0  0  0  0  0  0  0  0  0  0
   -4.9601   -3.1056    2.3063 H   0  0  0  0  0  0  0  0  0  0  0  0
   -3.7106   -3.9485    1.3913 H   0  0  0  0  0  0  0  0  0  0  0  0
   -4.2591   -1.0001    1.6973 H   0  0  0  0  0  0  0  0  0  0  0  0
   -3.9399   -1.8992    0.2190 H   0  0  0  0  0  0  0  0  0  0  0  0
   -4.3303    0.5462   -0.2430 H   0  0  0  0  0  0  0  0  0  0  0  0
   -4.0353    1.1031    1.4407 H   0  0  0  0  0  0  0  0  0  0  0  0
  1  2  1  0
  2  3  2  0
  2  4  2  0
  2  5  1  0
  5  6  1  0
  6  7  1  0
  7  8  1  0
  8  9  1  0
  9 10  1  0
 10 11  1  0
 11 12  1  0
 12 13  1  0
 13 14  2  0
 13 15  1  0
 15 16  2  0
 16 17  1  0
 17 18  2  0
 18 19  1  0
 19 20  2  0
 20 21  1  0
 21 22  2  0
 22 23  1  0
 23 24  2  0
  9 25  1  0
 25 26  1  0
 26 27  1  0
 27 28  1  0
 28 29  1  0
 29 30  1  0
  8 31  1  0
 31  5  1  0
 24 15  1  0
 30 25  1  0
 23 18  1  0
  1 32  1  0
  1 33  1  0
  1 34  1  0
  6 35  1  0
  6 36  1  0
  7 37  1  0
  7 38  1  0
  8 39  1  0
 10 40  1  0
 10 41  1  0
 11 42  1  0
 11 43  1  0
 12 44  1  0
 16 45  1  0
 17 46  1  0
 20 47  1  0
 21 48  1  0
 22 49  1  0
 24 50  1  0
 25 51  1  0
 26 52  1  0
 26 53  1  0
 27 54  1  0
 27 55  1  0
 29 56  1  0
 29 57  1  0
 30 58  1  0
 30 59  1  0
 31 60  1  0
 31 61  1  0
M  END
$$$$
