
     RDKit          3D

 59 59  0  0  0  0  0  0  0  0999 V2000
    7.0170    0.0502   -1.2756 C   0  0  0  0  0  0  0  0  0  0  0  0
    5.6515   -0.5185   -1.0300 C   0  0  0  0  0  0  0  0  0  0  0  0
    5.3270   -0.7841    0.3336 N   0  0  0  0  0  0  0  0  0  0  0  0
    5.1545    0.3402    1.1848 C   0  0  0  0  0  0  0  0  0  0  0  0
    6.3758    1.1362    1.5017 C   0  0  0  0  0  0  0  0  0  0  0  0
    4.0683   -1.5252    0.3361 C   0  0  0  0  0  0  0  0  0  0  0  0
    3.0178   -0.6151   -0.1118 C   0  0  0  0  0  0  0  0  0  0  0  0
    2.1372    0.1584   -0.4687 C   0  0  0  0  0  0  0  0  0  0  0  0
    1.0842    1.0984   -0.8744 C   0  0  0  0  0  0  0  0  0  0  0  0
   -0.1884    0.6821   -0.4970 O   0  0  0  0  0  0  0  0  0  0  0  0
   -0.6092    0.4382    0.7814 C   0  0  0  0  0  0  0  0  0  0  0  0
    0.2079    0.5925    1.7220 O   0  0  0  0  0  0  0  0  0  0  0  0
   -1.9873    0.0056    1.0358 C   0  0  0  0  0  0  0  0  0  0  0  0
   -2.0786   -0.1939    2.4420 O   0  0  0  0  0  0  0  0  0  0  0  0
   -2.9596    1.0729    0.6801 C   0  0  0  0  0  0  0  0  0  0  0  0
   -3.9724    1.3654    1.5677 C   0  0  0  0  0  0  0  0  0  0  0  0
   -4.9032    2.3378    1.3000 C   0  0  0  0  0  0  0  0  0  0  0  0
   -4.8343    3.0442    0.1205 C   0  0  0  0  0  0  0  0  0  0  0  0
   -3.8234    2.7549   -0.7694 C   0  0  0  0  0  0  0  0  0  0  0  0
   -2.9014    1.7799   -0.4857 C   0  0  0  0  0  0  0  0  0  0  0  0
   -2.2965   -1.3449    0.4498 C   0  0  0  0  0  0  0  0  0  0  0  0
   -2.1975   -1.4976   -1.0154 C   0  0  0  0  0  0  0  0  0  0  0  0
   -3.5122   -1.7223   -1.7331 C   0  0  0  0  0  0  0  0  0  0  0  0
   -4.7184   -1.2611   -0.9968 C   0  0  0  0  0  0  0  0  0  0  0  0
   -4.8048   -1.7403    0.4106 C   0  0  0  0  0  0  0  0  0  0  0  0
   -3.4993   -2.0091    1.0603 C   0  0  0  0  0  0  0  0  0  0  0  0
    0.6899    0.0000    0.0000 Cl  0  0  0  0  0  0  0  0  0  0  0  0
    6.9791    1.1204   -1.5905 H   0  0  0  0  0  0  0  0  0  0  0  0
    7.7084   -0.1107   -0.4244 H   0  0  0  0  0  0  0  0  0  0  0  0
    7.4641   -0.5035   -2.1479 H   0  0  0  0  0  0  0  0  0  0  0  0
    5.5632   -1.4770   -1.5959 H   0  0  0  0  0  0  0  0  0  0  0  0
    4.9145    0.2071   -1.4888 H   0  0  0  0  0  0  0  0  0  0  0  0
    4.7309   -0.0094    2.1700 H   0  0  0  0  0  0  0  0  0  0  0  0
    4.3451    0.9865    0.7417 H   0  0  0  0  0  0  0  0  0  0  0  0
    7.1847    0.4379    1.8212 H   0  0  0  0  0  0  0  0  0  0  0  0
    6.2101    1.8118    2.3876 H   0  0  0  0  0  0  0  0  0  0  0  0
    6.7389    1.7618    0.6877 H   0  0  0  0  0  0  0  0  0  0  0  0
    4.1624   -2.4016   -0.3509 H   0  0  0  0  0  0  0  0  0  0  0  0
    3.8342   -1.9176    1.3414 H   0  0  0  0  0  0  0  0  0  0  0  0
    1.0859    1.1810   -2.0011 H   0  0  0  0  0  0  0  0  0  0  0  0
    1.2457    2.1148   -0.4439 H   0  0  0  0  0  0  0  0  0  0  0  0
   -1.6918    0.6243    2.8459 H   0  0  0  0  0  0  0  0  0  0  0  0
   -4.0529    0.8117    2.5272 H   0  0  0  0  0  0  0  0  0  0  0  0
   -5.6879    2.5601    1.9921 H   0  0  0  0  0  0  0  0  0  0  0  0
   -5.5811    3.8235   -0.0940 H   0  0  0  0  0  0  0  0  0  0  0  0
   -3.7788    3.3291   -1.7145 H   0  0  0  0  0  0  0  0  0  0  0  0
   -2.1271    1.6052   -1.2410 H   0  0  0  0  0  0  0  0  0  0  0  0
   -1.4239   -1.9932    0.8711 H   0  0  0  0  0  0  0  0  0  0  0  0
   -1.6393   -0.6965   -1.5521 H   0  0  0  0  0  0  0  0  0  0  0  0
   -1.5861   -2.4207   -1.2912 H   0  0  0  0  0  0  0  0  0  0  0  0
   -3.6523   -2.8011   -2.0406 H   0  0  0  0  0  0  0  0  0  0  0  0
   -3.4737   -1.1781   -2.6985 H   0  0  0  0  0  0  0  0  0  0  0  0
   -5.5998   -1.7343   -1.5338 H   0  0  0  0  0  0  0  0  0  0  0  0
   -4.9261   -0.1722   -1.0954 H   0  0  0  0  0  0  0  0  0  0  0  0
   -5.4123   -1.0335    1.0311 H   0  0  0  0  0  0  0  0  0  0  0  0
   -5.4111   -2.7020    0.4818 H   0  0  0  0  0  0  0  0  0  0  0  0
   -3.5674   -1.7515    2.1429 H   0  0  0  0  0  0  0  0  0  0  0  0
   -3.3105   -3.1169    1.0604 H   0  0  0  0  0  0  0  0  0  0  0  0
   -0.6899    0.0000    0.0000 H   0  0  0  0  0  0  0  0  0  0  0  0
  1  2  1  0
  2  3  1  0
  3  4  1  0
  4  5  1  0
  3  6  1  0
  6  7  1  0
  7  8  3  0
  8  9  1  0
  9 10  1  0
 10 11  1  0
 11 12  2  0
 11 13  1  0
 13 14  1  0
 13 15  1  0
 15 16  2  0
 16 17  1  0
 17 18  2  0
 18 19  1  0
 19 20  2  0
 13 21  1  0
 21 22  1  0
 22 23  1  0
 23 24  1  0
 24 25  1  0
 25 26  1  0
 20 15  1  0
 26 21  1  0
  1 28  1  0
  1 29  1  0
  1 30  1  0
  2 31  1  0
  2 32  1  0
  4 33  1  0
  4 34  1  0
  5 35  1  0
  5 36  1  0
  5 37  1  0
  6 38  1  0
  6 39  1  0
  9 40  1  0
  9 41  1  0
 14 42  1  0
 16 43  1  0
 17 44  1  0
 18 45  1  0
 19 46  1  0
 20 47  1  0
 21 48  1  0
 22 49  1  0
 22 50  1  0
 23 51  1  0
 23 52  1  0
 24 53  1  0
 24 54  1  0
 25 55  1  0
 25 56  1  0
 26 57  1  0
 26 58  1  0
 27 59  1  0
M  END
$$$$
