
     RDKit          3D

 48 50  0  0  0  0  0  0  0  0999 V2000
   -2.2468   -2.7900    0.9980 C   0  0  0  0  0  0  0  0  0  0  0  0
   -2.3523   -1.3431    0.6388 C   0  0  0  0  0  0  0  0  0  0  0  0
   -1.3630   -0.4729    0.3772 C   0  0  0  0  0  0  0  0  0  0  0  0
    0.0057   -0.5191    0.4004 N   0  0  0  0  0  0  0  0  0  0  0  0
    0.8222   -1.4384    1.0190 C   0  0  0  0  0  0  0  0  0  0  0  0
    0.4570   -2.3498    1.7511 O   0  0  0  0  0  0  0  0  0  0  0  0
    2.2844   -1.2349    0.8053 C   0  0  0  0  0  0  0  0  0  0  0  0
    2.7915   -0.6949   -0.3850 C   0  0  0  0  0  0  0  0  0  0  0  0
    4.1707   -0.5281   -0.5453 C   0  0  0  0  0  0  0  0  0  0  0  0
    5.0430   -0.9171    0.4717 C   0  0  0  0  0  0  0  0  0  0  0  0
    6.4455   -0.7043    0.3277 N   0  0  0  0  0  0  0  0  0  0  0  0
    7.0182    0.8601    0.6479 S   0  0  0  0  0  6  0  0  0  0  0  0
    7.4533    1.3963   -0.9910 C   0  0  0  0  0  0  0  0  0  0  0  0
    8.2473    0.6729    1.3894 O   0  0  0  0  0  0  0  0  0  0  0  0
    5.9518    1.6995    1.1453 O   0  0  0  0  0  0  0  0  0  0  0  0
    4.5457   -1.4560    1.6584 C   0  0  0  0  0  0  0  0  0  0  0  0
    3.1683   -1.6250    1.8203 C   0  0  0  0  0  0  0  0  0  0  0  0
   -2.0400    0.7886   -0.0641 C   0  0  0  0  0  0  0  0  0  0  0  0
   -1.4040    1.7599   -0.4502 O   0  0  0  0  0  0  0  0  0  0  0  0
   -3.4141    0.5522    0.0039 N   0  0  0  0  0  0  0  0  0  0  0  0
   -4.4108    1.2523   -0.7237 C   0  0  0  0  0  0  0  0  0  0  0  0
   -4.2240    2.5927   -1.0890 C   0  0  0  0  0  0  0  0  0  0  0  0
   -5.2059    3.2893   -1.8018 C   0  0  0  0  0  0  0  0  0  0  0  0
   -6.3891    2.6538   -2.1657 C   0  0  0  0  0  0  0  0  0  0  0  0
   -6.5894    1.3206   -1.8208 C   0  0  0  0  0  0  0  0  0  0  0  0
   -5.6076    0.6271   -1.1060 C   0  0  0  0  0  0  0  0  0  0  0  0
   -3.6328   -0.7705    0.4900 N   0  0  0  0  0  0  0  0  0  0  0  0
   -4.5254   -0.8180    1.6646 C   0  0  0  0  0  0  0  0  0  0  0  0
   -2.1516   -2.9158    2.0805 H   0  0  0  0  0  0  0  0  0  0  0  0
   -1.4055   -3.2721    0.4924 H   0  0  0  0  0  0  0  0  0  0  0  0
   -3.1415   -3.3333    0.6739 H   0  0  0  0  0  0  0  0  0  0  0  0
    0.4367    0.3358    0.0554 H   0  0  0  0  0  0  0  0  0  0  0  0
    2.1334   -0.4190   -1.2050 H   0  0  0  0  0  0  0  0  0  0  0  0
    4.5543   -0.1093   -1.4710 H   0  0  0  0  0  0  0  0  0  0  0  0
    7.0327   -1.3686    0.8384 H   0  0  0  0  0  0  0  0  0  0  0  0
    7.9109    2.3851   -0.9105 H   0  0  0  0  0  0  0  0  0  0  0  0
    6.5500    1.4564   -1.6000 H   0  0  0  0  0  0  0  0  0  0  0  0
    8.1697    0.6922   -1.4177 H   0  0  0  0  0  0  0  0  0  0  0  0
    5.2142   -1.7399    2.4664 H   0  0  0  0  0  0  0  0  0  0  0  0
    2.7839   -2.0512    2.7455 H   0  0  0  0  0  0  0  0  0  0  0  0
   -3.3204    3.1290   -0.8108 H   0  0  0  0  0  0  0  0  0  0  0  0
   -5.0413    4.3299   -2.0701 H   0  0  0  0  0  0  0  0  0  0  0  0
   -7.1497    3.1943   -2.7227 H   0  0  0  0  0  0  0  0  0  0  0  0
   -7.5054    0.8144   -2.1140 H   0  0  0  0  0  0  0  0  0  0  0  0
   -5.7806   -0.4224   -0.8834 H   0  0  0  0  0  0  0  0  0  0  0  0
   -4.7391   -1.8563    1.9389 H   0  0  0  0  0  0  0  0  0  0  0  0
   -5.4860   -0.3340    1.4670 H   0  0  0  0  0  0  0  0  0  0  0  0
   -4.0639   -0.3183    2.5241 H   0  0  0  0  0  0  0  0  0  0  0  0
  1  2  1  0
  2  3  2  0
  3  4  1  0
  4  5  1  0
  5  6  2  0
  5  7  1  0
  7  8  2  0
  8  9  1  0
  9 10  2  0
 10 11  1  0
 11 12  1  0
 12 13  1  0
 12 14  2  0
 12 15  2  0
 10 16  1  0
 16 17  2  0
  3 18  1  0
 18 19  2  0
 18 20  1  0
 20 21  1  0
 21 22  2  0
 22 23  1  0
 23 24  2  0
 24 25  1  0
 25 26  2  0
 20 27  1  0
 27 28  1  0
 27  2  1  0
 17  7  1  0
 26 21  1  0
  1 29  1  0
  1 30  1  0
  1 31  1  0
  4 32  1  0
  8 33  1  0
  9 34  1  0
 11 35  1  0
 13 36  1  0
 13 37  1  0
 13 38  1  0
 16 39  1  0
 17 40  1  0
 22 41  1  0
 23 42  1  0
 24 43  1  0
 25 44  1  0
 26 45  1  0
 28 46  1  0
 28 47  1  0
 28 48  1  0
M  END
$$$$
