
     RDKit          3D

 55 59  0  0  0  0  0  0  0  0999 V2000
    7.2706   -0.3085    1.2683 C   0  0  0  0  0  0  0  0  0  0  0  0
    6.2013    0.5674    0.9282 O   0  0  0  0  0  0  0  0  0  0  0  0
    4.9586    0.0123    0.7519 C   0  0  0  0  0  0  0  0  0  0  0  0
    4.6643   -1.3419    0.9266 C   0  0  0  0  0  0  0  0  0  0  0  0
    3.3648   -1.8208    0.7223 C   0  0  0  0  0  0  0  0  0  0  0  0
    2.3424   -0.9539    0.3446 C   0  0  0  0  0  0  0  0  0  0  0  0
    1.0130   -1.3581    0.1161 N   0  0  0  0  0  0  0  0  0  0  0  0
    0.4782   -2.6325    0.1866 C   0  0  0  0  0  0  0  0  0  0  0  0
    1.0851   -3.6532    0.5031 O   0  0  0  0  0  0  0  0  0  0  0  0
   -1.0195   -2.6988   -0.1231 C   0  0  0  0  0  0  0  0  0  0  0  0
   -1.4700   -1.5933   -0.9493 N   0  0  0  0  0  0  0  0  0  0  0  0
   -1.3241   -1.5133   -2.3326 C   0  0  0  0  0  0  0  0  0  0  0  0
   -0.6377   -2.3149   -3.2189 C   0  0  0  0  0  0  0  0  0  0  0  0
   -0.6604   -1.9604   -4.5738 C   0  0  0  0  0  0  0  0  0  0  0  0
   -1.3621   -0.8228   -5.0194 C   0  0  0  0  0  0  0  0  0  0  0  0
   -2.0591   -0.0121   -4.1210 C   0  0  0  0  0  0  0  0  0  0  0  0
   -2.0244   -0.3759   -2.7914 C   0  0  0  0  0  0  0  0  0  0  0  0
   -2.6098    0.2214   -1.6621 N   0  0  0  0  0  0  0  0  0  0  0  0
   -3.3791    1.3482   -1.5956 C   0  0  0  0  0  0  0  0  0  0  0  0
   -3.7110    2.0750   -2.5260 O   0  0  0  0  0  0  0  0  0  0  0  0
   -3.8158    1.6704   -0.2208 C   0  0  0  0  0  0  0  0  0  0  0  0
   -3.4419    0.8763    0.7979 C   0  0  0  0  0  0  0  0  0  0  0  0
   -3.8710    1.2143    2.1751 C   0  0  0  0  0  0  0  0  0  0  0  0
   -5.1487    1.7005    2.4819 C   0  0  0  0  0  0  0  0  0  0  0  0
   -5.4886    1.9935    3.8029 C   0  0  0  0  0  0  0  0  0  0  0  0
   -4.5396    1.7846    4.7894 C   0  0  0  0  0  0  0  0  0  0  0  0
   -3.3027    1.3063    4.5453 N   0  0  0  0  0  0  0  0  0  0  0  0
   -3.0040    1.0248    3.2516 C   0  0  0  0  0  0  0  0  0  0  0  0
   -2.6411   -0.2382    0.6524 N   0  0  0  0  0  0  0  0  0  0  0  0
   -2.2668   -0.5364   -0.5461 C   0  0  0  0  0  0  0  0  0  0  0  0
    2.6330    0.4068    0.1740 C   0  0  0  0  0  0  0  0  0  0  0  0
    3.9316    0.8962    0.3710 C   0  0  0  0  0  0  0  0  0  0  0  0
    4.2964    2.2105    0.2197 O   0  0  0  0  0  0  0  0  0  0  0  0
    3.3082    3.1259   -0.2342 C   0  0  0  0  0  0  0  0  0  0  0  0
    7.1020   -0.7794    2.2477 H   0  0  0  0  0  0  0  0  0  0  0  0
    8.1807    0.2935    1.3417 H   0  0  0  0  0  0  0  0  0  0  0  0
    7.4339   -1.0638    0.4865 H   0  0  0  0  0  0  0  0  0  0  0  0
    5.4226   -2.0591    1.2244 H   0  0  0  0  0  0  0  0  0  0  0  0
    3.1895   -2.8809    0.8729 H   0  0  0  0  0  0  0  0  0  0  0  0
    0.3594   -0.6322   -0.1562 H   0  0  0  0  0  0  0  0  0  0  0  0
   -1.5477   -2.7082    0.8367 H   0  0  0  0  0  0  0  0  0  0  0  0
   -1.2288   -3.6516   -0.6216 H   0  0  0  0  0  0  0  0  0  0  0  0
   -0.0851   -3.1909   -2.8966 H   0  0  0  0  0  0  0  0  0  0  0  0
   -0.1239   -2.5724   -5.2975 H   0  0  0  0  0  0  0  0  0  0  0  0
   -1.3590   -0.5724   -6.0786 H   0  0  0  0  0  0  0  0  0  0  0  0
   -2.5991    0.8633   -4.4649 H   0  0  0  0  0  0  0  0  0  0  0  0
   -4.4184    2.5625   -0.1118 H   0  0  0  0  0  0  0  0  0  0  0  0
   -5.8970    1.8424    1.7061 H   0  0  0  0  0  0  0  0  0  0  0  0
   -6.4736    2.3704    4.0565 H   0  0  0  0  0  0  0  0  0  0  0  0
   -4.7573    1.9987    5.8322 H   0  0  0  0  0  0  0  0  0  0  0  0
   -2.0015    0.6309    3.1010 H   0  0  0  0  0  0  0  0  0  0  0  0
    1.8305    1.0794   -0.1120 H   0  0  0  0  0  0  0  0  0  0  0  0
    2.4961    3.2232    0.4950 H   0  0  0  0  0  0  0  0  0  0  0  0
    2.9251    2.8399   -1.2206 H   0  0  0  0  0  0  0  0  0  0  0  0
    3.7817    4.1074   -0.3355 H   0  0  0  0  0  0  0  0  0  0  0  0
  1  2  1  0
  2  3  1  0
  3  4  2  0
  4  5  1  0
  5  6  2  0
  6  7  1  0
  7  8  1  0
  8  9  2  0
  8 10  1  0
 10 11  1  0
 11 12  1  0
 12 13  2  0
 13 14  1  0
 14 15  2  0
 15 16  1  0
 16 17  2  0
 17 18  1  0
 18 19  1  0
 19 20  2  0
 19 21  1  0
 21 22  2  0
 22 23  1  0
 23 24  2  0
 24 25  1  0
 25 26  2  0
 26 27  1  0
 27 28  2  0
 22 29  1  0
 29 30  2  0
  6 31  1  0
 31 32  2  0
 32 33  1  0
 33 34  1  0
 32  3  1  0
 30 11  1  0
 17 12  1  0
 30 18  1  0
 28 23  1  0
  1 35  1  0
  1 36  1  0
  1 37  1  0
  4 38  1  0
  5 39  1  0
  7 40  1  0
 10 41  1  0
 10 42  1  0
 13 43  1  0
 14 44  1  0
 15 45  1  0
 16 46  1  0
 21 47  1  0
 24 48  1  0
 25 49  1  0
 26 50  1  0
 28 51  1  0
 31 52  1  0
 34 53  1  0
 34 54  1  0
 34 55  1  0
M  END
$$$$
