
     RDKit          3D

 40 43  0  0  0  0  0  0  0  0999 V2000
    7.0777   -1.3116    0.4335 C   0  0  0  0  0  0  0  0  0  0  0  0
    6.0537   -0.2452    0.3035 C   0  0  0  0  0  0  0  0  0  0  0  0
    6.2805    1.1135    0.2014 C   0  0  0  0  0  0  0  0  0  0  0  0
    4.7890    1.9432    0.0684 S   0  0  0  0  0  0  0  0  0  0  0  0
    3.9612    0.4586    0.1532 C   0  0  0  0  0  0  0  0  0  0  0  0
    2.5986    0.3515    0.1025 N   0  0  0  0  0  0  0  0  0  0  0  0
    1.6740    1.3657   -0.0255 C   0  0  0  0  0  0  0  0  0  0  0  0
    1.9318    2.5618   -0.1172 O   0  0  0  0  0  0  0  0  0  0  0  0
    0.2767    0.8755   -0.0435 C   0  0  0  0  0  0  0  0  0  0  0  0
   -0.7713    1.7065   -0.1882 N   0  0  0  0  0  0  0  0  0  0  0  0
   -1.8945    0.9327   -0.0730 N   0  0  0  0  0  0  0  0  0  0  0  0
   -3.1540    1.5931    0.0513 C   0  0  0  0  0  0  0  0  0  0  0  0
   -4.2777    0.9672    0.5999 C   0  0  0  0  0  0  0  0  0  0  0  0
   -5.4873    1.6617    0.7157 C   0  0  0  0  0  0  0  0  0  0  0  0
   -5.5815    2.9883    0.3015 C   0  0  0  0  0  0  0  0  0  0  0  0
   -4.4626    3.6308   -0.2193 C   0  0  0  0  0  0  0  0  0  0  0  0
   -3.2533    2.9415   -0.3372 C   0  0  0  0  0  0  0  0  0  0  0  0
   -1.5629   -0.4073   -0.0569 C   0  0  0  0  0  0  0  0  0  0  0  0
   -2.3341   -1.6025   -0.1785 C   0  0  0  0  0  0  0  0  0  0  0  0
   -3.5274   -1.6579   -0.4570 O   0  0  0  0  0  0  0  0  0  0  0  0
   -1.5601   -2.7531   -0.0067 N   0  0  0  0  0  0  0  0  0  0  0  0
   -2.2220   -4.0383   -0.1038 C   0  0  0  0  0  0  0  0  0  0  0  0
   -0.1838   -2.6916    0.1192 C   0  0  0  0  0  0  0  0  0  0  0  0
    0.5479   -1.6201    0.1481 N   0  0  0  0  0  0  0  0  0  0  0  0
   -0.1998   -0.4432    0.0446 C   0  0  0  0  0  0  0  0  0  0  0  0
    4.7165   -0.6094    0.2740 N   0  0  0  0  0  0  0  0  0  0  0  0
    8.0791   -0.8905    0.5670 H   0  0  0  0  0  0  0  0  0  0  0  0
    6.8572   -1.9465    1.2973 H   0  0  0  0  0  0  0  0  0  0  0  0
    7.0856   -1.9379   -0.4638 H   0  0  0  0  0  0  0  0  0  0  0  0
    7.2214    1.6445    0.1983 H   0  0  0  0  0  0  0  0  0  0  0  0
    2.2657   -0.6053    0.1658 H   0  0  0  0  0  0  0  0  0  0  0  0
   -4.2494   -0.0435    0.9899 H   0  0  0  0  0  0  0  0  0  0  0  0
   -6.3561    1.1648    1.1409 H   0  0  0  0  0  0  0  0  0  0  0  0
   -6.5227    3.5235    0.3951 H   0  0  0  0  0  0  0  0  0  0  0  0
   -4.5257    4.6696   -0.5332 H   0  0  0  0  0  0  0  0  0  0  0  0
   -2.3940    3.4714   -0.7471 H   0  0  0  0  0  0  0  0  0  0  0  0
   -3.1077   -4.0436    0.5390 H   0  0  0  0  0  0  0  0  0  0  0  0
   -2.5408   -4.1898   -1.1399 H   0  0  0  0  0  0  0  0  0  0  0  0
   -1.5541   -4.8526    0.1901 H   0  0  0  0  0  0  0  0  0  0  0  0
    0.3066   -3.6757    0.2006 H   0  0  0  0  0  0  0  0  0  0  0  0
  1  2  1  0
  2  3  2  0
  3  4  1  0
  4  5  1  0
  5  6  1  0
  6  7  1  0
  7  8  2  0
  7  9  1  0
  9 10  2  0
 10 11  1  0
 11 12  1  0
 12 13  2  0
 13 14  1  0
 14 15  2  0
 15 16  1  0
 16 17  2  0
 11 18  1  0
 18 19  1  0
 19 20  2  0
 19 21  1  0
 21 22  1  0
 21 23  1  0
 23 24  2  0
 24 25  1  0
  5 26  2  0
 26  2  1  0
 25  9  1  0
 17 12  1  0
 25 18  2  0
  1 27  1  0
  1 28  1  0
  1 29  1  0
  3 30  1  0
  6 31  1  0
 13 32  1  0
 14 33  1  0
 15 34  1  0
 16 35  1  0
 17 36  1  0
 22 37  1  0
 22 38  1  0
 22 39  1  0
 23 40  1  0
M  END
$$$$
