
     RDKit          3D

 31 31  0  0  0  0  0  0  0  0999 V2000
   -2.2889    0.6757   -1.8235 C   0  0  0  0  0  0  0  0  0  0  0  0
   -2.0459    0.1321   -0.3978 C   0  0  0  0  0  0  0  0  0  0  0  0
   -3.0614    0.7590    0.5834 C   0  0  0  0  0  0  0  0  0  0  0  0
   -2.3772   -1.3820   -0.4516 C   0  0  0  0  0  0  0  0  0  0  0  0
   -0.5988    0.4349    0.0560 C   0  0  0  0  0  0  0  0  0  0  0  0
    0.3006   -0.6056    0.3786 C   0  0  0  0  0  0  0  0  0  0  0  0
    1.6229   -0.3575    0.7853 C   0  0  0  0  0  0  0  0  0  0  0  0
    2.4928   -1.4948    1.1145 C   0  0  0  0  0  0  0  0  0  0  0  0
    3.6200   -1.8414    0.4605 C   0  0  0  0  0  0  0  0  0  0  0  0
    4.1085   -1.1185   -0.6651 C   0  0  0  0  0  0  0  0  0  0  0  0
    4.5104   -0.5212   -1.5752 N   0  0  0  0  0  0  0  0  0  0  0  0
    4.3496   -2.9837    0.8968 C   0  0  0  0  0  0  0  0  0  0  0  0
    4.9264   -3.9179    1.2720 N   0  0  0  0  0  0  0  0  0  0  0  0
    2.0751    0.9561    0.8976 C   0  0  0  0  0  0  0  0  0  0  0  0
    1.2137    2.0034    0.5861 C   0  0  0  0  0  0  0  0  0  0  0  0
    1.8573    3.7824    0.7432 Br  0  0  0  0  0  0  0  0  0  0  0  0
   -0.1028    1.7495    0.1698 C   0  0  0  0  0  0  0  0  0  0  0  0
   -0.9252    2.8039   -0.1299 O   0  0  0  0  0  0  0  0  0  0  0  0
   -2.2322    1.7663   -1.8789 H   0  0  0  0  0  0  0  0  0  0  0  0
   -3.2851    0.3968   -2.1872 H   0  0  0  0  0  0  0  0  0  0  0  0
   -1.5526    0.2721   -2.5286 H   0  0  0  0  0  0  0  0  0  0  0  0
   -4.0888    0.4833    0.3170 H   0  0  0  0  0  0  0  0  0  0  0  0
   -3.0258    1.8520    0.5927 H   0  0  0  0  0  0  0  0  0  0  0  0
   -2.8804    0.4156    1.6088 H   0  0  0  0  0  0  0  0  0  0  0  0
   -2.2728   -1.8543    0.5322 H   0  0  0  0  0  0  0  0  0  0  0  0
   -1.7305   -1.9128   -1.1602 H   0  0  0  0  0  0  0  0  0  0  0  0
   -3.4113   -1.5497   -0.7772 H   0  0  0  0  0  0  0  0  0  0  0  0
   -0.0157   -1.6441    0.3123 H   0  0  0  0  0  0  0  0  0  0  0  0
    2.1419   -2.0942    1.9551 H   0  0  0  0  0  0  0  0  0  0  0  0
    3.0888    1.1693    1.2277 H   0  0  0  0  0  0  0  0  0  0  0  0
   -0.4127    3.6252   -0.0188 H   0  0  0  0  0  0  0  0  0  0  0  0
  1  2  1  0
  2  3  1  0
  2  4  1  0
  2  5  1  0
  5  6  2  0
  6  7  1  0
  7  8  1  0
  8  9  2  3
  9 10  1  0
 10 11  3  0
  9 12  1  0
 12 13  3  0
  7 14  2  0
 14 15  1  0
 15 16  1  0
 15 17  2  0
 17 18  1  0
 17  5  1  0
  1 19  1  0
  1 20  1  0
  1 21  1  0
  3 22  1  0
  3 23  1  0
  3 24  1  0
  4 25  1  0
  4 26  1  0
  4 27  1  0
  6 28  1  0
  8 29  1  0
 14 30  1  0
 18 31  1  0
M  END
$$$$
