
     RDKit          3D

 37 39  0  0  0  0  0  0  0  0999 V2000
    5.2655    0.3577   -1.3949 C   0  0  0  0  0  0  0  0  0  0  0  0
    5.7190   -0.4927   -0.2652 C   0  0  0  0  0  0  0  0  0  0  0  0
    7.0878   -0.5492   -0.0213 N   0  0  0  0  0  0  0  0  0  0  0  0
    7.3840   -1.3823    0.9598 N   0  0  0  0  0  0  0  0  0  0  0  0
    6.0374   -2.1284    1.6068 S   0  0  0  0  0  0  0  0  0  0  0  0
    4.9508   -1.2780    0.5854 C   0  0  0  0  0  0  0  0  0  0  0  0
    3.5273   -1.4983    0.7143 C   0  0  0  0  0  0  0  0  0  0  0  0
    3.0640   -2.5838    1.0483 O   0  0  0  0  0  0  0  0  0  0  0  0
    2.7641   -0.3663    0.4639 N   0  0  0  0  0  0  0  0  0  0  0  0
    1.3576   -0.2610    0.4440 C   0  0  0  0  0  0  0  0  0  0  0  0
    0.8141    1.0165    0.2738 C   0  0  0  0  0  0  0  0  0  0  0  0
   -0.5751    1.2209    0.2365 C   0  0  0  0  0  0  0  0  0  0  0  0
   -1.4542    0.1456    0.3749 C   0  0  0  0  0  0  0  0  0  0  0  0
   -2.8826    0.2759    0.3444 N   0  0  0  0  0  0  0  0  0  0  0  0
   -3.6165   -0.8644    0.1816 N   0  0  0  0  0  0  0  0  0  0  0  0
   -4.8979   -0.4851    0.0654 C   0  0  0  0  0  0  0  0  0  0  0  0
   -6.0218   -1.4622   -0.1719 C   0  0  0  0  0  0  0  0  0  0  0  0
   -7.2254   -0.8287   -0.2501 F   0  0  0  0  0  0  0  0  0  0  0  0
   -6.1342   -2.3774    0.8258 F   0  0  0  0  0  0  0  0  0  0  0  0
   -5.8747   -2.1495   -1.3347 F   0  0  0  0  0  0  0  0  0  0  0  0
   -5.0060    0.9097    0.2210 C   0  0  0  0  0  0  0  0  0  0  0  0
   -3.7208    1.3712    0.4436 C   0  0  0  0  0  0  0  0  0  0  0  0
   -3.3020    2.7375    0.7784 C   0  0  0  0  0  0  0  0  0  0  0  0
   -4.3619    3.4998    1.1562 F   0  0  0  0  0  0  0  0  0  0  0  0
   -2.7414    3.3705   -0.2810 F   0  0  0  0  0  0  0  0  0  0  0  0
   -2.4178    2.7852    1.8025 F   0  0  0  0  0  0  0  0  0  0  0  0
   -0.9009   -1.1395    0.5208 C   0  0  0  0  0  0  0  0  0  0  0  0
    0.4866   -1.3394    0.5590 C   0  0  0  0  0  0  0  0  0  0  0  0
    6.0768    0.5127   -2.1135 H   0  0  0  0  0  0  0  0  0  0  0  0
    4.4329   -0.1083   -1.9308 H   0  0  0  0  0  0  0  0  0  0  0  0
    4.9451    1.3379   -1.0290 H   0  0  0  0  0  0  0  0  0  0  0  0
    3.2660    0.5051    0.3630 H   0  0  0  0  0  0  0  0  0  0  0  0
    1.4611    1.8842    0.1622 H   0  0  0  0  0  0  0  0  0  0  0  0
   -0.8992    2.2378    0.0634 H   0  0  0  0  0  0  0  0  0  0  0  0
   -5.9122    1.5042    0.2144 H   0  0  0  0  0  0  0  0  0  0  0  0
   -1.5376   -2.0188    0.6201 H   0  0  0  0  0  0  0  0  0  0  0  0
    0.8418   -2.3590    0.6751 H   0  0  0  0  0  0  0  0  0  0  0  0
  1  2  1  0
  2  3  1  0
  3  4  2  0
  4  5  1  0
  5  6  1  0
  6  7  1  0
  7  8  2  0
  7  9  1  0
  9 10  1  0
 10 11  2  0
 11 12  1  0
 12 13  2  0
 13 14  1  0
 14 15  1  0
 15 16  2  0
 16 17  1  0
 17 18  1  0
 17 19  1  0
 17 20  1  0
 16 21  1  0
 21 22  2  0
 22 23  1  0
 23 24  1  0
 23 25  1  0
 23 26  1  0
 13 27  1  0
 27 28  2  0
  6  2  2  0
 28 10  1  0
 22 14  1  0
  1 29  1  0
  1 30  1  0
  1 31  1  0
  9 32  1  0
 11 33  1  0
 12 34  1  0
 21 35  1  0
 27 36  1  0
 28 37  1  0
M  END
$$$$
