
     RDKit          3D

 73 77  0  0  0  0  0  0  0  0999 V2000
    3.8921    3.8248   -0.7227 C   0  0  0  0  0  0  0  0  0  0  0  0
    3.3613    2.7253    0.0125 O   0  0  0  0  0  0  0  0  0  0  0  0
    4.1922    1.6397    0.1891 C   0  0  0  0  0  0  0  0  0  0  0  0
    5.5643    1.6322   -0.0737 C   0  0  0  0  0  0  0  0  0  0  0  0
    6.3252    0.4698    0.1362 C   0  0  0  0  0  0  0  0  0  0  0  0
    7.7876    0.5396   -0.1497 C   0  0  0  0  0  0  0  0  0  0  0  0
    8.5218   -0.6135   -0.0861 N   0  0  0  0  0  0  0  0  0  0  0  0
    8.3294    1.5979   -0.4496 O   0  0  0  0  0  0  0  0  0  0  0  0
    5.6979   -0.6821    0.6230 C   0  0  0  0  0  0  0  0  0  0  0  0
    4.3230   -0.6812    0.8814 C   0  0  0  0  0  0  0  0  0  0  0  0
    3.5659    0.4720    0.6718 C   0  0  0  0  0  0  0  0  0  0  0  0
    2.1806    0.5513    0.9295 N   0  0  0  0  0  0  0  0  0  0  0  0
    1.2970   -0.4859    1.1533 C   0  0  0  0  0  0  0  0  0  0  0  0
    1.5750   -1.6839    1.1501 O   0  0  0  0  0  0  0  0  0  0  0  0
   -0.1592   -0.0051    1.3654 C   0  0  2  0  0  0  0  0  0  0  0  0
   -1.0232   -1.1680    1.7084 N   0  0  0  0  0  0  0  0  0  0  0  0
   -1.9037   -1.4226    0.5595 C   0  0  1  0  0  0  0  0  0  0  0  0
   -3.1989   -2.1722    0.9384 C   0  0  0  0  0  0  0  0  0  0  0  0
   -3.0937   -3.6567    1.3977 C   0  0  0  0  0  0  0  0  0  0  0  0
   -4.5336   -4.2054    1.5164 C   0  0  0  0  0  0  0  0  0  0  0  0
   -2.4198   -3.7965    2.7738 C   0  0  0  0  0  0  0  0  0  0  0  0
   -2.3384   -4.5136    0.3681 C   0  0  0  0  0  0  0  0  0  0  0  0
   -2.1214   -0.0277   -0.0682 C   0  0  2  0  0  0  0  0  0  0  0  0
   -3.2408    0.7926    0.6367 C   0  0  0  0  0  0  0  0  0  0  0  0
   -3.3015    1.1512    1.8010 O   0  0  0  0  0  0  0  0  0  0  0  0
   -4.2023    1.0925   -0.3219 N   0  0  0  0  0  0  0  0  0  0  0  0
   -3.8557    0.5984   -1.5679 C   0  0  0  0  0  0  0  0  0  0  0  0
   -4.5661    0.7321   -2.7415 C   0  0  0  0  0  0  0  0  0  0  0  0
   -4.0132    0.1561   -3.8862 C   0  0  0  0  0  0  0  0  0  0  0  0
   -4.8432    0.2916   -5.3902 Cl  0  0  0  0  0  0  0  0  0  0  0  0
   -2.7921   -0.5377   -3.8341 C   0  0  0  0  0  0  0  0  0  0  0  0
   -2.0955   -0.6624   -2.6271 C   0  0  0  0  0  0  0  0  0  0  0  0
   -2.6388   -0.0798   -1.4931 C   0  0  0  0  0  0  0  0  0  0  0  0
   -0.7235    0.6057    0.0637 C   0  0  1  0  0  0  0  0  0  0  0  0
   -0.6354    2.1164   -0.0778 C   0  0  0  0  0  0  0  0  0  0  0  0
   -0.8789    2.9982    0.9865 C   0  0  0  0  0  0  0  0  0  0  0  0
   -0.7842    4.3834    0.8086 C   0  0  0  0  0  0  0  0  0  0  0  0
   -0.4480    4.9117   -0.4361 C   0  0  0  0  0  0  0  0  0  0  0  0
   -0.2105    4.0531   -1.5051 C   0  0  0  0  0  0  0  0  0  0  0  0
    0.2288    4.7072   -3.0383 Cl  0  0  0  0  0  0  0  0  0  0  0  0
   -0.3077    2.6724   -1.3255 C   0  0  0  0  0  0  0  0  0  0  0  0
   -0.0732    1.8538   -2.3623 F   0  0  0  0  0  0  0  0  0  0  0  0
    4.6846    4.3277   -0.1562 H   0  0  0  0  0  0  0  0  0  0  0  0
    3.0850    4.5459   -0.8728 H   0  0  0  0  0  0  0  0  0  0  0  0
    4.2410    3.5085   -1.7138 H   0  0  0  0  0  0  0  0  0  0  0  0
    6.0734    2.5208   -0.4352 H   0  0  0  0  0  0  0  0  0  0  0  0
    9.4921   -0.5401   -0.3649 H   0  0  0  0  0  0  0  0  0  0  0  0
    8.1227   -1.5376   -0.0324 H   0  0  0  0  0  0  0  0  0  0  0  0
    6.2498   -1.5918    0.8356 H   0  0  0  0  0  0  0  0  0  0  0  0
    3.8764   -1.5930    1.2669 H   0  0  0  0  0  0  0  0  0  0  0  0
    1.8080    1.4897    0.8107 H   0  0  0  0  0  0  0  0  0  0  0  0
   -0.1636    0.6748    2.2227 H   0  0  0  0  0  0  0  0  0  0  0  0
   -0.4113   -1.9776    1.8670 H   0  0  0  0  0  0  0  0  0  0  0  0
   -1.3449   -2.0353   -0.1602 H   0  0  0  0  0  0  0  0  0  0  0  0
   -3.8616   -2.1470    0.0609 H   0  0  0  0  0  0  0  0  0  0  0  0
   -3.7258   -1.6151    1.7245 H   0  0  0  0  0  0  0  0  0  0  0  0
   -4.5341   -5.2547    1.8335 H   0  0  0  0  0  0  0  0  0  0  0  0
   -5.1141   -3.6341    2.2516 H   0  0  0  0  0  0  0  0  0  0  0  0
   -5.0618   -4.1515    0.5563 H   0  0  0  0  0  0  0  0  0  0  0  0
   -2.7936   -3.0488    3.4803 H   0  0  0  0  0  0  0  0  0  0  0  0
   -2.6134   -4.7829    3.2091 H   0  0  0  0  0  0  0  0  0  0  0  0
   -1.3345   -3.6932    2.7089 H   0  0  0  0  0  0  0  0  0  0  0  0
   -2.7805   -4.4158   -0.6304 H   0  0  0  0  0  0  0  0  0  0  0  0
   -2.3707   -5.5742    0.6422 H   0  0  0  0  0  0  0  0  0  0  0  0
   -1.2830   -4.2335    0.2987 H   0  0  0  0  0  0  0  0  0  0  0  0
   -5.0315    1.6267   -0.1052 H   0  0  0  0  0  0  0  0  0  0  0  0
   -5.5080    1.2652   -2.7785 H   0  0  0  0  0  0  0  0  0  0  0  0
   -2.3768   -0.9800   -4.7388 H   0  0  0  0  0  0  0  0  0  0  0  0
   -1.1485   -1.1925   -2.5994 H   0  0  0  0  0  0  0  0  0  0  0  0
   -0.1042    0.1938   -0.7492 H   0  0  0  0  0  0  0  0  0  0  0  0
   -1.1585    2.6329    1.9727 H   0  0  0  0  0  0  0  0  0  0  0  0
   -0.9781    5.0492    1.6470 H   0  0  0  0  0  0  0  0  0  0  0  0
   -0.3741    5.9889   -0.5659 H   0  0  0  0  0  0  0  0  0  0  0  0
  1  2  1  0
  2  3  1  0
  3  4  2  0
  4  5  1  0
  5  6  1  0
  6  7  1  0
  6  8  2  0
  5  9  2  0
  9 10  1  0
 10 11  2  0
 11 12  1  0
 12 13  1  0
 13 14  2  0
 13 15  1  0
 15 16  1  0
 16 17  1  0
 17 18  1  0
 18 19  1  0
 19 20  1  0
 19 21  1  0
 19 22  1  0
 17 23  1  0
 23 24  1  1
 24 25  2  0
 24 26  1  0
 26 27  1  0
 27 28  2  0
 28 29  1  0
 29 30  1  0
 29 31  2  0
 31 32  1  0
 32 33  2  0
 23 34  1  0
 34 35  1  0
 35 36  2  0
 36 37  1  0
 37 38  2  0
 38 39  1  0
 39 40  1  0
 39 41  2  0
 41 42  1  0
 11  3  1  0
 34 15  1  0
 41 35  1  0
 33 23  1  0
 33 27  1  0
  1 43  1  0
  1 44  1  0
  1 45  1  0
  4 46  1  0
  7 47  1  0
  7 48  1  0
  9 49  1  0
 10 50  1  0
 12 51  1  0
 15 52  1  1
 16 53  1  0
 17 54  1  6
 18 55  1  0
 18 56  1  0
 20 57  1  0
 20 58  1  0
 20 59  1  0
 21 60  1  0
 21 61  1  0
 21 62  1  0
 22 63  1  0
 22 64  1  0
 22 65  1  0
 26 66  1  0
 28 67  1  0
 31 68  1  0
 32 69  1  0
 34 70  1  6
 36 71  1  0
 37 72  1  0
 38 73  1  0
M  END
$$$$
