
     RDKit          3D

 57 57  0  0  0  0  0  0  0  0999 V2000
   -7.1723   -1.5803    0.5080 C   0  0  0  0  0  0  0  0  0  0  0  0
   -7.2320   -0.0737    0.2918 C   0  0  0  0  0  0  0  0  0  0  0  0
   -5.8876    0.6464    0.4609 C   0  0  0  0  0  0  0  0  0  0  0  0
   -5.0273    0.7447   -0.8045 C   0  0  0  0  0  0  0  0  0  0  0  0
   -4.3338   -0.5285   -1.3108 C   0  0  0  0  0  0  0  0  0  0  0  0
   -3.3329   -1.2189   -0.3702 C   0  0  2  0  0  0  0  0  0  0  0  0
   -4.0116   -1.8332    0.7165 O   0  0  0  0  0  0  0  0  0  0  0  0
   -2.2918   -0.3012    0.2053 C   0  0  0  0  0  0  0  0  0  0  0  0
   -0.9755   -0.3894   -0.0495 C   0  0  0  0  0  0  0  0  0  0  0  0
    0.1154    0.5183    0.4832 C   0  0  1  0  0  0  0  0  0  0  0  0
   -0.2894    1.6092    1.4990 C   0  0  2  0  0  0  0  0  0  0  0  0
   -0.9396    2.6902    0.8440 O   0  0  0  0  0  0  0  0  0  0  0  0
    1.0289    2.0730    2.1043 C   0  0  0  0  0  0  0  0  0  0  0  0
    1.8286    0.8021    2.1008 C   0  0  0  0  0  0  0  0  0  0  0  0
    2.8550    0.6579    2.7556 O   0  0  0  0  0  0  0  0  0  0  0  0
    1.2014   -0.2753    1.2396 C   0  0  2  0  0  0  0  0  0  0  0  0
    2.2185   -1.0346    0.3809 C   0  0  0  0  0  0  0  0  0  0  0  0
    2.8612   -0.2325   -0.7207 C   0  0  0  0  0  0  0  0  0  0  0  0
    4.1316    0.1965   -0.7850 C   0  0  0  0  0  0  0  0  0  0  0  0
    5.2136    0.0153    0.2449 C   0  0  0  0  0  0  0  0  0  0  0  0
    6.2337   -1.0631   -0.1401 C   0  0  0  0  0  0  0  0  0  0  0  0
    7.0473   -0.7494   -1.3955 C   0  0  0  0  0  0  0  0  0  0  0  0
    7.9742    0.4183   -1.2002 C   0  0  0  0  0  0  0  0  0  0  0  0
    8.5143    0.7656   -0.1620 O   0  0  0  0  0  0  0  0  0  0  0  0
    8.2163    1.0752   -2.3518 O   0  0  0  0  0  0  0  0  0  0  0  0
   -6.6024   -2.0908   -0.2785 H   0  0  0  0  0  0  0  0  0  0  0  0
   -6.7201   -1.8228    1.4807 H   0  0  0  0  0  0  0  0  0  0  0  0
   -8.1892   -1.9950    0.4938 H   0  0  0  0  0  0  0  0  0  0  0  0
   -7.9267    0.3360    1.0395 H   0  0  0  0  0  0  0  0  0  0  0  0
   -7.6713    0.1464   -0.6908 H   0  0  0  0  0  0  0  0  0  0  0  0
   -5.3207    0.2333    1.3008 H   0  0  0  0  0  0  0  0  0  0  0  0
   -6.1229    1.6823    0.7493 H   0  0  0  0  0  0  0  0  0  0  0  0
   -5.6498    1.1369   -1.6202 H   0  0  0  0  0  0  0  0  0  0  0  0
   -4.2623    1.5137   -0.6347 H   0  0  0  0  0  0  0  0  0  0  0  0
   -3.7962   -0.2566   -2.2305 H   0  0  0  0  0  0  0  0  0  0  0  0
   -5.0995   -1.2499   -1.6154 H   0  0  0  0  0  0  0  0  0  0  0  0
   -2.8542   -2.0300   -0.9337 H   0  0  0  0  0  0  0  0  0  0  0  0
   -3.3335   -2.2369    1.2823 H   0  0  0  0  0  0  0  0  0  0  0  0
   -2.6715    0.4803    0.8596 H   0  0  0  0  0  0  0  0  0  0  0  0
   -0.6349   -1.1681   -0.7330 H   0  0  0  0  0  0  0  0  0  0  0  0
    0.5367    1.0307   -0.3919 H   0  0  0  0  0  0  0  0  0  0  0  0
   -0.9500    1.2086    2.2778 H   0  0  0  0  0  0  0  0  0  0  0  0
   -1.1788    3.3497    1.5195 H   0  0  0  0  0  0  0  0  0  0  0  0
    0.8904    2.4514    3.1202 H   0  0  0  0  0  0  0  0  0  0  0  0
    1.5274    2.8272    1.4885 H   0  0  0  0  0  0  0  0  0  0  0  0
    0.7266   -0.9822    1.9351 H   0  0  0  0  0  0  0  0  0  0  0  0
    2.9814   -1.4774    1.0313 H   0  0  0  0  0  0  0  0  0  0  0  0
    1.7136   -1.8870   -0.0919 H   0  0  0  0  0  0  0  0  0  0  0  0
    2.2215   -0.0127   -1.5762 H   0  0  0  0  0  0  0  0  0  0  0  0
    4.4257    0.7562   -1.6731 H   0  0  0  0  0  0  0  0  0  0  0  0
    4.7879   -0.2482    1.2174 H   0  0  0  0  0  0  0  0  0  0  0  0
    5.7144    0.9790    0.3947 H   0  0  0  0  0  0  0  0  0  0  0  0
    6.9148   -1.2127    0.7068 H   0  0  0  0  0  0  0  0  0  0  0  0
    5.7106   -2.0159   -0.2900 H   0  0  0  0  0  0  0  0  0  0  0  0
    7.6668   -1.6141   -1.6579 H   0  0  0  0  0  0  0  0  0  0  0  0
    6.3830   -0.5497   -2.2416 H   0  0  0  0  0  0  0  0  0  0  0  0
    8.8369    1.7859   -2.0860 H   0  0  0  0  0  0  0  0  0  0  0  0
  1  2  1  0
  2  3  1  0
  3  4  1  0
  4  5  1  0
  5  6  1  0
  6  7  1  0
  6  8  1  0
  8  9  2  0
  9 10  1  0
 10 11  1  0
 11 12  1  0
 11 13  1  0
 13 14  1  0
 14 15  2  0
 14 16  1  0
 16 17  1  0
 17 18  1  0
 18 19  2  0
 19 20  1  0
 20 21  1  0
 21 22  1  0
 22 23  1  0
 23 24  2  0
 23 25  1  0
 16 10  1  0
  1 26  1  0
  1 27  1  0
  1 28  1  0
  2 29  1  0
  2 30  1  0
  3 31  1  0
  3 32  1  0
  4 33  1  0
  4 34  1  0
  5 35  1  0
  5 36  1  0
  6 37  1  6
  7 38  1  0
  8 39  1  0
  9 40  1  0
 10 41  1  6
 11 42  1  1
 12 43  1  0
 13 44  1  0
 13 45  1  0
 16 46  1  1
 17 47  1  0
 17 48  1  0
 18 49  1  0
 19 50  1  0
 20 51  1  0
 20 52  1  0
 21 53  1  0
 21 54  1  0
 22 55  1  0
 22 56  1  0
 25 57  1  0
M  END
$$$$
