
     RDKit          3D

 46 49  0  0  0  0  0  0  0  0999 V2000
   -0.5650   -3.4647   -3.4181 C   0  0  0  0  0  0  0  0  0  0  0  0
   -1.1189   -2.1630   -3.5443 O   0  0  0  0  0  0  0  0  0  0  0  0
   -1.0193   -1.3206   -2.4675 C   0  0  0  0  0  0  0  0  0  0  0  0
   -0.4089   -1.6440   -1.2530 C   0  0  0  0  0  0  0  0  0  0  0  0
   -0.3512   -0.7078   -0.2035 C   0  0  0  0  0  0  0  0  0  0  0  0
    0.3138   -1.0896    1.1219 C   0  0  0  0  0  0  0  0  0  0  0  0
   -0.7032   -1.2411    2.2310 C   0  0  0  0  0  0  0  0  0  0  0  0
   -1.6429   -2.3068    2.1149 C   0  0  0  0  0  0  0  0  0  0  0  0
   -2.3788   -3.2002    2.0345 N   0  0  0  0  0  0  0  0  0  0  0  0
   -0.7105   -0.4258    3.3066 C   0  0  0  0  0  0  0  0  0  0  0  0
   -1.6101   -0.4868    4.3473 N   0  0  0  0  0  0  0  0  0  0  0  0
    0.2223    0.5900    3.4734 O   0  0  0  0  0  0  0  0  0  0  0  0
    1.3143    0.6587    2.6438 C   0  0  0  0  0  0  0  0  0  0  0  0
    2.3095    1.5723    3.0014 C   0  0  0  0  0  0  0  0  0  0  0  0
    3.4197    1.6553    2.1909 C   0  0  0  0  0  0  0  0  0  0  0  0
    3.5555    0.8750    1.0677 C   0  0  0  0  0  0  0  0  0  0  0  0
    2.5861   -0.0291    0.6888 C   0  0  0  0  0  0  0  0  0  0  0  0
    1.4351   -0.1386    1.4905 C   0  0  0  0  0  0  0  0  0  0  0  0
    4.7219    1.1098    0.4105 O   0  0  0  0  0  0  0  0  0  0  0  0
    5.3022    2.1358    1.2429 C   0  0  0  0  0  0  0  0  0  0  0  0
    4.4839    2.4798    2.3811 O   0  0  0  0  0  0  0  0  0  0  0  0
   -0.9235    0.5664   -0.3869 C   0  0  0  0  0  0  0  0  0  0  0  0
   -1.5305    0.9122   -1.5960 C   0  0  0  0  0  0  0  0  0  0  0  0
   -2.1023    2.1288   -1.8650 O   0  0  0  0  0  0  0  0  0  0  0  0
   -1.9287    3.1611   -0.9042 C   0  0  0  0  0  0  0  0  0  0  0  0
   -1.5874   -0.0446   -2.6228 C   0  0  0  0  0  0  0  0  0  0  0  0
   -2.1507    0.2987   -3.8334 O   0  0  0  0  0  0  0  0  0  0  0  0
   -3.5416   -0.0181   -3.8240 C   0  0  0  0  0  0  0  0  0  0  0  0
    0.5164   -3.4195   -3.2527 H   0  0  0  0  0  0  0  0  0  0  0  0
   -1.0642   -4.0311   -2.6250 H   0  0  0  0  0  0  0  0  0  0  0  0
   -0.7349   -3.9935   -4.3610 H   0  0  0  0  0  0  0  0  0  0  0  0
    0.0300   -2.6251   -1.0998 H   0  0  0  0  0  0  0  0  0  0  0  0
    0.7973   -2.0715    1.0032 H   0  0  0  0  0  0  0  0  0  0  0  0
   -1.2354   -0.0759    5.1993 H   0  0  0  0  0  0  0  0  0  0  0  0
   -2.0481   -1.3919    4.5020 H   0  0  0  0  0  0  0  0  0  0  0  0
    2.2160    2.1920    3.8857 H   0  0  0  0  0  0  0  0  0  0  0  0
    2.7146   -0.6225   -0.2109 H   0  0  0  0  0  0  0  0  0  0  0  0
    5.4552    3.0356    0.6359 H   0  0  0  0  0  0  0  0  0  0  0  0
    6.2756    1.7849    1.6044 H   0  0  0  0  0  0  0  0  0  0  0  0
   -0.8816    1.2777    0.4329 H   0  0  0  0  0  0  0  0  0  0  0  0
   -2.3744    4.0742   -1.3104 H   0  0  0  0  0  0  0  0  0  0  0  0
   -2.4522    2.9222    0.0272 H   0  0  0  0  0  0  0  0  0  0  0  0
   -0.8675    3.3616   -0.7225 H   0  0  0  0  0  0  0  0  0  0  0  0
   -3.9549    0.2635   -4.7971 H   0  0  0  0  0  0  0  0  0  0  0  0
   -4.0762    0.5488   -3.0540 H   0  0  0  0  0  0  0  0  0  0  0  0
   -3.7066   -1.0923   -3.6860 H   0  0  0  0  0  0  0  0  0  0  0  0
  1  2  1  0
  2  3  1  0
  3  4  2  0
  4  5  1  0
  5  6  1  0
  6  7  1  0
  7  8  1  0
  8  9  3  0
  7 10  2  0
 10 11  1  0
 10 12  1  0
 12 13  1  0
 13 14  2  0
 14 15  1  0
 15 16  2  0
 16 17  1  0
 17 18  2  0
 16 19  1  0
 19 20  1  0
 20 21  1  0
  5 22  2  0
 22 23  1  0
 23 24  1  0
 24 25  1  0
 23 26  2  0
 26 27  1  0
 27 28  1  0
 26  3  1  0
 18  6  1  0
 18 13  1  0
 21 15  1  0
  1 29  1  0
  1 30  1  0
  1 31  1  0
  4 32  1  0
  6 33  1  0
 11 34  1  0
 11 35  1  0
 14 36  1  0
 17 37  1  0
 20 38  1  0
 20 39  1  0
 22 40  1  0
 25 41  1  0
 25 42  1  0
 25 43  1  0
 28 44  1  0
 28 45  1  0
 28 46  1  0
M  END
$$$$
