
     RDKit          3D

 38 41  0  0  0  0  0  0  0  0999 V2000
   -5.4900    1.1499    2.3727 N   0  0  0  0  0  0  0  0  0  0  0  0
   -5.2068    0.2491    1.6969 C   0  0  0  0  0  0  0  0  0  0  0  0
   -4.8382   -0.8674    0.8241 C   0  0  0  0  0  0  0  0  0  0  0  0
   -5.8290   -0.9320   -0.3240 C   0  0  0  0  0  0  0  0  0  0  0  0
   -7.0060   -1.2516   -0.1460 O   0  0  0  0  0  0  0  0  0  0  0  0
   -5.4118   -0.6026   -1.5855 N   0  0  0  0  0  0  0  0  0  0  0  0
   -4.1029   -0.3194   -1.8276 C   0  0  0  0  0  0  0  0  0  0  0  0
   -3.6618    0.0866   -3.3958 S   0  0  0  0  0  0  0  0  0  0  0  0
   -2.0240    0.2546   -2.9134 C   0  0  0  0  0  0  0  0  0  0  0  0
   -1.8346   -0.0136   -1.5643 C   0  0  0  0  0  0  0  0  0  0  0  0
   -0.5026    0.0869   -0.9805 C   0  0  0  0  0  0  0  0  0  0  0  0
   -0.2605    0.9546    0.0876 C   0  0  0  0  0  0  0  0  0  0  0  0
    1.0236    1.0604    0.6348 C   0  0  0  0  0  0  0  0  0  0  0  0
    2.0956    0.3067    0.1284 C   0  0  0  0  0  0  0  0  0  0  0  0
    3.4508    0.4374    0.6980 C   0  0  0  0  0  0  0  0  0  0  0  0
    4.0630    1.7037    0.7600 C   0  0  0  0  0  0  0  0  0  0  0  0
    5.3442    1.8675    1.2943 C   0  0  0  0  0  0  0  0  0  0  0  0
    6.0421    0.7653    1.7791 C   0  0  0  0  0  0  0  0  0  0  0  0
    5.4615   -0.5005    1.7304 C   0  0  0  0  0  0  0  0  0  0  0  0
    4.1796   -0.6587    1.1949 C   0  0  0  0  0  0  0  0  0  0  0  0
    3.6219   -1.9103    1.1662 O   0  0  0  0  0  0  0  0  0  0  0  0
    1.8372   -0.5604   -0.9445 C   0  0  0  0  0  0  0  0  0  0  0  0
    0.5548   -0.6721   -1.4934 C   0  0  0  0  0  0  0  0  0  0  0  0
   -3.0779   -0.3485   -0.9243 C   0  0  0  0  0  0  0  0  0  0  0  0
   -3.3808   -0.7193    0.4491 C   0  0  0  0  0  0  0  0  0  0  0  0
   -2.4971   -0.8932    1.2867 O   0  0  0  0  0  0  0  0  0  0  0  0
   -4.9256   -1.8216    1.3592 H   0  0  0  0  0  0  0  0  0  0  0  0
   -6.0875   -0.6052   -2.3419 H   0  0  0  0  0  0  0  0  0  0  0  0
   -1.2804    0.5461   -3.6445 H   0  0  0  0  0  0  0  0  0  0  0  0
   -1.0627    1.5520    0.5134 H   0  0  0  0  0  0  0  0  0  0  0  0
    1.1794    1.7306    1.4779 H   0  0  0  0  0  0  0  0  0  0  0  0
    3.5403    2.5786    0.3776 H   0  0  0  0  0  0  0  0  0  0  0  0
    5.7945    2.8563    1.3281 H   0  0  0  0  0  0  0  0  0  0  0  0
    7.0387    0.8926    2.1940 H   0  0  0  0  0  0  0  0  0  0  0  0
    6.0194   -1.3506    2.1109 H   0  0  0  0  0  0  0  0  0  0  0  0
    4.1948   -2.5224    1.6543 H   0  0  0  0  0  0  0  0  0  0  0  0
    2.6432   -1.1642   -1.3572 H   0  0  0  0  0  0  0  0  0  0  0  0
    0.3956   -1.3648   -2.3161 H   0  0  0  0  0  0  0  0  0  0  0  0
  1  2  3  0
  2  3  1  0
  3  4  1  0
  4  5  2  0
  4  6  1  0
  6  7  1  0
  7  8  1  0
  8  9  1  0
  9 10  2  0
 10 11  1  0
 11 12  2  0
 12 13  1  0
 13 14  2  0
 14 15  1  0
 15 16  2  0
 16 17  1  0
 17 18  2  0
 18 19  1  0
 19 20  2  0
 20 21  1  0
 14 22  1  0
 22 23  2  0
 10 24  1  0
 24 25  1  0
 25 26  2  0
 25  3  1  0
 24  7  2  0
 23 11  1  0
 20 15  1  0
  3 27  1  0
  6 28  1  0
  9 29  1  0
 12 30  1  0
 13 31  1  0
 16 32  1  0
 17 33  1  0
 18 34  1  0
 19 35  1  0
 21 36  1  0
 22 37  1  0
 23 38  1  0
M  END
$$$$
