
     RDKit          3D

 26 26  0  0  0  0  0  0  0  0999 V2000
    0.6858    0.0000    0.0000 Cl  0  0  0  0  0  0  0  0  0  0  0  0
   -3.3830    0.2293    1.8721 N   0  0  0  0  0  0  0  0  0  0  0  0
   -2.0995   -0.3320    1.4240 C   0  0  0  0  0  0  0  0  0  0  0  0
   -1.9049    0.1788    0.0067 C   0  0  0  0  0  0  0  0  0  0  0  0
   -0.6338   -0.3104   -0.5907 C   0  0  0  0  0  0  0  0  0  0  0  0
   -0.4867   -1.3274   -1.5373 C   0  0  0  0  0  0  0  0  0  0  0  0
    0.8223   -1.4492   -1.8015 N   0  0  0  0  0  0  0  0  0  0  0  0
    1.5424   -0.5818   -1.0930 C   0  0  0  0  0  0  0  0  0  0  0  0
    2.9071   -0.3027   -0.9989 C   0  0  0  0  0  0  0  0  0  0  0  0
    3.3820    0.6804   -0.1571 C   0  0  0  0  0  0  0  0  0  0  0  0
    2.4867    1.3875    0.5941 C   0  0  0  0  0  0  0  0  0  0  0  0
    1.1190    1.1098    0.5013 C   0  0  0  0  0  0  0  0  0  0  0  0
    0.6420    0.1312   -0.3362 C   0  0  0  0  0  0  0  0  0  0  0  0
   -0.6858    0.0000    0.0000 H   0  0  0  0  0  0  0  0  0  0  0  0
   -4.1247   -0.3207    1.3926 H   0  0  0  0  0  0  0  0  0  0  0  0
   -3.3538    1.2317    1.5680 H   0  0  0  0  0  0  0  0  0  0  0  0
   -1.3419    0.0643    2.1129 H   0  0  0  0  0  0  0  0  0  0  0  0
   -2.1079   -1.4219    1.3942 H   0  0  0  0  0  0  0  0  0  0  0  0
   -2.7476   -0.1665   -0.6253 H   0  0  0  0  0  0  0  0  0  0  0  0
   -1.9397    1.2967   -0.0286 H   0  0  0  0  0  0  0  0  0  0  0  0
   -1.3431   -1.8687   -1.9320 H   0  0  0  0  0  0  0  0  0  0  0  0
    1.1942   -2.1578   -2.4919 H   0  0  0  0  0  0  0  0  0  0  0  0
    3.6325   -0.8632   -1.5972 H   0  0  0  0  0  0  0  0  0  0  0  0
    4.4438    0.9059   -0.0762 H   0  0  0  0  0  0  0  0  0  0  0  0
    2.8229    2.1744    1.2737 H   0  0  0  0  0  0  0  0  0  0  0  0
    0.4717    1.7121    1.1262 H   0  0  0  0  0  0  0  0  0  0  0  0
  2  3  1  0
  3  4  1  0
  4  5  1  0
  5  6  2  0
  6  7  1  0
  7  8  1  0
  8  9  2  0
  9 10  1  0
 10 11  2  0
 11 12  1  0
 12 13  2  0
 13  5  1  0
 13  8  1  0
  1 14  1  0
  2 15  1  0
  2 16  1  0
  3 17  1  0
  3 18  1  0
  4 19  1  0
  4 20  1  0
  6 21  1  0
  7 22  1  0
  9 23  1  0
 10 24  1  0
 11 25  1  0
 12 26  1  0
M  END
$$$$
