
     RDKit          3D

 64 67  0  0  0  0  0  0  0  0999 V2000
    9.2281    3.4530    1.8666 C   0  0  0  0  0  0  0  0  0  0  0  0
    8.9126    2.0953    2.1450 O   0  0  0  0  0  0  0  0  0  0  0  0
    7.6033    1.7192    2.0346 C   0  0  0  0  0  0  0  0  0  0  0  0
    7.3602    0.3758    2.3265 C   0  0  0  0  0  0  0  0  0  0  0  0
    6.0698   -0.1508    2.2600 C   0  0  0  0  0  0  0  0  0  0  0  0
    5.0036    0.6695    1.9037 C   0  0  0  0  0  0  0  0  0  0  0  0
    3.6702    0.2160    1.8021 N   0  0  0  0  0  0  0  0  0  0  0  0
    3.1393   -0.9800    2.2184 C   0  0  0  0  0  0  0  0  0  0  0  0
    3.7473   -1.8320    2.8597 O   0  0  0  0  0  0  0  0  0  0  0  0
    1.8086   -1.1643    1.8648 N   0  0  0  0  0  0  0  0  0  0  0  0
    1.0923   -2.3157    2.4237 C   0  0  0  0  0  0  0  0  0  0  0  0
   -0.4244   -2.0757    2.4863 C   0  0  0  0  0  0  0  0  0  0  0  0
   -0.9702   -1.7953    1.1448 N   0  0  0  0  0  0  0  0  0  0  0  0
   -2.3405   -1.5545    1.0814 C   0  0  0  0  0  0  0  0  0  0  0  0
   -2.9926   -1.4665   -0.1379 C   0  0  0  0  0  0  0  0  0  0  0  0
   -4.3583   -1.2294   -0.1408 C   0  0  0  0  0  0  0  0  0  0  0  0
   -5.1452   -1.0982   -1.3843 C   0  0  0  0  0  0  0  0  0  0  0  0
   -6.4588   -1.5888   -1.4535 C   0  0  0  0  0  0  0  0  0  0  0  0
   -7.2212   -1.4795   -2.6206 C   0  0  0  0  0  0  0  0  0  0  0  0
   -6.6887   -0.8660   -3.7553 C   0  0  0  0  0  0  0  0  0  0  0  0
   -7.3606   -0.7098   -4.9415 O   0  0  0  0  0  0  0  0  0  0  0  0
   -8.6682   -1.2553   -5.0319 C   0  0  0  0  0  0  0  0  0  0  0  0
   -5.3811   -0.3484   -3.7082 C   0  0  0  0  0  0  0  0  0  0  0  0
   -4.9254    0.2459   -4.8600 O   0  0  0  0  0  0  0  0  0  0  0  0
   -3.7220    0.9944   -4.7827 C   0  0  0  0  0  0  0  0  0  0  0  0
   -4.6246   -0.4726   -2.5333 C   0  0  0  0  0  0  0  0  0  0  0  0
   -5.0547   -1.1101    1.0057 N   0  0  0  0  0  0  0  0  0  0  0  0
   -4.3507   -1.2299    2.1348 C   0  0  0  0  0  0  0  0  0  0  0  0
   -3.0330   -1.4479    2.2272 N   0  0  0  0  0  0  0  0  0  0  0  0
   -0.0748   -1.1114    0.1963 C   0  0  0  0  0  0  0  0  0  0  0  0
    1.0600   -0.3451    0.9041 C   0  0  0  0  0  0  0  0  0  0  0  0
    5.2421    2.0279    1.6019 C   0  0  0  0  0  0  0  0  0  0  0  0
    4.1255    2.7532    1.2563 O   0  0  0  0  0  0  0  0  0  0  0  0
    4.3059    4.1387    0.9911 C   0  0  0  0  0  0  0  0  0  0  0  0
    6.5412    2.5453    1.6687 C   0  0  0  0  0  0  0  0  0  0  0  0
   10.2992    3.5921    2.0449 H   0  0  0  0  0  0  0  0  0  0  0  0
    9.0299    3.6920    0.8164 H   0  0  0  0  0  0  0  0  0  0  0  0
    8.6909    4.1335    2.5367 H   0  0  0  0  0  0  0  0  0  0  0  0
    8.1842   -0.2736    2.6093 H   0  0  0  0  0  0  0  0  0  0  0  0
    5.9305   -1.2033    2.4872 H   0  0  0  0  0  0  0  0  0  0  0  0
    3.0206    0.9536    1.5820 H   0  0  0  0  0  0  0  0  0  0  0  0
    1.4734   -2.5381    3.4275 H   0  0  0  0  0  0  0  0  0  0  0  0
    1.3168   -3.1765    1.7811 H   0  0  0  0  0  0  0  0  0  0  0  0
   -0.6167   -1.2284    3.1575 H   0  0  0  0  0  0  0  0  0  0  0  0
   -0.9040   -2.9676    2.9077 H   0  0  0  0  0  0  0  0  0  0  0  0
   -2.4557   -1.6207   -1.0642 H   0  0  0  0  0  0  0  0  0  0  0  0
   -6.9028   -2.0702   -0.5824 H   0  0  0  0  0  0  0  0  0  0  0  0
   -8.2282   -1.8815   -2.6037 H   0  0  0  0  0  0  0  0  0  0  0  0
   -9.3506   -0.7595   -4.3353 H   0  0  0  0  0  0  0  0  0  0  0  0
   -9.0361   -1.0716   -6.0453 H   0  0  0  0  0  0  0  0  0  0  0  0
   -8.6584   -2.3391   -4.8737 H   0  0  0  0  0  0  0  0  0  0  0  0
   -2.8639    0.3350   -4.6247 H   0  0  0  0  0  0  0  0  0  0  0  0
   -3.7781    1.7631   -4.0049 H   0  0  0  0  0  0  0  0  0  0  0  0
   -3.5798    1.5010   -5.7428 H   0  0  0  0  0  0  0  0  0  0  0  0
   -3.6190   -0.0690   -2.4920 H   0  0  0  0  0  0  0  0  0  0  0  0
   -4.8973   -1.1403    3.0666 H   0  0  0  0  0  0  0  0  0  0  0  0
   -0.6055   -0.3970   -0.4433 H   0  0  0  0  0  0  0  0  0  0  0  0
    0.3609   -1.8739   -0.4600 H   0  0  0  0  0  0  0  0  0  0  0  0
    0.6426    0.4978    1.4688 H   0  0  0  0  0  0  0  0  0  0  0  0
    1.7414    0.0605    0.1483 H   0  0  0  0  0  0  0  0  0  0  0  0
    3.3239    4.5657    0.7689 H   0  0  0  0  0  0  0  0  0  0  0  0
    4.7018    4.6619    1.8662 H   0  0  0  0  0  0  0  0  0  0  0  0
    4.9393    4.2927    0.1127 H   0  0  0  0  0  0  0  0  0  0  0  0
    6.7256    3.5854    1.4368 H   0  0  0  0  0  0  0  0  0  0  0  0
  1  2  1  0
  2  3  1  0
  3  4  2  0
  4  5  1  0
  5  6  2  0
  6  7  1  0
  7  8  1  0
  8  9  2  0
  8 10  1  0
 10 11  1  0
 11 12  1  0
 12 13  1  0
 13 14  1  0
 14 15  2  0
 15 16  1  0
 16 17  1  0
 17 18  2  0
 18 19  1  0
 19 20  2  0
 20 21  1  0
 21 22  1  0
 20 23  1  0
 23 24  1  0
 24 25  1  0
 23 26  2  0
 16 27  2  0
 27 28  1  0
 28 29  2  0
 13 30  1  0
 30 31  1  0
  6 32  1  0
 32 33  1  0
 33 34  1  0
 32 35  2  0
 35  3  1  0
 31 10  1  0
 29 14  1  0
 26 17  1  0
  1 36  1  0
  1 37  1  0
  1 38  1  0
  4 39  1  0
  5 40  1  0
  7 41  1  0
 11 42  1  0
 11 43  1  0
 12 44  1  0
 12 45  1  0
 15 46  1  0
 18 47  1  0
 19 48  1  0
 22 49  1  0
 22 50  1  0
 22 51  1  0
 25 52  1  0
 25 53  1  0
 25 54  1  0
 26 55  1  0
 28 56  1  0
 30 57  1  0
 30 58  1  0
 31 59  1  0
 31 60  1  0
 34 61  1  0
 34 62  1  0
 34 63  1  0
 35 64  1  0
M  END
$$$$
