
     RDKit          3D

 72 76  0  0  0  0  0  0  0  0999 V2000
    0.2411   -3.5950   -0.4792 C   0  0  0  0  0  0  0  0  0  0  0  0
   -1.1376   -3.2223   -1.0452 C   0  0  0  0  0  0  0  0  0  0  0  0
   -1.3821   -4.0656   -2.3151 C   0  0  0  0  0  0  0  0  0  0  0  0
   -2.2237   -3.5836   -0.0156 C   0  0  0  0  0  0  0  0  0  0  0  0
   -1.2288   -1.7192   -1.4507 C   0  0  0  0  0  0  0  0  0  0  0  0
   -1.0183   -0.6678   -0.3398 C   0  0  1  0  0  0  0  0  0  0  0  0
    0.3993   -0.5222    0.0594 N   0  0  0  0  0  0  0  0  0  0  0  0
    0.3674    0.7076    0.9132 C   0  0  1  0  0  0  0  0  0  0  0  0
    1.7985    1.2047    1.1712 C   0  0  0  0  0  0  0  0  0  0  0  0
    2.1058    2.3890    1.2430 O   0  0  0  0  0  0  0  0  0  0  0  0
    2.6885    0.1646    1.3746 N   0  0  0  0  0  0  0  0  0  0  0  0
    4.1240    0.3941    1.4679 C   0  0  1  0  0  0  0  0  0  0  0  0
    4.8256   -0.8044    2.1303 C   0  0  0  0  0  0  0  0  0  0  0  0
    5.5134   -1.7477    1.1405 C   0  0  0  0  0  0  0  0  0  0  0  0
    4.7554   -1.8459   -0.1782 C   0  0  2  0  0  0  0  0  0  0  0  0
    5.4104   -2.7513   -1.0560 O   0  0  0  0  0  0  0  0  0  0  0  0
    4.6388   -0.4875   -0.8725 C   0  0  0  0  0  0  0  0  0  0  0  0
    4.7222    0.7027    0.0902 C   0  0  0  0  0  0  0  0  0  0  0  0
   -0.5171    1.7071    0.1431 C   0  0  2  0  0  0  0  0  0  0  0  0
   -1.1788    2.8261    0.9344 C   0  0  0  0  0  0  0  0  0  0  0  0
   -1.3422    2.8113    2.3284 C   0  0  0  0  0  0  0  0  0  0  0  0
   -1.9961    3.8604    2.9843 C   0  0  0  0  0  0  0  0  0  0  0  0
   -2.4917    4.9456    2.2615 C   0  0  0  0  0  0  0  0  0  0  0  0
   -2.3304    4.9826    0.8796 C   0  0  0  0  0  0  0  0  0  0  0  0
   -2.9681    6.3072   -0.0123 Cl  0  0  0  0  0  0  0  0  0  0  0  0
   -1.6739    3.9389    0.2290 C   0  0  0  0  0  0  0  0  0  0  0  0
   -1.5275    3.9791   -1.1047 F   0  0  0  0  0  0  0  0  0  0  0  0
   -1.4742    0.7779   -0.6753 C   0  0  1  0  0  0  0  0  0  0  0  0
   -1.2968    1.1056   -2.1815 C   0  0  0  0  0  0  0  0  0  0  0  0
   -0.2585    1.0536   -2.8208 O   0  0  0  0  0  0  0  0  0  0  0  0
   -2.5403    1.4568   -2.6862 N   0  0  0  0  0  0  0  0  0  0  0  0
   -3.5231    1.3832   -1.7149 C   0  0  0  0  0  0  0  0  0  0  0  0
   -4.8630    1.6659   -1.8669 C   0  0  0  0  0  0  0  0  0  0  0  0
   -5.6724    1.5120   -0.7432 C   0  0  0  0  0  0  0  0  0  0  0  0
   -7.3551    1.8549   -0.8602 Cl  0  0  0  0  0  0  0  0  0  0  0  0
   -5.1408    1.0754    0.4834 C   0  0  0  0  0  0  0  0  0  0  0  0
   -3.7760    0.7944    0.6096 C   0  0  0  0  0  0  0  0  0  0  0  0
   -2.9688    0.9666   -0.5029 C   0  0  0  0  0  0  0  0  0  0  0  0
    0.3255   -4.6794   -0.3349 H   0  0  0  0  0  0  0  0  0  0  0  0
    0.4195   -3.1333    0.4967 H   0  0  0  0  0  0  0  0  0  0  0  0
    1.0446   -3.2881   -1.1589 H   0  0  0  0  0  0  0  0  0  0  0  0
   -2.3639   -3.8446   -2.7527 H   0  0  0  0  0  0  0  0  0  0  0  0
   -1.3550   -5.1402   -2.0913 H   0  0  0  0  0  0  0  0  0  0  0  0
   -0.6190   -3.8643   -3.0779 H   0  0  0  0  0  0  0  0  0  0  0  0
   -3.2186   -3.2946   -0.3764 H   0  0  0  0  0  0  0  0  0  0  0  0
   -2.2396   -4.6630    0.1791 H   0  0  0  0  0  0  0  0  0  0  0  0
   -2.0580   -3.0864    0.9456 H   0  0  0  0  0  0  0  0  0  0  0  0
   -0.5064   -1.5409   -2.2594 H   0  0  0  0  0  0  0  0  0  0  0  0
   -2.2221   -1.5578   -1.8933 H   0  0  0  0  0  0  0  0  0  0  0  0
   -1.5623   -1.0027    0.5512 H   0  0  0  0  0  0  0  0  0  0  0  0
    0.9335   -0.2950   -0.7900 H   0  0  0  0  0  0  0  0  0  0  0  0
   -0.0542    0.4216    1.8818 H   0  0  0  0  0  0  0  0  0  0  0  0
    2.3416   -0.7367    1.0543 H   0  0  0  0  0  0  0  0  0  0  0  0
    4.2578    1.2715    2.1137 H   0  0  0  0  0  0  0  0  0  0  0  0
    4.1123   -1.3723    2.7410 H   0  0  0  0  0  0  0  0  0  0  0  0
    5.5909   -0.4316    2.8239 H   0  0  0  0  0  0  0  0  0  0  0  0
    6.5370   -1.3998    0.9446 H   0  0  0  0  0  0  0  0  0  0  0  0
    5.6320   -2.7409    1.5924 H   0  0  0  0  0  0  0  0  0  0  0  0
    3.7539   -2.2476    0.0077 H   0  0  0  0  0  0  0  0  0  0  0  0
    5.4967   -3.6027   -0.5964 H   0  0  0  0  0  0  0  0  0  0  0  0
    3.6806   -0.4551   -1.4058 H   0  0  0  0  0  0  0  0  0  0  0  0
    5.4065   -0.3749   -1.6495 H   0  0  0  0  0  0  0  0  0  0  0  0
    5.7773    0.9753    0.2223 H   0  0  0  0  0  0  0  0  0  0  0  0
    4.2397    1.5742   -0.3675 H   0  0  0  0  0  0  0  0  0  0  0  0
    0.1543    2.2261   -0.5587 H   0  0  0  0  0  0  0  0  0  0  0  0
   -0.9798    1.9890    2.9414 H   0  0  0  0  0  0  0  0  0  0  0  0
   -2.1169    3.8308    4.0663 H   0  0  0  0  0  0  0  0  0  0  0  0
   -3.0009    5.7522    2.7792 H   0  0  0  0  0  0  0  0  0  0  0  0
   -2.6793    1.7347   -3.6463 H   0  0  0  0  0  0  0  0  0  0  0  0
   -5.2701    1.9971   -2.8143 H   0  0  0  0  0  0  0  0  0  0  0  0
   -5.7906    0.9601    1.3480 H   0  0  0  0  0  0  0  0  0  0  0  0
   -3.3718    0.4646    1.5620 H   0  0  0  0  0  0  0  0  0  0  0  0
  1  2  1  0
  2  3  1  0
  2  4  1  0
  2  5  1  0
  5  6  1  0
  6  7  1  0
  7  8  1  0
  8  9  1  0
  9 10  2  0
  9 11  1  0
 11 12  1  0
 12 13  1  0
 13 14  1  0
 14 15  1  0
 15 16  1  0
 15 17  1  0
 17 18  1  0
  8 19  1  0
 19 20  1  0
 20 21  2  0
 21 22  1  0
 22 23  2  0
 23 24  1  0
 24 25  1  0
 24 26  2  0
 26 27  1  0
 19 28  1  0
 28 29  1  6
 29 30  2  0
 29 31  1  0
 31 32  1  0
 32 33  2  0
 33 34  1  0
 34 35  1  0
 34 36  2  0
 36 37  1  0
 37 38  2  0
 28  6  1  0
 38 32  1  0
 18 12  1  0
 26 20  1  0
 38 28  1  0
  1 39  1  0
  1 40  1  0
  1 41  1  0
  3 42  1  0
  3 43  1  0
  3 44  1  0
  4 45  1  0
  4 46  1  0
  4 47  1  0
  5 48  1  0
  5 49  1  0
  6 50  1  1
  7 51  1  0
  8 52  1  1
 11 53  1  0
 12 54  1  1
 13 55  1  0
 13 56  1  0
 14 57  1  0
 14 58  1  0
 15 59  1  1
 16 60  1  0
 17 61  1  0
 17 62  1  0
 18 63  1  0
 18 64  1  0
 19 65  1  6
 21 66  1  0
 22 67  1  0
 23 68  1  0
 31 69  1  0
 33 70  1  0
 36 71  1  0
 37 72  1  0
M  END
$$$$
