
     RDKit          3D

 71 76  0  0  0  0  0  0  0  0999 V2000
    8.7875   -4.4782   -1.0109 C   0  0  0  0  0  0  0  0  0  0  0  0
    8.8902   -3.1334   -0.5651 O   0  0  0  0  0  0  0  0  0  0  0  0
    7.6755   -2.4860   -0.5126 C   0  0  0  0  0  0  0  0  0  0  0  0
    7.7415   -1.2110   -0.1144 N   0  0  0  0  0  0  0  0  0  0  0  0
    6.5684   -0.5499   -0.0494 C   0  0  0  0  0  0  0  0  0  0  0  0
    5.3355   -1.0974   -0.3594 C   0  0  0  0  0  0  0  0  0  0  0  0
    4.0946   -0.3170   -0.2558 C   0  0  0  0  0  0  0  0  0  0  0  0
    3.0181   -0.7621    0.5151 C   0  0  0  0  0  0  0  0  0  0  0  0
    1.8469   -0.0072    0.6063 C   0  0  0  0  0  0  0  0  0  0  0  0
    1.7105    1.2262   -0.0711 C   0  0  0  0  0  0  0  0  0  0  0  0
    0.5376    2.0367   -0.0258 C   0  0  0  0  0  0  0  0  0  0  0  0
   -0.5909    1.6289    0.7372 N   0  0  0  0  0  0  0  0  0  0  0  0
   -1.5112    0.6207    0.3503 C   0  0  0  0  0  0  0  0  0  0  0  0
   -2.3613    0.0705    1.3186 C   0  0  0  0  0  0  0  0  0  0  0  0
   -3.3188   -0.8854    0.9710 C   0  0  0  0  0  0  0  0  0  0  0  0
   -4.0594   -1.4112    2.0072 O   0  0  0  0  0  0  0  0  0  0  0  0
   -5.3857   -1.6809    1.7658 C   0  0  0  0  0  0  0  0  0  0  0  0
   -6.2708   -0.7011    1.3112 C   0  0  0  0  0  0  0  0  0  0  0  0
   -7.6100   -1.0321    1.1257 C   0  0  0  0  0  0  0  0  0  0  0  0
   -8.4630   -0.0976    0.6857 F   0  0  0  0  0  0  0  0  0  0  0  0
   -8.0800   -2.3110    1.3963 C   0  0  0  0  0  0  0  0  0  0  0  0
   -7.1889   -3.2660    1.8688 C   0  0  0  0  0  0  0  0  0  0  0  0
   -7.6310   -4.5003    2.1441 F   0  0  0  0  0  0  0  0  0  0  0  0
   -5.8457   -2.9628    2.0657 C   0  0  0  0  0  0  0  0  0  0  0  0
   -3.4363   -1.3118   -0.3514 C   0  0  0  0  0  0  0  0  0  0  0  0
   -2.6258   -0.7385   -1.3363 C   0  0  0  0  0  0  0  0  0  0  0  0
   -2.8003   -1.1949   -2.7356 C   0  0  0  0  0  0  0  0  0  0  0  0
   -3.6060   -2.0241   -3.1147 O   0  0  0  0  0  0  0  0  0  0  0  0
   -1.9517   -0.6012   -3.5911 O   0  0  0  0  0  0  0  0  0  0  0  0
   -1.6805    0.2354   -0.9860 C   0  0  0  0  0  0  0  0  0  0  0  0
    0.5285    3.2427   -0.7319 C   0  0  0  0  0  0  0  0  0  0  0  0
   -0.8403    4.3433   -0.7532 S   0  0  0  0  0  6  0  0  0  0  0  0
   -0.3791    5.6141   -1.2770 O   0  0  0  0  0  0  0  0  0  0  0  0
   -1.9683    3.6610   -1.3465 O   0  0  0  0  0  0  0  0  0  0  0  0
   -1.1224    4.6559    0.9012 N   0  0  0  0  0  0  0  0  0  0  0  0
   -2.5190    4.4795    1.3245 C   0  0  0  0  0  0  0  0  0  0  0  0
   -3.4924    5.6219    1.3252 C   0  0  0  0  0  0  0  0  0  0  0  0
   -2.9894    5.0656    2.6260 C   0  0  0  0  0  0  0  0  0  0  0  0
    1.6481    3.5953   -1.4579 C   0  0  0  0  0  0  0  0  0  0  0  0
    2.7699    2.8418   -1.5196 N   0  0  0  0  0  0  0  0  0  0  0  0
    2.7982    1.6838   -0.8448 C   0  0  0  0  0  0  0  0  0  0  0  0
    3.9531    0.9135   -0.9205 C   0  0  0  0  0  0  0  0  0  0  0  0
    5.4094   -2.4268   -0.7609 C   0  0  0  0  0  0  0  0  0  0  0  0
    4.2229   -3.0519   -1.1067 O   0  0  0  0  0  0  0  0  0  0  0  0
    4.3900   -4.3868   -1.5732 C   0  0  0  0  0  0  0  0  0  0  0  0
    6.5532   -3.1383   -0.8424 N   0  0  0  0  0  0  0  0  0  0  0  0
    8.1821   -5.0805   -0.3248 H   0  0  0  0  0  0  0  0  0  0  0  0
    9.7953   -4.9045   -1.0223 H   0  0  0  0  0  0  0  0  0  0  0  0
    8.3925   -4.5313   -2.0318 H   0  0  0  0  0  0  0  0  0  0  0  0
    6.6584    0.4809    0.2859 H   0  0  0  0  0  0  0  0  0  0  0  0
    3.0762   -1.7081    1.0518 H   0  0  0  0  0  0  0  0  0  0  0  0
    1.0335   -0.4062    1.2073 H   0  0  0  0  0  0  0  0  0  0  0  0
   -0.3308    1.5188    1.7170 H   0  0  0  0  0  0  0  0  0  0  0  0
   -2.2849    0.3822    2.3578 H   0  0  0  0  0  0  0  0  0  0  0  0
   -5.9377    0.3109    1.1041 H   0  0  0  0  0  0  0  0  0  0  0  0
   -9.1247   -2.5581    1.2476 H   0  0  0  0  0  0  0  0  0  0  0  0
   -5.1700   -3.7244    2.4415 H   0  0  0  0  0  0  0  0  0  0  0  0
   -4.1519   -2.0834   -0.6258 H   0  0  0  0  0  0  0  0  0  0  0  0
   -2.1843   -0.9800   -4.4643 H   0  0  0  0  0  0  0  0  0  0  0  0
   -1.0735    0.6916   -1.7636 H   0  0  0  0  0  0  0  0  0  0  0  0
   -0.7695    5.5961    1.0967 H   0  0  0  0  0  0  0  0  0  0  0  0
   -2.9074    3.4918    1.0805 H   0  0  0  0  0  0  0  0  0  0  0  0
   -3.1442    6.5997    1.0151 H   0  0  0  0  0  0  0  0  0  0  0  0
   -4.5168    5.4071    1.0400 H   0  0  0  0  0  0  0  0  0  0  0  0
   -3.6717    4.4753    3.2279 H   0  0  0  0  0  0  0  0  0  0  0  0
   -2.2995    5.6676    3.2048 H   0  0  0  0  0  0  0  0  0  0  0  0
    1.6971    4.5152   -2.0364 H   0  0  0  0  0  0  0  0  0  0  0  0
    4.7672    1.2903   -1.5395 H   0  0  0  0  0  0  0  0  0  0  0  0
    5.0064   -4.4166   -2.4786 H   0  0  0  0  0  0  0  0  0  0  0  0
    4.8067   -5.0307   -0.7908 H   0  0  0  0  0  0  0  0  0  0  0  0
    3.4001   -4.7756   -1.8319 H   0  0  0  0  0  0  0  0  0  0  0  0
  1  2  1  0
  2  3  1  0
  3  4  2  0
  4  5  1  0
  5  6  2  0
  6  7  1  0
  7  8  2  0
  8  9  1  0
  9 10  2  0
 10 11  1  0
 11 12  1  0
 12 13  1  0
 13 14  2  0
 14 15  1  0
 15 16  1  0
 16 17  1  0
 17 18  2  0
 18 19  1  0
 19 20  1  0
 19 21  2  0
 21 22  1  0
 22 23  1  0
 22 24  2  0
 15 25  2  0
 25 26  1  0
 26 27  1  0
 27 28  2  0
 27 29  1  0
 26 30  2  0
 11 31  2  0
 31 32  1  0
 32 33  2  0
 32 34  2  0
 32 35  1  0
 35 36  1  0
 36 37  1  0
 37 38  1  0
 31 39  1  0
 39 40  2  0
 40 41  1  0
 41 42  2  0
  6 43  1  0
 43 44  1  0
 44 45  1  0
 43 46  2  0
 46  3  1  0
 42  7  1  0
 41 10  1  0
 30 13  1  0
 38 36  1  0
 24 17  1  0
  1 47  1  0
  1 48  1  0
  1 49  1  0
  5 50  1  0
  8 51  1  0
  9 52  1  0
 12 53  1  0
 14 54  1  0
 18 55  1  0
 21 56  1  0
 24 57  1  0
 25 58  1  0
 29 59  1  0
 30 60  1  0
 35 61  1  0
 36 62  1  0
 37 63  1  0
 37 64  1  0
 38 65  1  0
 38 66  1  0
 39 67  1  0
 42 68  1  0
 45 69  1  0
 45 70  1  0
 45 71  1  0
M  END
$$$$
