
     RDKit          3D

 41 42  0  0  0  0  0  0  0  0999 V2000
   -4.9806   -1.5144   -1.0201 C   0  0  0  0  0  0  0  0  0  0  0  0
   -3.9880   -0.4191   -0.7862 C   0  0  0  0  0  0  0  0  0  0  0  0
   -3.1132   -0.0207   -1.8071 C   0  0  0  0  0  0  0  0  0  0  0  0
   -2.1981    1.0099   -1.5929 C   0  0  0  0  0  0  0  0  0  0  0  0
   -2.1610    1.6429   -0.3481 C   0  0  0  0  0  0  0  0  0  0  0  0
   -0.9798    2.9286   -0.0379 S   0  0  0  0  0  6  0  0  0  0  0  0
   -1.6453    3.9786    0.6947 O   0  0  0  0  0  0  0  0  0  0  0  0
   -0.2549    3.1831   -1.2633 O   0  0  0  0  0  0  0  0  0  0  0  0
    0.0948    2.2033    1.0249 N   0  0  0  0  0  0  0  0  0  0  0  0
    0.8004    0.9625    0.6244 C   0  0  1  0  0  0  0  0  0  0  0  0
    2.2920    1.1497    0.9320 C   0  0  0  0  0  0  0  0  0  0  0  0
    3.1612    0.0659    0.3426 C   0  0  0  0  0  0  0  0  0  0  0  0
    3.3537   -0.0069   -1.0433 C   0  0  0  0  0  0  0  0  0  0  0  0
    4.1335   -1.0225   -1.5965 C   0  0  0  0  0  0  0  0  0  0  0  0
    4.7332   -1.9724   -0.7684 C   0  0  0  0  0  0  0  0  0  0  0  0
    4.5583   -1.9035    0.6113 C   0  0  0  0  0  0  0  0  0  0  0  0
    3.7809   -0.8870    1.1686 C   0  0  0  0  0  0  0  0  0  0  0  0
    0.2064   -0.1729    1.4604 C   0  0  0  0  0  0  0  0  0  0  0  0
   -0.3249    0.0676    2.5507 O   0  0  0  0  0  0  0  0  0  0  0  0
    0.3394   -1.5771    0.9083 C   0  0  0  0  0  0  0  0  0  0  0  0
   -1.2226   -2.4054    0.9757 Cl  0  0  0  0  0  0  0  0  0  0  0  0
   -3.0486    1.2781    0.6667 C   0  0  0  0  0  0  0  0  0  0  0  0
   -3.9625    0.2487    0.4418 C   0  0  0  0  0  0  0  0  0  0  0  0
   -5.9171   -1.0950   -1.4055 H   0  0  0  0  0  0  0  0  0  0  0  0
   -4.5901   -2.2390   -1.7432 H   0  0  0  0  0  0  0  0  0  0  0  0
   -5.1906   -2.0613   -0.0919 H   0  0  0  0  0  0  0  0  0  0  0  0
   -3.1418   -0.5152   -2.7759 H   0  0  0  0  0  0  0  0  0  0  0  0
   -1.5283    1.3127   -2.3960 H   0  0  0  0  0  0  0  0  0  0  0  0
   -0.2132    2.2422    2.0023 H   0  0  0  0  0  0  0  0  0  0  0  0
    0.6357    0.7542   -0.4381 H   0  0  0  0  0  0  0  0  0  0  0  0
    2.6374    2.1115    0.5313 H   0  0  0  0  0  0  0  0  0  0  0  0
    2.4529    1.2094    2.0159 H   0  0  0  0  0  0  0  0  0  0  0  0
    2.9058    0.7347   -1.7047 H   0  0  0  0  0  0  0  0  0  0  0  0
    4.2812   -1.0701   -2.6718 H   0  0  0  0  0  0  0  0  0  0  0  0
    5.3461   -2.7622   -1.1997 H   0  0  0  0  0  0  0  0  0  0  0  0
    5.0388   -2.6413    1.2540 H   0  0  0  0  0  0  0  0  0  0  0  0
    3.6666   -0.8440    2.2516 H   0  0  0  0  0  0  0  0  0  0  0  0
    1.0649   -2.1373    1.5037 H   0  0  0  0  0  0  0  0  0  0  0  0
    0.6553   -1.5577   -0.1385 H   0  0  0  0  0  0  0  0  0  0  0  0
   -3.0333    1.7835    1.6294 H   0  0  0  0  0  0  0  0  0  0  0  0
   -4.6450   -0.0422    1.2389 H   0  0  0  0  0  0  0  0  0  0  0  0
  1  2  1  0
  2  3  2  0
  3  4  1  0
  4  5  2  0
  5  6  1  0
  6  7  2  0
  6  8  2  0
  6  9  1  0
  9 10  1  0
 10 11  1  0
 11 12  1  0
 12 13  2  0
 13 14  1  0
 14 15  2  0
 15 16  1  0
 16 17  2  0
 10 18  1  0
 18 19  2  0
 18 20  1  0
 20 21  1  0
  5 22  1  0
 22 23  2  0
 23  2  1  0
 17 12  1  0
  1 24  1  0
  1 25  1  0
  1 26  1  0
  3 27  1  0
  4 28  1  0
  9 29  1  0
 10 30  1  6
 11 31  1  0
 11 32  1  0
 13 33  1  0
 14 34  1  0
 15 35  1  0
 16 36  1  0
 17 37  1  0
 20 38  1  0
 20 39  1  0
 22 40  1  0
 23 41  1  0
M  END
$$$$
