
     RDKit          3D

 56 59  0  0  0  0  0  0  0  0999 V2000
   -5.3916    1.4026   -1.8700 C   0  0  0  0  0  0  0  0  0  0  0  0
   -5.3666    0.6276   -0.6046 C   0  0  0  0  0  0  0  0  0  0  0  0
   -6.3549   -0.2260   -0.3219 N   0  0  0  0  0  0  0  0  0  0  0  0
   -6.0297   -0.7245    0.8814 N   0  0  0  0  0  0  0  0  0  0  0  0
   -6.9119   -1.6850    1.5026 C   0  0  0  0  0  0  0  0  0  0  0  0
   -4.8413   -0.2454    1.3695 C   0  0  0  0  0  0  0  0  0  0  0  0
   -4.2688   -0.6747    2.6702 C   0  0  0  0  0  0  0  0  0  0  0  0
   -4.3827    0.6557    0.4222 C   0  0  0  0  0  0  0  0  0  0  0  0
   -3.1321    1.4736    0.4556 C   0  0  0  0  0  0  0  0  0  0  0  0
   -1.9402    0.7099   -0.1186 C   0  0  0  0  0  0  0  0  0  0  0  0
   -0.6742    1.5448   -0.0931 C   0  0  0  0  0  0  0  0  0  0  0  0
   -0.6800    2.7201    0.2734 O   0  0  0  0  0  0  0  0  0  0  0  0
    0.4955    0.9185   -0.5175 N   0  0  0  0  0  0  0  0  0  0  0  0
    0.5814   -0.5798   -0.8523 C   0  0  0  0  0  0  0  0  0  0  0  0
    1.8324   -1.0416   -1.7215 C   0  0  1  0  0  0  0  0  0  0  0  0
    2.4881    0.2279   -2.1766 C   0  0  0  0  0  0  0  0  0  0  0  0
    2.8537    0.7871   -0.7906 C   0  0  2  0  0  0  0  0  0  0  0  0
    1.7701    1.7338   -0.3946 C   0  0  0  0  0  0  0  0  0  0  0  0
    4.2766    0.3968   -0.5265 C   0  0  1  0  0  0  0  0  0  0  0  0
    4.8145    0.7929    0.8444 C   0  0  0  0  0  0  0  0  0  0  0  0
    6.1769    0.1463    1.1212 C   0  0  0  0  0  0  0  0  0  0  0  0
    6.5544   -0.9707    0.1482 C   0  0  0  0  0  0  0  0  0  0  0  0
    5.3699   -1.8335   -0.2355 C   0  0  0  0  0  0  0  0  0  0  0  0
    5.4170   -3.0596   -0.2146 O   0  0  0  0  0  0  0  0  0  0  0  0
    4.2553   -1.1137   -0.6426 N   0  0  0  0  0  0  0  0  0  0  0  0
    2.9691   -1.8634   -0.9710 C   0  0  0  0  0  0  0  0  0  0  0  0
   -4.4615    1.2556   -2.4278 H   0  0  0  0  0  0  0  0  0  0  0  0
   -6.2222    1.0963   -2.5144 H   0  0  0  0  0  0  0  0  0  0  0  0
   -5.5021    2.4710   -1.6586 H   0  0  0  0  0  0  0  0  0  0  0  0
   -7.9029   -1.6150    1.0463 H   0  0  0  0  0  0  0  0  0  0  0  0
   -6.4933   -2.6818    1.3452 H   0  0  0  0  0  0  0  0  0  0  0  0
   -6.9877   -1.4613    2.5691 H   0  0  0  0  0  0  0  0  0  0  0  0
   -4.2396   -1.7666    2.7423 H   0  0  0  0  0  0  0  0  0  0  0  0
   -3.2450   -0.3088    2.7951 H   0  0  0  0  0  0  0  0  0  0  0  0
   -4.8687   -0.2859    3.4991 H   0  0  0  0  0  0  0  0  0  0  0  0
   -3.2879    2.4032   -0.1063 H   0  0  0  0  0  0  0  0  0  0  0  0
   -2.9207    1.7793    1.4881 H   0  0  0  0  0  0  0  0  0  0  0  0
   -2.1501    0.4316   -1.1578 H   0  0  0  0  0  0  0  0  0  0  0  0
   -1.7751   -0.2041    0.4629 H   0  0  0  0  0  0  0  0  0  0  0  0
    0.5427   -1.1245    0.0979 H   0  0  0  0  0  0  0  0  0  0  0  0
   -0.3244   -0.8380   -1.4101 H   0  0  0  0  0  0  0  0  0  0  0  0
    1.4661   -1.6460   -2.5589 H   0  0  0  0  0  0  0  0  0  0  0  0
    1.8098    0.8707   -2.7505 H   0  0  0  0  0  0  0  0  0  0  0  0
    3.3521    0.0419   -2.8258 H   0  0  0  0  0  0  0  0  0  0  0  0
    2.5311    0.1259    0.0372 H   0  0  0  0  0  0  0  0  0  0  0  0
    1.6935    2.6072   -1.0504 H   0  0  0  0  0  0  0  0  0  0  0  0
    1.8634    2.0811    0.6410 H   0  0  0  0  0  0  0  0  0  0  0  0
    4.9475    0.7802   -1.3054 H   0  0  0  0  0  0  0  0  0  0  0  0
    4.8897    1.8833    0.9273 H   0  0  0  0  0  0  0  0  0  0  0  0
    4.1184    0.4701    1.6299 H   0  0  0  0  0  0  0  0  0  0  0  0
    6.9599    0.9137    1.0974 H   0  0  0  0  0  0  0  0  0  0  0  0
    6.1732   -0.2484    2.1449 H   0  0  0  0  0  0  0  0  0  0  0  0
    7.3269   -1.6036    0.5984 H   0  0  0  0  0  0  0  0  0  0  0  0
    6.9762   -0.5519   -0.7730 H   0  0  0  0  0  0  0  0  0  0  0  0
    3.2611   -2.7116   -1.6021 H   0  0  0  0  0  0  0  0  0  0  0  0
    2.5889   -2.2832   -0.0326 H   0  0  0  0  0  0  0  0  0  0  0  0
  1  2  1  0
  2  3  2  0
  3  4  1  0
  4  5  1  0
  4  6  1  0
  6  7  1  0
  6  8  2  0
  8  9  1  0
  9 10  1  0
 10 11  1  0
 11 12  2  0
 11 13  1  0
 13 14  1  0
 14 15  1  0
 15 16  1  0
 16 17  1  0
 17 18  1  0
 17 19  1  0
 19 20  1  0
 20 21  1  0
 21 22  1  0
 22 23  1  0
 23 24  2  0
 23 25  1  0
 25 26  1  0
  8  2  1  0
 18 13  1  0
 25 19  1  0
 26 15  1  0
  1 27  1  0
  1 28  1  0
  1 29  1  0
  5 30  1  0
  5 31  1  0
  5 32  1  0
  7 33  1  0
  7 34  1  0
  7 35  1  0
  9 36  1  0
  9 37  1  0
 10 38  1  0
 10 39  1  0
 14 40  1  0
 14 41  1  0
 15 42  1  6
 16 43  1  0
 16 44  1  0
 17 45  1  1
 18 46  1  0
 18 47  1  0
 19 48  1  6
 20 49  1  0
 20 50  1  0
 21 51  1  0
 21 52  1  0
 22 53  1  0
 22 54  1  0
 26 55  1  0
 26 56  1  0
M  END
$$$$
