
     RDKit          3D

 44 47  0  0  0  0  0  0  0  0999 V2000
   -0.8876    4.6533    0.2193 C   0  0  0  0  0  0  0  0  0  0  0  0
   -0.7142    3.5112   -0.7690 C   0  0  0  0  0  0  0  0  0  0  0  0
   -0.5665    2.1696   -0.0535 C   0  0  0  0  0  0  0  0  0  0  0  0
   -0.3919    1.0276   -1.0525 C   0  0  0  0  0  0  0  0  0  0  0  0
   -0.2358   -0.2585   -0.3880 N   0  0  0  0  0  0  0  0  0  0  0  0
    0.9491   -0.8289    0.0595 C   0  0  0  0  0  0  0  0  0  0  0  0
    2.1550   -0.1421   -0.0567 N   0  0  0  0  0  0  0  0  0  0  0  0
    3.3959   -0.7673   -0.1330 C   0  0  0  0  0  0  0  0  0  0  0  0
    3.5262   -1.9801   -0.2626 O   0  0  0  0  0  0  0  0  0  0  0  0
    4.5184    0.1689   -0.1329 C   0  0  0  0  0  0  0  0  0  0  0  0
    4.5904    1.4726    0.3312 C   0  0  0  0  0  0  0  0  0  0  0  0
    5.8801    2.0522    0.1412 C   0  0  0  0  0  0  0  0  0  0  0  0
    6.7562    1.1738   -0.4532 C   0  0  0  0  0  0  0  0  0  0  0  0
    6.0298   -0.3392   -0.7709 S   0  0  0  0  0  0  0  0  0  0  0  0
    0.6110   -2.0644    0.6127 C   0  0  0  0  0  0  0  0  0  0  0  0
    1.4437   -2.9778    1.3332 C   0  0  0  0  0  0  0  0  0  0  0  0
    2.0753   -3.7062    1.9817 N   0  0  0  0  0  0  0  0  0  0  0  0
   -0.7822   -2.2503    0.4479 C   0  0  0  0  0  0  0  0  0  0  0  0
   -1.5967   -3.2729    0.8119 N   0  0  0  0  0  0  0  0  0  0  0  0
   -2.8920   -3.0939    0.5063 C   0  0  0  0  0  0  0  0  0  0  0  0
   -3.7913   -4.0995    0.8364 C   0  0  0  0  0  0  0  0  0  0  0  0
   -5.1527   -3.9853    0.5518 C   0  0  0  0  0  0  0  0  0  0  0  0
   -5.6262   -2.8419   -0.0758 C   0  0  0  0  0  0  0  0  0  0  0  0
   -4.7341   -1.8228   -0.4129 C   0  0  0  0  0  0  0  0  0  0  0  0
   -3.3763   -1.9223   -0.1362 C   0  0  0  0  0  0  0  0  0  0  0  0
   -2.5756   -0.9002   -0.4878 N   0  0  0  0  0  0  0  0  0  0  0  0
   -1.2831   -1.1179   -0.1725 C   0  0  0  0  0  0  0  0  0  0  0  0
   -1.7824    4.5085    0.8331 H   0  0  0  0  0  0  0  0  0  0  0  0
   -0.0224    4.7304    0.8855 H   0  0  0  0  0  0  0  0  0  0  0  0
   -0.9915    5.6035   -0.3139 H   0  0  0  0  0  0  0  0  0  0  0  0
   -1.5802    3.4818   -1.4405 H   0  0  0  0  0  0  0  0  0  0  0  0
    0.1704    3.7023   -1.3876 H   0  0  0  0  0  0  0  0  0  0  0  0
   -1.4500    1.9838    0.5703 H   0  0  0  0  0  0  0  0  0  0  0  0
    0.2936    2.2077    0.6264 H   0  0  0  0  0  0  0  0  0  0  0  0
   -1.2566    0.9627   -1.7231 H   0  0  0  0  0  0  0  0  0  0  0  0
    0.4848    1.1852   -1.6904 H   0  0  0  0  0  0  0  0  0  0  0  0
    2.1372    0.8354   -0.3130 H   0  0  0  0  0  0  0  0  0  0  0  0
    3.7701    1.9936    0.8093 H   0  0  0  0  0  0  0  0  0  0  0  0
    6.1552    3.0578    0.4362 H   0  0  0  0  0  0  0  0  0  0  0  0
    7.7940    1.3410   -0.7083 H   0  0  0  0  0  0  0  0  0  0  0  0
   -3.4209   -4.9966    1.3283 H   0  0  0  0  0  0  0  0  0  0  0  0
   -5.8343   -4.7884    0.8208 H   0  0  0  0  0  0  0  0  0  0  0  0
   -6.6841   -2.7387   -0.3042 H   0  0  0  0  0  0  0  0  0  0  0  0
   -5.1079   -0.9277   -0.9046 H   0  0  0  0  0  0  0  0  0  0  0  0
  1  2  1  0
  2  3  1  0
  3  4  1  0
  4  5  1  0
  5  6  1  0
  6  7  1  0
  7  8  1  0
  8  9  2  0
  8 10  1  0
 10 11  2  0
 11 12  1  0
 12 13  2  0
 13 14  1  0
  6 15  2  0
 15 16  1  0
 16 17  3  0
 15 18  1  0
 18 19  2  0
 19 20  1  0
 20 21  2  0
 21 22  1  0
 22 23  2  0
 23 24  1  0
 24 25  2  0
 25 26  1  0
 26 27  2  0
 27  5  1  0
 14 10  1  0
 27 18  1  0
 25 20  1  0
  1 28  1  0
  1 29  1  0
  1 30  1  0
  2 31  1  0
  2 32  1  0
  3 33  1  0
  3 34  1  0
  4 35  1  0
  4 36  1  0
  7 37  1  0
 11 38  1  0
 12 39  1  0
 13 40  1  0
 21 41  1  0
 22 42  1  0
 23 43  1  0
 24 44  1  0
M  END
$$$$
