
     RDKit          3D

 49 52  0  0  0  0  0  0  0  0999 V2000
    2.5510    1.3602   -0.9098 O   0  0  0  0  0  0  0  0  0  0  0  0
    2.3885    0.1768   -0.6036 C   0  0  0  0  0  0  0  0  0  0  0  0
    3.5612   -0.8062   -0.5961 C   0  0  0  0  0  0  0  0  0  0  0  0
    4.8152   -0.2839   -1.0156 O   0  0  0  0  0  0  0  0  0  0  0  0
    5.6116    0.2999   -0.0700 C   0  0  0  0  0  0  0  0  0  0  0  0
    5.2012    0.7539    1.1839 C   0  0  0  0  0  0  0  0  0  0  0  0
    6.1256    1.3379    2.0562 C   0  0  0  0  0  0  0  0  0  0  0  0
    7.4597    1.4769    1.6771 C   0  0  0  0  0  0  0  0  0  0  0  0
    7.8712    1.0390    0.4211 C   0  0  0  0  0  0  0  0  0  0  0  0
    6.9477    0.4572   -0.4490 C   0  0  0  0  0  0  0  0  0  0  0  0
    1.0534   -0.3090   -0.2228 C   0  0  0  0  0  0  0  0  0  0  0  0
   -0.0534    0.5246   -0.2130 C   0  0  0  0  0  0  0  0  0  0  0  0
   -1.1512   -0.1917    0.1722 N   0  0  0  0  0  0  0  0  0  0  0  0
   -2.4765    0.3858    0.3628 C   0  0  0  0  0  0  0  0  0  0  0  0
   -3.4193    0.1519   -0.8054 C   0  0  0  0  0  0  0  0  0  0  0  0
   -3.1594   -0.5999   -1.7439 O   0  0  0  0  0  0  0  0  0  0  0  0
   -4.6227    0.8329   -0.7491 N   0  0  0  0  0  0  0  0  0  0  0  0
   -5.6052    0.7150   -1.8137 C   0  0  0  0  0  0  0  0  0  0  0  0
   -6.6036    1.8283   -1.5315 C   0  0  0  0  0  0  0  0  0  0  0  0
   -6.5548    1.9530   -0.0136 C   0  0  0  0  0  0  0  0  0  0  0  0
   -5.0818    1.7310    0.2991 C   0  0  0  0  0  0  0  0  0  0  0  0
   -0.7925   -1.4960    0.4367 C   0  0  0  0  0  0  0  0  0  0  0  0
   -1.5736   -2.5867    0.8572 C   0  0  0  0  0  0  0  0  0  0  0  0
   -0.9486   -3.8193    1.0447 C   0  0  0  0  0  0  0  0  0  0  0  0
    0.4122   -3.9634    0.8167 C   0  0  0  0  0  0  0  0  0  0  0  0
    1.1827   -2.8739    0.3919 C   0  0  0  0  0  0  0  0  0  0  0  0
    0.5855   -1.6060    0.1933 C   0  0  0  0  0  0  0  0  0  0  0  0
    3.6500   -1.2796    0.3880 H   0  0  0  0  0  0  0  0  0  0  0  0
    3.3159   -1.5921   -1.3194 H   0  0  0  0  0  0  0  0  0  0  0  0
    4.1683    0.6927    1.5078 H   0  0  0  0  0  0  0  0  0  0  0  0
    5.7993    1.6951    3.0296 H   0  0  0  0  0  0  0  0  0  0  0  0
    8.1742    1.9353    2.3554 H   0  0  0  0  0  0  0  0  0  0  0  0
    8.9073    1.1536    0.1147 H   0  0  0  0  0  0  0  0  0  0  0  0
    7.2712    0.1222   -1.4313 H   0  0  0  0  0  0  0  0  0  0  0  0
   -0.1267    1.5765   -0.4636 H   0  0  0  0  0  0  0  0  0  0  0  0
   -2.3403    1.4615    0.5188 H   0  0  0  0  0  0  0  0  0  0  0  0
   -2.8998   -0.0488    1.2740 H   0  0  0  0  0  0  0  0  0  0  0  0
   -6.0723   -0.2727   -1.7309 H   0  0  0  0  0  0  0  0  0  0  0  0
   -5.1342    0.8057   -2.7970 H   0  0  0  0  0  0  0  0  0  0  0  0
   -6.2622    2.7641   -1.9902 H   0  0  0  0  0  0  0  0  0  0  0  0
   -7.6040    1.6044   -1.9116 H   0  0  0  0  0  0  0  0  0  0  0  0
   -6.9227    2.9162    0.3498 H   0  0  0  0  0  0  0  0  0  0  0  0
   -7.1591    1.1592    0.4419 H   0  0  0  0  0  0  0  0  0  0  0  0
   -4.5114    2.6625    0.2172 H   0  0  0  0  0  0  0  0  0  0  0  0
   -4.9215    1.2965    1.2895 H   0  0  0  0  0  0  0  0  0  0  0  0
   -2.6428   -2.4901    1.0176 H   0  0  0  0  0  0  0  0  0  0  0  0
   -1.5374   -4.6766    1.3624 H   0  0  0  0  0  0  0  0  0  0  0  0
    0.8841   -4.9325    0.9604 H   0  0  0  0  0  0  0  0  0  0  0  0
    2.2397   -3.0415    0.2171 H   0  0  0  0  0  0  0  0  0  0  0  0
  1  2  2  0
  2  3  1  0
  3  4  1  0
  4  5  1  0
  5  6  2  0
  6  7  1  0
  7  8  2  0
  8  9  1  0
  9 10  2  0
  2 11  1  0
 11 12  2  0
 12 13  1  0
 13 14  1  0
 14 15  1  0
 15 16  2  0
 15 17  1  0
 17 18  1  0
 18 19  1  0
 19 20  1  0
 20 21  1  0
 13 22  1  0
 22 23  2  0
 23 24  1  0
 24 25  2  0
 25 26  1  0
 26 27  2  0
 10  5  1  0
 27 11  1  0
 21 17  1  0
 27 22  1  0
  3 28  1  0
  3 29  1  0
  6 30  1  0
  7 31  1  0
  8 32  1  0
  9 33  1  0
 10 34  1  0
 12 35  1  0
 14 36  1  0
 14 37  1  0
 18 38  1  0
 18 39  1  0
 19 40  1  0
 19 41  1  0
 20 42  1  0
 20 43  1  0
 21 44  1  0
 21 45  1  0
 23 46  1  0
 24 47  1  0
 25 48  1  0
 26 49  1  0
M  END
$$$$
