
     RDKit          3D

 46 48  0  0  0  0  0  0  0  0999 V2000
    2.9984    0.1328   -3.2526 O   0  0  0  0  0  0  0  0  0  0  0  0
    1.9975    0.3597   -2.2726 C   0  0  0  0  0  0  0  0  0  0  0  0
    2.6210    0.6862   -0.9552 C   0  0  0  0  0  0  0  0  0  0  0  0
    3.9108    0.5880   -0.5949 C   0  0  0  0  0  0  0  0  0  0  0  0
    4.1247    0.9563    0.8338 C   0  0  1  0  0  0  0  0  0  0  0  0
    5.2412    1.8195    0.9554 O   0  0  0  0  0  0  0  0  0  0  0  0
    2.8185    1.6906    1.1911 C   0  0  2  0  0  0  0  0  0  0  0  0
    2.4155    1.5306    2.6235 C   0  0  0  0  0  0  0  0  0  0  0  0
    1.2695    0.9453    2.9775 C   0  0  0  0  0  0  0  0  0  0  0  0
    0.3805    0.3688    2.1190 O   0  0  0  0  0  0  0  0  0  0  0  0
    0.9036    0.0349    0.8218 C   0  0  1  0  0  0  0  0  0  0  0  0
   -0.1811   -0.2179   -0.0860 O   0  0  0  0  0  0  0  0  0  0  0  0
   -1.0194   -1.2878    0.3445 C   0  0  2  0  0  0  0  0  0  0  0  0
   -1.4144   -2.0739   -0.7800 O   0  0  0  0  0  0  0  0  0  0  0  0
   -2.4155   -1.5220   -1.6418 C   0  0  2  0  0  0  0  0  0  0  0  0
   -1.8048   -0.6354   -2.7384 C   0  0  0  0  0  0  0  0  0  0  0  0
   -2.7734   -0.1359   -3.6565 O   0  0  0  0  0  0  0  0  0  0  0  0
   -3.5566   -0.8107   -0.8982 C   0  0  1  0  0  0  0  0  0  0  0  0
   -4.8185   -1.1577   -1.4840 O   0  0  0  0  0  0  0  0  0  0  0  0
   -3.5398   -1.1933    0.5763 C   0  0  2  0  0  0  0  0  0  0  0  0
   -4.6298   -0.5362    1.2451 O   0  0  0  0  0  0  0  0  0  0  0  0
   -2.2113   -0.7335    1.1654 C   0  0  1  0  0  0  0  0  0  0  0  0
   -2.1548   -1.1446    2.5431 O   0  0  0  0  0  0  0  0  0  0  0  0
    1.7619    1.1573    0.2038 C   0  0  2  0  0  0  0  0  0  0  0  0
    3.4647    0.9762   -3.3767 H   0  0  0  0  0  0  0  0  0  0  0  0
    1.3595    1.1793   -2.6170 H   0  0  0  0  0  0  0  0  0  0  0  0
    1.3922   -0.5475   -2.1973 H   0  0  0  0  0  0  0  0  0  0  0  0
    4.7049    0.2197   -1.2318 H   0  0  0  0  0  0  0  0  0  0  0  0
    4.2986    0.0630    1.4432 H   0  0  0  0  0  0  0  0  0  0  0  0
    5.1996    2.4651    0.2298 H   0  0  0  0  0  0  0  0  0  0  0  0
    2.9508    2.7687    1.0145 H   0  0  0  0  0  0  0  0  0  0  0  0
    3.0608    1.9671    3.3825 H   0  0  0  0  0  0  0  0  0  0  0  0
    0.9162    0.9038    4.0010 H   0  0  0  0  0  0  0  0  0  0  0  0
    1.4984   -0.8847    0.9187 H   0  0  0  0  0  0  0  0  0  0  0  0
   -0.4381   -1.9755    0.9705 H   0  0  0  0  0  0  0  0  0  0  0  0
   -2.8496   -2.3865   -2.1612 H   0  0  0  0  0  0  0  0  0  0  0  0
   -1.2870    0.2262   -2.3078 H   0  0  0  0  0  0  0  0  0  0  0  0
   -1.0559   -1.2020   -3.3019 H   0  0  0  0  0  0  0  0  0  0  0  0
   -3.5913   -0.6618   -3.5645 H   0  0  0  0  0  0  0  0  0  0  0  0
   -3.4717    0.2791   -0.9938 H   0  0  0  0  0  0  0  0  0  0  0  0
   -5.4862   -0.8657   -0.8290 H   0  0  0  0  0  0  0  0  0  0  0  0
   -3.7013   -2.2689    0.7156 H   0  0  0  0  0  0  0  0  0  0  0  0
   -4.4699   -0.6952    2.1977 H   0  0  0  0  0  0  0  0  0  0  0  0
   -2.1866    0.3634    1.1912 H   0  0  0  0  0  0  0  0  0  0  0  0
   -1.3494   -0.7310    2.9127 H   0  0  0  0  0  0  0  0  0  0  0  0
    1.1180    1.9862   -0.1190 H   0  0  0  0  0  0  0  0  0  0  0  0
  1  2  1  0
  2  3  1  0
  3  4  2  0
  4  5  1  0
  5  6  1  0
  5  7  1  0
  7  8  1  0
  8  9  2  0
  9 10  1  0
 10 11  1  0
 11 12  1  0
 12 13  1  0
 13 14  1  0
 14 15  1  0
 15 16  1  0
 16 17  1  0
 15 18  1  0
 18 19  1  0
 18 20  1  0
 20 21  1  0
 20 22  1  0
 22 23  1  0
 11 24  1  0
 24  3  1  0
 24  7  1  0
 22 13  1  0
  1 25  1  0
  2 26  1  0
  2 27  1  0
  4 28  1  0
  5 29  1  1
  6 30  1  0
  7 31  1  6
  8 32  1  0
  9 33  1  0
 11 34  1  1
 13 35  1  1
 15 36  1  6
 16 37  1  0
 16 38  1  0
 17 39  1  0
 18 40  1  1
 19 41  1  0
 20 42  1  6
 21 43  1  0
 22 44  1  1
 23 45  1  0
 24 46  1  6
M  END
$$$$
