
     RDKit          3D

 52 53  0  0  0  0  0  0  0  0999 V2000
    5.1315   -1.0608    0.6215 C   0  0  0  0  0  0  0  0  0  0  0  0
    4.4844    0.0718   -0.1658 N   0  0  0  0  0  4  0  0  0  0  0  0
    5.4955    1.1896   -0.3583 C   0  0  0  0  0  0  0  0  0  0  0  0
    3.9788   -0.4400   -1.5254 C   0  0  0  0  0  0  0  0  0  0  0  0
    2.5138   -0.7306   -1.2953 C   0  0  0  0  0  0  0  0  0  0  0  0
    2.0685    0.4339   -0.4271 C   0  0  0  0  0  0  0  0  0  0  0  0
    0.8532    0.1335    0.2648 O   0  0  0  0  0  0  0  0  0  0  0  0
   -0.2823    0.2383   -0.5046 C   0  0  0  0  0  0  0  0  0  0  0  0
   -0.2627    0.6043   -1.6739 O   0  0  0  0  0  0  0  0  0  0  0  0
   -1.5525   -0.1276    0.3227 C   0  0  0  0  0  0  0  0  0  0  0  0
   -1.1594   -1.1211    1.2885 O   0  0  0  0  0  0  0  0  0  0  0  0
   -2.0871    1.1207    1.0385 C   0  0  0  0  0  0  0  0  0  0  0  0
   -2.1984    2.3490    0.3599 C   0  0  0  0  0  0  0  0  0  0  0  0
   -2.6933    3.4852    1.0046 C   0  0  0  0  0  0  0  0  0  0  0  0
   -3.0999    3.4133    2.3335 C   0  0  0  0  0  0  0  0  0  0  0  0
   -3.0246    2.2029    3.0157 C   0  0  0  0  0  0  0  0  0  0  0  0
   -2.5299    1.0656    2.3732 C   0  0  0  0  0  0  0  0  0  0  0  0
   -2.6228   -0.7434   -0.6109 C   0  0  0  0  0  0  0  0  0  0  0  0
   -2.1829   -2.0363   -1.3124 C   0  0  0  0  0  0  0  0  0  0  0  0
   -3.4816   -2.6369   -1.8385 C   0  0  0  0  0  0  0  0  0  0  0  0
   -4.5836   -2.1316   -0.9104 C   0  0  0  0  0  0  0  0  0  0  0  0
   -3.8998   -1.2138    0.0984 C   0  0  0  0  0  0  0  0  0  0  0  0
    3.2215    0.5820    0.5679 C   0  0  0  0  0  0  0  0  0  0  0  0
    0.0000    0.0000    0.0000 Br  0  0  0  0  0 15  0  0  0  0  0  0
    5.4239   -0.6730    1.6017 H   0  0  0  0  0  0  0  0  0  0  0  0
    4.4045   -1.8709    0.7298 H   0  0  0  0  0  0  0  0  0  0  0  0
    6.0099   -1.4066    0.0688 H   0  0  0  0  0  0  0  0  0  0  0  0
    5.8304    1.5239    0.6279 H   0  0  0  0  0  0  0  0  0  0  0  0
    6.3350    0.7967   -0.9391 H   0  0  0  0  0  0  0  0  0  0  0  0
    5.0088    2.0104   -0.8936 H   0  0  0  0  0  0  0  0  0  0  0  0
    4.1079    0.3643   -2.2587 H   0  0  0  0  0  0  0  0  0  0  0  0
    4.5619   -1.3146   -1.8291 H   0  0  0  0  0  0  0  0  0  0  0  0
    2.3705   -1.6858   -0.7755 H   0  0  0  0  0  0  0  0  0  0  0  0
    1.9576   -0.7907   -2.2356 H   0  0  0  0  0  0  0  0  0  0  0  0
    1.9749    1.3626   -1.0057 H   0  0  0  0  0  0  0  0  0  0  0  0
   -0.5784   -0.6699    1.9251 H   0  0  0  0  0  0  0  0  0  0  0  0
   -1.9206    2.4392   -0.6895 H   0  0  0  0  0  0  0  0  0  0  0  0
   -2.7780    4.4250    0.4634 H   0  0  0  0  0  0  0  0  0  0  0  0
   -3.4966    4.2951    2.8309 H   0  0  0  0  0  0  0  0  0  0  0  0
   -3.3693    2.1393    4.0454 H   0  0  0  0  0  0  0  0  0  0  0  0
   -2.5233    0.1272    2.9257 H   0  0  0  0  0  0  0  0  0  0  0  0
   -2.9055   -0.0114   -1.3817 H   0  0  0  0  0  0  0  0  0  0  0  0
   -1.7174   -2.7349   -0.6072 H   0  0  0  0  0  0  0  0  0  0  0  0
   -1.4705   -1.8551   -2.1228 H   0  0  0  0  0  0  0  0  0  0  0  0
   -3.6724   -2.2925   -2.8616 H   0  0  0  0  0  0  0  0  0  0  0  0
   -3.4364   -3.7303   -1.8633 H   0  0  0  0  0  0  0  0  0  0  0  0
   -5.3314   -1.5766   -1.4884 H   0  0  0  0  0  0  0  0  0  0  0  0
   -5.1023   -2.9547   -0.4085 H   0  0  0  0  0  0  0  0  0  0  0  0
   -4.5512   -0.3820    0.3841 H   0  0  0  0  0  0  0  0  0  0  0  0
   -3.6634   -1.7824    1.0058 H   0  0  0  0  0  0  0  0  0  0  0  0
    3.3745    1.6239    0.8686 H   0  0  0  0  0  0  0  0  0  0  0  0
    3.0701   -0.0243    1.4684 H   0  0  0  0  0  0  0  0  0  0  0  0
  1  2  1  0
  2  3  1  0
  2  4  1  0
  4  5  1  0
  5  6  1  0
  6  7  1  0
  7  8  1  0
  8  9  2  0
  8 10  1  0
 10 11  1  0
 10 12  1  0
 12 13  2  0
 13 14  1  0
 14 15  2  0
 15 16  1  0
 16 17  2  0
 10 18  1  0
 18 19  1  0
 19 20  1  0
 20 21  1  0
 21 22  1  0
  6 23  1  0
 23  2  1  0
 17 12  1  0
 22 18  1  0
  1 25  1  0
  1 26  1  0
  1 27  1  0
  3 28  1  0
  3 29  1  0
  3 30  1  0
  4 31  1  0
  4 32  1  0
  5 33  1  0
  5 34  1  0
  6 35  1  0
 11 36  1  0
 13 37  1  0
 14 38  1  0
 15 39  1  0
 16 40  1  0
 17 41  1  0
 18 42  1  0
 19 43  1  0
 19 44  1  0
 20 45  1  0
 20 46  1  0
 21 47  1  0
 21 48  1  0
 22 49  1  0
 22 50  1  0
 23 51  1  0
 23 52  1  0
M  CHG  2   2   1  24  -1
M  END
$$$$
