
     RDKit          3D

 53 57  0  0  0  0  0  0  0  0999 V2000
   -1.0331    2.7611   -1.9156 O   0  0  0  0  0  0  0  0  0  0  0  0
   -0.9830    1.8022   -1.1418 C   0  0  0  0  0  0  0  0  0  0  0  0
   -2.1989    1.1879   -0.6341 C   0  0  0  0  0  0  0  0  0  0  0  0
   -3.2968    0.7872   -1.3660 C   0  0  0  0  0  0  0  0  0  0  0  0
   -4.3555    0.2607   -0.5541 C   0  0  0  0  0  0  0  0  0  0  0  0
   -4.0293    0.3212    0.7916 C   0  0  0  0  0  0  0  0  0  0  0  0
   -2.4812    1.0218    1.0404 S   0  0  0  0  0  0  0  0  0  0  0  0
   -4.8238   -0.0839    2.0027 C   0  0  0  0  0  0  0  0  0  0  0  0
   -6.2726   -0.5009    1.7363 C   0  0  0  0  0  0  0  0  0  0  0  0
   -7.0579    0.5256    0.9191 C   0  0  0  0  0  0  0  0  0  0  0  0
   -6.8871    0.4240   -0.6029 C   0  0  0  0  0  0  0  0  0  0  0  0
   -5.6334   -0.2873   -1.1102 C   0  0  0  0  0  0  0  0  0  0  0  0
    0.2573    1.2655   -0.7683 N   0  0  0  0  0  0  0  0  0  0  0  0
    1.4538    2.0114   -1.1397 C   0  0  0  0  0  0  0  0  0  0  0  0
    2.6907    1.5208   -0.4025 C   0  0  0  0  0  0  0  0  0  0  0  0
    2.9453    0.0385   -0.7070 C   0  0  0  0  0  0  0  0  0  0  0  0
    3.9192   -0.5236    0.2164 N   0  0  0  0  0  0  0  0  0  0  0  0
    3.6913   -0.8257    1.5785 C   0  0  0  0  0  0  0  0  0  0  0  0
    2.6451   -0.7488    2.1997 O   0  0  0  0  0  0  0  0  0  0  0  0
    4.9201   -1.2389    2.1108 N   0  0  0  0  0  0  0  0  0  0  0  0
    5.8910   -1.1619    1.1217 C   0  0  0  0  0  0  0  0  0  0  0  0
    7.2346   -1.4461    1.2080 C   0  0  0  0  0  0  0  0  0  0  0  0
    7.9923   -1.2622    0.0481 C   0  0  0  0  0  0  0  0  0  0  0  0
    7.3936   -0.8038   -1.1441 C   0  0  0  0  0  0  0  0  0  0  0  0
    6.0237   -0.5186   -1.2030 C   0  0  0  0  0  0  0  0  0  0  0  0
    5.2873   -0.7102   -0.0528 C   0  0  0  0  0  0  0  0  0  0  0  0
    1.6431   -0.7840   -0.7711 C   0  0  0  0  0  0  0  0  0  0  0  0
    0.4472   -0.0559   -0.1620 C   0  0  0  0  0  0  0  0  0  0  0  0
   -3.3318    0.8595   -2.4473 H   0  0  0  0  0  0  0  0  0  0  0  0
   -4.8352    0.7536    2.7135 H   0  0  0  0  0  0  0  0  0  0  0  0
   -4.3107   -0.9144    2.5046 H   0  0  0  0  0  0  0  0  0  0  0  0
   -6.7639   -0.6149    2.7110 H   0  0  0  0  0  0  0  0  0  0  0  0
   -6.3155   -1.4900    1.2666 H   0  0  0  0  0  0  0  0  0  0  0  0
   -6.7873    1.5374    1.2483 H   0  0  0  0  0  0  0  0  0  0  0  0
   -8.1262    0.4180    1.1463 H   0  0  0  0  0  0  0  0  0  0  0  0
   -7.7562   -0.1064   -1.0130 H   0  0  0  0  0  0  0  0  0  0  0  0
   -6.9318    1.4370   -1.0234 H   0  0  0  0  0  0  0  0  0  0  0  0
   -5.6184   -0.2126   -2.2053 H   0  0  0  0  0  0  0  0  0  0  0  0
   -5.6888   -1.3608   -0.8908 H   0  0  0  0  0  0  0  0  0  0  0  0
    1.2889    3.0748   -0.9310 H   0  0  0  0  0  0  0  0  0  0  0  0
    1.5870    1.9066   -2.2234 H   0  0  0  0  0  0  0  0  0  0  0  0
    2.5563    1.6768    0.6758 H   0  0  0  0  0  0  0  0  0  0  0  0
    3.5645    2.1159   -0.6935 H   0  0  0  0  0  0  0  0  0  0  0  0
    3.3821   -0.0234   -1.7116 H   0  0  0  0  0  0  0  0  0  0  0  0
    5.0479   -1.5093    3.0714 H   0  0  0  0  0  0  0  0  0  0  0  0
    7.6894   -1.7934    2.1280 H   0  0  0  0  0  0  0  0  0  0  0  0
    9.0593   -1.4733    0.0627 H   0  0  0  0  0  0  0  0  0  0  0  0
    8.0089   -0.6689   -2.0319 H   0  0  0  0  0  0  0  0  0  0  0  0
    5.5796   -0.1663   -2.1252 H   0  0  0  0  0  0  0  0  0  0  0  0
    1.7622   -1.7703   -0.3080 H   0  0  0  0  0  0  0  0  0  0  0  0
    1.4144   -0.9734   -1.8289 H   0  0  0  0  0  0  0  0  0  0  0  0
   -0.4429   -0.6747   -0.3057 H   0  0  0  0  0  0  0  0  0  0  0  0
    0.5854    0.0946    0.9126 H   0  0  0  0  0  0  0  0  0  0  0  0
  1  2  2  0
  2  3  1  0
  3  4  2  0
  4  5  1  0
  5  6  2  0
  6  7  1  0
  6  8  1  0
  8  9  1  0
  9 10  1  0
 10 11  1  0
 11 12  1  0
  2 13  1  0
 13 14  1  0
 14 15  1  0
 15 16  1  0
 16 17  1  0
 17 18  1  0
 18 19  2  0
 18 20  1  0
 20 21  1  0
 21 22  2  0
 22 23  1  0
 23 24  2  0
 24 25  1  0
 25 26  2  0
 16 27  1  0
 27 28  1  0
  7  3  1  0
 28 13  1  0
 12  5  1  0
 26 17  1  0
 26 21  1  0
  4 29  1  0
  8 30  1  0
  8 31  1  0
  9 32  1  0
  9 33  1  0
 10 34  1  0
 10 35  1  0
 11 36  1  0
 11 37  1  0
 12 38  1  0
 12 39  1  0
 14 40  1  0
 14 41  1  0
 15 42  1  0
 15 43  1  0
 16 44  1  0
 20 45  1  0
 22 46  1  0
 23 47  1  0
 24 48  1  0
 25 49  1  0
 27 50  1  0
 27 51  1  0
 28 52  1  0
 28 53  1  0
M  END
$$$$
