
     RDKit          3D

 68 70  0  0  0  0  0  0  0  0999 V2000
    4.5794    3.6669    1.8237 C   0  0  0  0  0  0  0  0  0  0  0  0
    3.8518    2.8908    0.7321 C   0  0  0  0  0  0  0  0  0  0  0  0
    4.0248    1.3494    0.7650 C   0  0  0  0  0  0  0  0  0  0  0  0
    3.5032    0.7760    2.0934 C   0  0  0  0  0  0  0  0  0  0  0  0
    5.4973    0.9394    0.5978 C   0  0  0  0  0  0  0  0  0  0  0  0
    3.2721    0.7957   -0.4553 C   0  0  0  0  0  0  0  0  0  0  0  0
    3.5163    1.1418   -1.6056 O   0  0  0  0  0  0  0  0  0  0  0  0
    2.3209   -0.1195   -0.1214 O   0  0  0  0  0  0  0  0  0  0  0  0
    1.5609   -0.6727   -1.2180 C   0  0  1  0  0  0  0  0  0  0  0  0
    2.4312   -1.6868   -2.0011 C   0  0  0  0  0  0  0  0  0  0  0  0
    1.7049   -2.9928   -2.3782 C   0  0  1  0  0  0  0  0  0  0  0  0
    2.6889   -3.9903   -2.9898 C   0  0  0  0  0  0  0  0  0  0  0  0
    1.0398   -3.5587   -1.1486 C   0  0  0  0  0  0  0  0  0  0  0  0
    0.3896   -2.7350   -0.3083 C   0  0  0  0  0  0  0  0  0  0  0  0
   -0.1105   -3.1891    0.9656 C   0  0  0  0  0  0  0  0  0  0  0  0
   -0.3779   -2.3265    1.9548 C   0  0  0  0  0  0  0  0  0  0  0  0
   -0.1878   -0.8391    1.7878 C   0  0  2  0  0  0  0  0  0  0  0  0
   -0.9325   -0.0743    2.8817 C   0  0  0  0  0  0  0  0  0  0  0  0
   -0.5345   -0.3858    0.3375 C   0  0  2  0  0  0  0  0  0  0  0  0
   -2.0688   -0.4097    0.0422 C   0  0  0  0  0  0  0  0  0  0  0  0
   -2.7436    0.9499    0.2752 C   0  0  0  0  0  0  0  0  0  0  0  0
   -4.2654    0.9256    0.0583 C   0  0  2  0  0  0  0  0  0  0  0  0
   -4.6508    0.6890   -1.3955 C   0  0  0  0  0  0  0  0  0  0  0  0
   -6.1561    0.8029   -1.5338 C   0  0  1  0  0  0  0  0  0  0  0  0
   -6.7735   -0.2623   -0.8150 O   0  0  0  0  0  0  0  0  0  0  0  0
   -6.6515    2.1409   -1.0284 C   0  0  0  0  0  0  0  0  0  0  0  0
   -6.0230    2.6025    0.2594 C   0  0  0  0  0  0  0  0  0  0  0  0
   -6.5829    3.4306    0.9742 O   0  0  0  0  0  0  0  0  0  0  0  0
   -4.7603    2.2006    0.5238 O   0  0  0  0  0  0  0  0  0  0  0  0
    0.2230   -1.2772   -0.7067 C   0  0  1  0  0  0  0  0  0  0  0  0
    4.3903    4.7392    1.7029 H   0  0  0  0  0  0  0  0  0  0  0  0
    4.2343    3.3827    2.8227 H   0  0  0  0  0  0  0  0  0  0  0  0
    5.6626    3.5163    1.7697 H   0  0  0  0  0  0  0  0  0  0  0  0
    2.7823    3.1344    0.7879 H   0  0  0  0  0  0  0  0  0  0  0  0
    4.1924    3.2772   -0.2380 H   0  0  0  0  0  0  0  0  0  0  0  0
    4.1174    1.0949    2.9413 H   0  0  0  0  0  0  0  0  0  0  0  0
    2.4742    1.0995    2.2864 H   0  0  0  0  0  0  0  0  0  0  0  0
    3.5123   -0.3196    2.0879 H   0  0  0  0  0  0  0  0  0  0  0  0
    5.9400    1.3950   -0.2958 H   0  0  0  0  0  0  0  0  0  0  0  0
    6.1048    1.2353    1.4594 H   0  0  0  0  0  0  0  0  0  0  0  0
    5.5896   -0.1479    0.4880 H   0  0  0  0  0  0  0  0  0  0  0  0
    1.2864    0.1537   -1.8881 H   0  0  0  0  0  0  0  0  0  0  0  0
    2.7951   -1.2060   -2.9174 H   0  0  0  0  0  0  0  0  0  0  0  0
    3.3283   -1.9257   -1.4145 H   0  0  0  0  0  0  0  0  0  0  0  0
    0.9314   -2.7821   -3.1284 H   0  0  0  0  0  0  0  0  0  0  0  0
    3.1495   -3.5742   -3.8916 H   0  0  0  0  0  0  0  0  0  0  0  0
    2.1797   -4.9180   -3.2739 H   0  0  0  0  0  0  0  0  0  0  0  0
    3.4896   -4.2493   -2.2880 H   0  0  0  0  0  0  0  0  0  0  0  0
    1.1654   -4.6139   -0.9192 H   0  0  0  0  0  0  0  0  0  0  0  0
   -0.1934   -4.2579    1.1445 H   0  0  0  0  0  0  0  0  0  0  0  0
   -0.6825   -2.7107    2.9251 H   0  0  0  0  0  0  0  0  0  0  0  0
    0.8771   -0.6437    1.9608 H   0  0  0  0  0  0  0  0  0  0  0  0
   -0.5531   -0.3518    3.8718 H   0  0  0  0  0  0  0  0  0  0  0  0
   -2.0058   -0.2887    2.8801 H   0  0  0  0  0  0  0  0  0  0  0  0
   -0.7852    1.0042    2.7680 H   0  0  0  0  0  0  0  0  0  0  0  0
   -0.1952    0.6509    0.2083 H   0  0  0  0  0  0  0  0  0  0  0  0
   -2.5692   -1.1792    0.6406 H   0  0  0  0  0  0  0  0  0  0  0  0
   -2.2410   -0.6788   -1.0049 H   0  0  0  0  0  0  0  0  0  0  0  0
   -2.5527    1.3051    1.2944 H   0  0  0  0  0  0  0  0  0  0  0  0
   -2.2926    1.7079   -0.3799 H   0  0  0  0  0  0  0  0  0  0  0  0
   -4.6981    0.1563    0.7097 H   0  0  0  0  0  0  0  0  0  0  0  0
   -4.3276   -0.3062   -1.7192 H   0  0  0  0  0  0  0  0  0  0  0  0
   -4.1708    1.4339   -2.0411 H   0  0  0  0  0  0  0  0  0  0  0  0
   -6.4335    0.6797   -2.5866 H   0  0  0  0  0  0  0  0  0  0  0  0
   -7.7126   -0.2985   -1.0727 H   0  0  0  0  0  0  0  0  0  0  0  0
   -6.4348    2.9150   -1.7756 H   0  0  0  0  0  0  0  0  0  0  0  0
   -7.7353    2.0988   -0.8724 H   0  0  0  0  0  0  0  0  0  0  0  0
   -0.4040   -1.3097   -1.6112 H   0  0  0  0  0  0  0  0  0  0  0  0
  1  2  1  0
  2  3  1  0
  3  4  1  0
  3  5  1  0
  3  6  1  0
  6  7  2  0
  6  8  1  0
  8  9  1  0
  9 10  1  0
 10 11  1  0
 11 12  1  0
 11 13  1  0
 13 14  2  0
 14 15  1  0
 15 16  2  0
 16 17  1  0
 17 18  1  0
 17 19  1  0
 19 20  1  0
 20 21  1  0
 21 22  1  0
 22 23  1  0
 23 24  1  0
 24 25  1  0
 24 26  1  0
 26 27  1  0
 27 28  2  0
 27 29  1  0
 19 30  1  0
 30  9  1  0
 30 14  1  0
 29 22  1  0
  1 31  1  0
  1 32  1  0
  1 33  1  0
  2 34  1  0
  2 35  1  0
  4 36  1  0
  4 37  1  0
  4 38  1  0
  5 39  1  0
  5 40  1  0
  5 41  1  0
  9 42  1  6
 10 43  1  0
 10 44  1  0
 11 45  1  6
 12 46  1  0
 12 47  1  0
 12 48  1  0
 13 49  1  0
 15 50  1  0
 16 51  1  0
 17 52  1  1
 18 53  1  0
 18 54  1  0
 18 55  1  0
 19 56  1  1
 20 57  1  0
 20 58  1  0
 21 59  1  0
 21 60  1  0
 22 61  1  1
 23 62  1  0
 23 63  1  0
 24 64  1  6
 25 65  1  0
 26 66  1  0
 26 67  1  0
 30 68  1  6
M  END
$$$$
