
     RDKit          3D

 62 64  0  0  0  0  0  0  0  0999 V2000
    2.9423    2.9988    2.0676 C   0  0  0  0  0  0  0  0  0  0  0  0
    2.4901    2.0732    0.9468 C   0  0  0  0  0  0  0  0  0  0  0  0
    3.6352    1.5191    0.0835 C   0  0  2  0  0  0  0  0  0  0  0  0
    4.5154    2.6282   -0.4987 C   0  0  0  0  0  0  0  0  0  0  0  0
    3.0943    0.6483   -1.0461 C   0  0  0  0  0  0  0  0  0  0  0  0
    3.3986    0.7708   -2.2249 O   0  0  0  0  0  0  0  0  0  0  0  0
    2.2778   -0.3309   -0.5570 O   0  0  0  0  0  0  0  0  0  0  0  0
    1.7638   -1.2745   -1.5197 C   0  0  1  0  0  0  0  0  0  0  0  0
    2.7768   -2.4093   -1.6902 C   0  0  0  0  0  0  0  0  0  0  0  0
    2.3027   -3.4134   -2.7380 C   0  0  0  0  0  0  0  0  0  0  0  0
    0.8915   -3.8557   -2.4973 C   0  0  0  0  0  0  0  0  0  0  0  0
    0.0383   -3.1672   -1.7236 C   0  0  0  0  0  0  0  0  0  0  0  0
   -1.2633   -3.6919   -1.3770 C   0  0  0  0  0  0  0  0  0  0  0  0
   -1.6797   -3.5807   -0.1072 C   0  0  0  0  0  0  0  0  0  0  0  0
   -0.7575   -3.0003    0.9388 C   0  0  2  0  0  0  0  0  0  0  0  0
   -1.4512   -2.8246    2.2917 C   0  0  0  0  0  0  0  0  0  0  0  0
    0.0335   -1.7519    0.4299 C   0  0  2  0  0  0  0  0  0  0  0  0
   -0.6065   -0.3876    0.8086 C   0  0  0  0  0  0  0  0  0  0  0  0
   -1.9992   -0.0897    0.2281 C   0  0  0  0  0  0  0  0  0  0  0  0
   -2.5895    1.1994    0.8217 C   0  0  2  0  0  0  0  0  0  0  0  0
   -3.9706    1.4958    0.2424 C   0  0  0  0  0  0  0  0  0  0  0  0
   -4.4159    2.9221    0.5729 C   0  0  1  0  0  0  0  0  0  0  0  0
   -5.7028    2.8854    1.1876 O   0  0  0  0  0  0  0  0  0  0  0  0
   -3.4547    3.6393    1.5060 C   0  0  0  0  0  0  0  0  0  0  0  0
   -2.0581    3.5311    0.9657 C   0  0  0  0  0  0  0  0  0  0  0  0
   -1.2805    4.4765    0.9284 O   0  0  0  0  0  0  0  0  0  0  0  0
   -1.7007    2.2937    0.5340 O   0  0  0  0  0  0  0  0  0  0  0  0
    0.3595   -1.8132   -1.1056 C   0  0  1  0  0  0  0  0  0  0  0  0
    2.0956    3.2351    2.7227 H   0  0  0  0  0  0  0  0  0  0  0  0
    3.3285    3.9463    1.6761 H   0  0  0  0  0  0  0  0  0  0  0  0
    3.7214    2.5266    2.6769 H   0  0  0  0  0  0  0  0  0  0  0  0
    1.9573    1.2359    1.4132 H   0  0  0  0  0  0  0  0  0  0  0  0
    1.7593    2.5962    0.3160 H   0  0  0  0  0  0  0  0  0  0  0  0
    4.2764    0.8738    0.6974 H   0  0  0  0  0  0  0  0  0  0  0  0
    5.2919    2.2114   -1.1507 H   0  0  0  0  0  0  0  0  0  0  0  0
    5.0262    3.1870    0.2903 H   0  0  0  0  0  0  0  0  0  0  0  0
    3.9241    3.3316   -1.0969 H   0  0  0  0  0  0  0  0  0  0  0  0
    1.6376   -0.7748   -2.4909 H   0  0  0  0  0  0  0  0  0  0  0  0
    2.9347   -2.9107   -0.7261 H   0  0  0  0  0  0  0  0  0  0  0  0
    3.7554   -2.0092   -1.9797 H   0  0  0  0  0  0  0  0  0  0  0  0
    2.3769   -2.9824   -3.7434 H   0  0  0  0  0  0  0  0  0  0  0  0
    2.9631   -4.2884   -2.7105 H   0  0  0  0  0  0  0  0  0  0  0  0
    0.6012   -4.8128   -2.9263 H   0  0  0  0  0  0  0  0  0  0  0  0
   -1.8473   -4.2255   -2.1203 H   0  0  0  0  0  0  0  0  0  0  0  0
   -2.6276   -4.0173    0.1927 H   0  0  0  0  0  0  0  0  0  0  0  0
   -0.0002   -3.7810    1.1168 H   0  0  0  0  0  0  0  0  0  0  0  0
   -1.8254   -3.7872    2.6591 H   0  0  0  0  0  0  0  0  0  0  0  0
   -2.3073   -2.1460    2.2440 H   0  0  0  0  0  0  0  0  0  0  0  0
   -0.7476   -2.4429    3.0383 H   0  0  0  0  0  0  0  0  0  0  0  0
    0.9879   -1.7880    0.9760 H   0  0  0  0  0  0  0  0  0  0  0  0
   -0.6443   -0.3038    1.9015 H   0  0  0  0  0  0  0  0  0  0  0  0
    0.0675    0.4089    0.4794 H   0  0  0  0  0  0  0  0  0  0  0  0
   -1.9195    0.0305   -0.8576 H   0  0  0  0  0  0  0  0  0  0  0  0
   -2.6897   -0.9169    0.4135 H   0  0  0  0  0  0  0  0  0  0  0  0
   -2.6531    1.0834    1.9119 H   0  0  0  0  0  0  0  0  0  0  0  0
   -4.6951    0.7482    0.5878 H   0  0  0  0  0  0  0  0  0  0  0  0
   -3.9286    1.4069   -0.8511 H   0  0  0  0  0  0  0  0  0  0  0  0
   -4.5144    3.4950   -0.3576 H   0  0  0  0  0  0  0  0  0  0  0  0
   -6.3384    2.5608    0.5252 H   0  0  0  0  0  0  0  0  0  0  0  0
   -3.7334    4.6984    1.5785 H   0  0  0  0  0  0  0  0  0  0  0  0
   -3.4898    3.2403    2.5261 H   0  0  0  0  0  0  0  0  0  0  0  0
   -0.3334   -1.1204   -1.6014 H   0  0  0  0  0  0  0  0  0  0  0  0
  1  2  1  0
  2  3  1  0
  3  4  1  0
  3  5  1  0
  5  6  2  0
  5  7  1  0
  7  8  1  0
  8  9  1  0
  9 10  1  0
 10 11  1  0
 11 12  2  0
 12 13  1  0
 13 14  2  0
 14 15  1  0
 15 16  1  0
 15 17  1  0
 17 18  1  0
 18 19  1  0
 19 20  1  0
 20 21  1  0
 21 22  1  0
 22 23  1  0
 22 24  1  0
 24 25  1  0
 25 26  2  0
 25 27  1  0
 17 28  1  0
 28  8  1  0
 28 12  1  0
 27 20  1  0
  1 29  1  0
  1 30  1  0
  1 31  1  0
  2 32  1  0
  2 33  1  0
  3 34  1  1
  4 35  1  0
  4 36  1  0
  4 37  1  0
  8 38  1  6
  9 39  1  0
  9 40  1  0
 10 41  1  0
 10 42  1  0
 11 43  1  0
 13 44  1  0
 14 45  1  0
 15 46  1  1
 16 47  1  0
 16 48  1  0
 16 49  1  0
 17 50  1  1
 18 51  1  0
 18 52  1  0
 19 53  1  0
 19 54  1  0
 20 55  1  1
 21 56  1  0
 21 57  1  0
 22 58  1  6
 23 59  1  0
 24 60  1  0
 24 61  1  0
 28 62  1  6
M  END
$$$$
