
     RDKit          3D

 45 46  0  0  0  0  0  0  0  0999 V2000
   -0.1488    2.7590    3.0872 C   0  0  0  0  0  0  0  0  0  0  0  0
    0.3390    2.8656    1.7593 O   0  0  0  0  0  0  0  0  0  0  0  0
    0.5182    1.6121    1.0249 C   0  0  1  0  0  0  0  0  0  0  0  0
    1.9590    1.2468    0.8869 N   0  0  0  0  0  0  0  0  0  0  0  0
    2.7020    0.6628    1.8849 C   0  0  0  0  0  0  0  0  0  0  0  0
    2.2507    0.3496    2.9807 O   0  0  0  0  0  0  0  0  0  0  0  0
    4.1645    0.4749    1.5311 C   0  0  0  0  0  0  0  0  0  0  0  0
    4.4191   -0.9129    1.0344 C   0  0  0  0  0  0  0  0  0  0  0  0
    3.9637   -1.5159   -0.1247 C   0  0  0  0  0  0  0  0  0  0  0  0
    4.4475   -2.8476   -0.2683 C   0  0  0  0  0  0  0  0  0  0  0  0
    5.2624   -3.2108    0.7759 C   0  0  0  0  0  0  0  0  0  0  0  0
    5.4416   -1.9606    1.9257 S   0  0  0  0  0  0  0  0  0  0  0  0
   -0.5161    0.4030    1.3539 C   0  0  0  0  0  0  0  0  0  0  0  0
   -0.9037   -0.1960    2.3313 O   0  0  0  0  0  0  0  0  0  0  0  0
   -0.7924    0.3041    0.0313 N   0  0  0  0  0  0  0  0  0  0  0  0
   -1.7652   -0.2749   -0.7239 C   0  0  0  0  0  0  0  0  0  0  0  0
   -2.9328   -1.0656   -0.0566 C   0  0  0  0  0  0  0  0  0  0  0  0
   -3.8574   -0.3239    0.4081 O   0  0  0  0  0  0  0  0  0  0  0  0
   -2.8997   -2.3223   -0.2067 O   0  0  0  0  0  1  0  0  0  0  0  0
   -1.7694   -0.0770   -2.0667 C   0  0  0  0  0  0  0  0  0  0  0  0
   -2.8756   -0.6447   -2.9389 C   0  0  0  0  0  0  0  0  0  0  0  0
   -4.0641    0.0633   -2.6005 O   0  0  0  0  0  0  0  0  0  0  0  0
   -5.1624   -0.7152   -2.5612 C   0  0  0  0  0  0  0  0  0  0  0  0
   -5.9198   -0.3723   -1.4933 N   0  0  0  0  0  0  0  0  0  0  0  0
   -5.4212   -1.6244   -3.3344 O   0  0  0  0  0  0  0  0  0  0  0  0
   -0.7603    0.7528   -2.8283 C   0  0  0  0  0  0  0  0  0  0  0  0
    0.6959    1.3240   -1.8833 S   0  0  0  0  0  0  0  0  0  0  0  0
   -0.2690    1.5912   -0.3566 C   0  0  2  0  0  0  0  0  0  0  0  0
    0.0000    0.0000    0.0000 Na  0  0  0  0  0 15  0  0  0  0  0  0
   -1.2107    2.4947    3.0696 H   0  0  0  0  0  0  0  0  0  0  0  0
   -0.0400    3.7414    3.5770 H   0  0  0  0  0  0  0  0  0  0  0  0
    0.4194    2.0185    3.6613 H   0  0  0  0  0  0  0  0  0  0  0  0
    2.3618    1.3210   -0.0408 H   0  0  0  0  0  0  0  0  0  0  0  0
    4.4562    1.1996    0.7604 H   0  0  0  0  0  0  0  0  0  0  0  0
    4.7598    0.7174    2.4202 H   0  0  0  0  0  0  0  0  0  0  0  0
    3.3052   -1.0304   -0.8400 H   0  0  0  0  0  0  0  0  0  0  0  0
    4.2102   -3.5047   -1.1004 H   0  0  0  0  0  0  0  0  0  0  0  0
    5.7680   -4.1521    0.9221 H   0  0  0  0  0  0  0  0  0  0  0  0
   -2.6673   -0.4681   -4.0019 H   0  0  0  0  0  0  0  0  0  0  0  0
   -2.9596   -1.7307   -2.7943 H   0  0  0  0  0  0  0  0  0  0  0  0
   -5.3188   -0.0402   -0.7235 H   0  0  0  0  0  0  0  0  0  0  0  0
   -6.5196   -1.1241   -1.1876 H   0  0  0  0  0  0  0  0  0  0  0  0
   -0.3792    0.1905   -3.6863 H   0  0  0  0  0  0  0  0  0  0  0  0
   -1.2591    1.6455   -3.2111 H   0  0  0  0  0  0  0  0  0  0  0  0
   -1.0319    2.3762   -0.4388 H   0  0  0  0  0  0  0  0  0  0  0  0
  1  2  1  0
  3  2  1  1
  3  4  1  0
  4  5  1  0
  5  6  2  0
  5  7  1  0
  7  8  1  0
  8  9  2  0
  9 10  1  0
 10 11  2  0
 11 12  1  0
  3 13  1  0
 13 14  2  0
 13 15  1  0
 15 16  1  0
 16 17  1  0
 17 18  2  0
 17 19  1  0
 16 20  2  0
 20 21  1  0
 21 22  1  0
 22 23  1  0
 23 24  1  0
 23 25  2  0
 20 26  1  0
 26 27  1  0
 27 28  1  0
 28  3  1  0
 12  8  1  0
 28 15  1  0
  1 30  1  0
  1 31  1  0
  1 32  1  0
  4 33  1  0
  7 34  1  0
  7 35  1  0
  9 36  1  0
 10 37  1  0
 11 38  1  0
 21 39  1  0
 21 40  1  0
 24 41  1  0
 24 42  1  0
 26 43  1  0
 26 44  1  0
 28 45  1  6
M  CHG  2  19  -1  29   1
M  END
$$$$
