
     RDKit          3D

 12 12  0  0  0  0  0  0  0  0999 V2000
   -0.3327    2.6473   -0.0629 O   0  0  0  0  0  0  0  0  0  0  0  0
   -0.1797    1.4303   -0.0340 C   0  0  0  0  0  0  0  0  0  0  0  0
    1.1763    0.8214   -0.0103 C   0  0  0  0  0  0  0  0  0  0  0  0
    2.5056    1.9346   -0.0262 Cl  0  0  0  0  0  0  0  0  0  0  0  0
    1.3429   -0.5046    0.0212 C   0  0  0  0  0  0  0  0  0  0  0  0
    2.9063   -1.2539    0.0497 Cl  0  0  0  0  0  0  0  0  0  0  0  0
    0.1797   -1.4303    0.0340 C   0  0  0  0  0  0  0  0  0  0  0  0
    0.3327   -2.6473    0.0629 O   0  0  0  0  0  0  0  0  0  0  0  0
   -1.1763   -0.8214    0.0103 C   0  0  0  0  0  0  0  0  0  0  0  0
   -2.5056   -1.9346    0.0262 Cl  0  0  0  0  0  0  0  0  0  0  0  0
   -1.3429    0.5046   -0.0212 C   0  0  0  0  0  0  0  0  0  0  0  0
   -2.9063    1.2539   -0.0497 Cl  0  0  0  0  0  0  0  0  0  0  0  0
  1  2  2  0
  2  3  1  0
  3  4  1  0
  3  5  2  0
  5  6  1  0
  5  7  1  0
  7  8  2  0
  7  9  1  0
  9 10  1  0
  9 11  2  0
 11 12  1  0
 11  2  1  0
M  END
$$$$
