
     RDKit          3D

 38 39  0  0  0  0  0  0  0  0999 V2000
    5.1516   -1.0459   -1.6517 C   0  0  0  0  0  0  0  0  0  0  0  0
    4.3089   -1.3321   -0.5423 O   0  0  0  0  0  0  0  0  0  0  0  0
    3.3506   -0.4051   -0.2397 C   0  0  0  0  0  0  0  0  0  0  0  0
    3.1213    0.7914   -0.9194 C   0  0  0  0  0  0  0  0  0  0  0  0
    2.0994    1.6518   -0.5025 C   0  0  0  0  0  0  0  0  0  0  0  0
    1.3031    1.3197    0.5919 C   0  0  0  0  0  0  0  0  0  0  0  0
    0.2417    2.1755    1.0114 N   0  0  0  0  0  0  0  0  0  0  0  0
   -1.0895    2.3636   -0.0262 S   0  0  0  0  0  6  0  0  0  0  0  0
   -0.6197    2.8561   -1.3058 O   0  0  0  0  0  0  0  0  0  0  0  0
   -2.1062    3.0881    0.7089 O   0  0  0  0  0  0  0  0  0  0  0  0
   -1.6741    0.7047   -0.2523 C   0  0  0  0  0  0  0  0  0  0  0  0
   -1.7088    0.1580   -1.5416 C   0  0  0  0  0  0  0  0  0  0  0  0
   -2.1594   -1.1537   -1.7362 C   0  0  0  0  0  0  0  0  0  0  0  0
   -2.2252   -1.7351   -3.1180 C   0  0  0  0  0  0  0  0  0  0  0  0
   -2.5921   -1.8975   -0.6311 C   0  0  0  0  0  0  0  0  0  0  0  0
   -2.5572   -1.3490    0.6537 C   0  0  0  0  0  0  0  0  0  0  0  0
   -2.1130   -0.0392    0.8444 C   0  0  0  0  0  0  0  0  0  0  0  0
   -2.0199    0.4716    2.1122 O   0  0  0  0  0  0  0  0  0  0  0  0
   -3.3161    0.6657    2.6858 C   0  0  0  0  0  0  0  0  0  0  0  0
    1.5322    0.1291    1.2790 C   0  0  0  0  0  0  0  0  0  0  0  0
    2.5519   -0.7290    0.8603 C   0  0  0  0  0  0  0  0  0  0  0  0
    5.8564   -1.8761   -1.7588 H   0  0  0  0  0  0  0  0  0  0  0  0
    4.5735   -0.9782   -2.5793 H   0  0  0  0  0  0  0  0  0  0  0  0
    5.7340   -0.1346   -1.4804 H   0  0  0  0  0  0  0  0  0  0  0  0
    3.7164    1.0890   -1.7763 H   0  0  0  0  0  0  0  0  0  0  0  0
    1.9387    2.5850   -1.0374 H   0  0  0  0  0  0  0  0  0  0  0  0
   -0.0991    2.0323    1.9635 H   0  0  0  0  0  0  0  0  0  0  0  0
   -1.3804    0.7490   -2.3951 H   0  0  0  0  0  0  0  0  0  0  0  0
   -3.1907   -1.5005   -3.5766 H   0  0  0  0  0  0  0  0  0  0  0  0
   -1.4255   -1.3330   -3.7488 H   0  0  0  0  0  0  0  0  0  0  0  0
   -2.1010   -2.8228   -3.0909 H   0  0  0  0  0  0  0  0  0  0  0  0
   -2.9497   -2.9169   -0.7633 H   0  0  0  0  0  0  0  0  0  0  0  0
   -2.8643   -1.9567    1.5004 H   0  0  0  0  0  0  0  0  0  0  0  0
   -4.0020    1.1553    1.9850 H   0  0  0  0  0  0  0  0  0  0  0  0
   -3.2000    1.3168    3.5573 H   0  0  0  0  0  0  0  0  0  0  0  0
   -3.7335   -0.2865    3.0282 H   0  0  0  0  0  0  0  0  0  0  0  0
    0.9222   -0.1508    2.1330 H   0  0  0  0  0  0  0  0  0  0  0  0
    2.7253   -1.6601    1.3946 H   0  0  0  0  0  0  0  0  0  0  0  0
  1  2  1  0
  2  3  1  0
  3  4  2  0
  4  5  1  0
  5  6  2  0
  6  7  1  0
  7  8  1  0
  8  9  2  0
  8 10  2  0
  8 11  1  0
 11 12  2  0
 12 13  1  0
 13 14  1  0
 13 15  2  0
 15 16  1  0
 16 17  2  0
 17 18  1  0
 18 19  1  0
  6 20  1  0
 20 21  2  0
 21  3  1  0
 17 11  1  0
  1 22  1  0
  1 23  1  0
  1 24  1  0
  4 25  1  0
  5 26  1  0
  7 27  1  0
 12 28  1  0
 14 29  1  0
 14 30  1  0
 14 31  1  0
 15 32  1  0
 16 33  1  0
 19 34  1  0
 19 35  1  0
 19 36  1  0
 20 37  1  0
 21 38  1  0
M  END
$$$$
