
     RDKit          3D

 37 38  0  0  0  0  0  0  0  0999 V2000
    6.2647    1.5943   -0.1210 C   0  0  0  0  0  0  0  0  0  0  0  0
    4.9477    1.9402    1.0761 S   0  0  0  0  0  0  0  0  0  0  0  0
    3.7855    0.6643    0.6274 C   0  0  0  0  0  0  0  0  0  0  0  0
    3.2399    0.5940   -0.6599 C   0  0  0  0  0  0  0  0  0  0  0  0
    2.3198   -0.4061   -0.9825 C   0  0  0  0  0  0  0  0  0  0  0  0
    1.9359   -1.3298   -0.0065 C   0  0  0  0  0  0  0  0  0  0  0  0
    0.7622   -2.5926   -0.4263 S   0  0  0  0  0  6  0  0  0  0  0  0
    0.6036   -3.4825    0.7020 O   0  0  0  0  0  0  0  0  0  0  0  0
    1.1030   -3.0808   -1.7437 O   0  0  0  0  0  0  0  0  0  0  0  0
   -0.6420   -1.7084   -0.5910 N   0  0  0  0  0  0  0  0  0  0  0  0
   -1.3988   -1.3705    0.6069 C   0  0  0  0  0  0  0  0  0  0  0  0
   -2.3209   -0.2073    0.3398 C   0  0  0  0  0  0  0  0  0  0  0  0
   -1.8045    1.0930    0.2512 C   0  0  0  0  0  0  0  0  0  0  0  0
   -2.6471    2.1698   -0.0210 C   0  0  0  0  0  0  0  0  0  0  0  0
   -4.0128    1.9586   -0.2094 C   0  0  0  0  0  0  0  0  0  0  0  0
   -4.5498    0.6694   -0.1201 C   0  0  0  0  0  0  0  0  0  0  0  0
   -6.0126    0.4387   -0.3609 C   0  0  0  0  0  0  0  0  0  0  0  0
   -3.6946   -0.4104    0.1392 C   0  0  0  0  0  0  0  0  0  0  0  0
    2.4699   -1.2693    1.2821 C   0  0  0  0  0  0  0  0  0  0  0  0
    3.3891   -0.2652    1.5967 C   0  0  0  0  0  0  0  0  0  0  0  0
    5.9274    1.7944   -1.1412 H   0  0  0  0  0  0  0  0  0  0  0  0
    6.5912    0.5536   -0.0422 H   0  0  0  0  0  0  0  0  0  0  0  0
    7.1188    2.2428    0.0918 H   0  0  0  0  0  0  0  0  0  0  0  0
    3.5173    1.3206   -1.4197 H   0  0  0  0  0  0  0  0  0  0  0  0
    1.9032   -0.4571   -1.9862 H   0  0  0  0  0  0  0  0  0  0  0  0
   -1.1519   -1.8735   -1.4560 H   0  0  0  0  0  0  0  0  0  0  0  0
   -1.9822   -2.2432    0.9222 H   0  0  0  0  0  0  0  0  0  0  0  0
   -0.7348   -1.1050    1.4372 H   0  0  0  0  0  0  0  0  0  0  0  0
   -0.7393    1.2702    0.3869 H   0  0  0  0  0  0  0  0  0  0  0  0
   -2.2384    3.1746   -0.0916 H   0  0  0  0  0  0  0  0  0  0  0  0
   -4.6563    2.8078   -0.4284 H   0  0  0  0  0  0  0  0  0  0  0  0
   -6.1910    0.2474   -1.4235 H   0  0  0  0  0  0  0  0  0  0  0  0
   -6.6015    1.3095   -0.0540 H   0  0  0  0  0  0  0  0  0  0  0  0
   -6.3733   -0.4173    0.2190 H   0  0  0  0  0  0  0  0  0  0  0  0
   -4.1048   -1.4178    0.1864 H   0  0  0  0  0  0  0  0  0  0  0  0
    2.1790   -1.9898    2.0433 H   0  0  0  0  0  0  0  0  0  0  0  0
    3.7981   -0.2166    2.6040 H   0  0  0  0  0  0  0  0  0  0  0  0
  1  2  1  0
  2  3  1  0
  3  4  2  0
  4  5  1  0
  5  6  2  0
  6  7  1  0
  7  8  2  0
  7  9  2  0
  7 10  1  0
 10 11  1  0
 11 12  1  0
 12 13  2  0
 13 14  1  0
 14 15  2  0
 15 16  1  0
 16 17  1  0
 16 18  2  0
  6 19  1  0
 19 20  2  0
 20  3  1  0
 18 12  1  0
  1 21  1  0
  1 22  1  0
  1 23  1  0
  4 24  1  0
  5 25  1  0
 10 26  1  0
 11 27  1  0
 11 28  1  0
 13 29  1  0
 14 30  1  0
 15 31  1  0
 17 32  1  0
 17 33  1  0
 17 34  1  0
 18 35  1  0
 19 36  1  0
 20 37  1  0
M  END
$$$$
