
     RDKit          3D

 28 29  0  0  0  0  0  0  0  0999 V2000
   -3.4373   -0.3980    1.2601 C   0  0  0  0  0  0  0  0  0  0  0  0
   -3.0583    0.3441    0.0529 N   0  0  0  0  0  0  0  0  0  0  0  0
   -4.1579    1.0489   -0.6057 C   0  0  0  0  0  0  0  0  0  0  0  0
   -1.7317    0.4089   -0.3988 C   0  0  0  0  0  0  0  0  0  0  0  0
   -1.1832    0.8532   -1.5325 C   0  0  0  0  0  0  0  0  0  0  0  0
   -1.9461    1.5021   -2.9081 Cl  0  0  0  0  0  0  0  0  0  0  0  0
    0.2776    0.6885   -1.4991 C   0  0  0  0  0  0  0  0  0  0  0  0
    0.9989    1.0402   -2.4199 O   0  0  0  0  0  0  0  0  0  0  0  0
    0.5995    0.1200   -0.2981 N   0  0  0  0  0  0  0  0  0  0  0  0
    1.9253   -0.2118    0.1387 C   0  0  0  0  0  0  0  0  0  0  0  0
    3.0333   -0.0968   -0.7189 C   0  0  0  0  0  0  0  0  0  0  0  0
    4.3325   -0.4202   -0.3002 C   0  0  0  0  0  0  0  0  0  0  0  0
    4.5634   -0.8705    0.9955 C   0  0  0  0  0  0  0  0  0  0  0  0
    6.1851   -1.2508    1.4455 Cl  0  0  0  0  0  0  0  0  0  0  0  0
    3.4863   -0.9955    1.8702 C   0  0  0  0  0  0  0  0  0  0  0  0
    3.6828   -1.5437    3.4990 Cl  0  0  0  0  0  0  0  0  0  0  0  0
    2.1872   -0.6699    1.4426 C   0  0  0  0  0  0  0  0  0  0  0  0
   -0.5551   -0.0690    0.4196 C   0  0  0  0  0  0  0  0  0  0  0  0
   -0.6837   -0.5421    1.5400 O   0  0  0  0  0  0  0  0  0  0  0  0
   -3.0017   -1.4028    1.2539 H   0  0  0  0  0  0  0  0  0  0  0  0
   -3.1147    0.1411    2.1565 H   0  0  0  0  0  0  0  0  0  0  0  0
   -4.5219   -0.5377    1.3292 H   0  0  0  0  0  0  0  0  0  0  0  0
   -3.8828    2.0867   -0.8205 H   0  0  0  0  0  0  0  0  0  0  0  0
   -5.0540    1.0931    0.0232 H   0  0  0  0  0  0  0  0  0  0  0  0
   -4.4320    0.5411   -1.5357 H   0  0  0  0  0  0  0  0  0  0  0  0
    2.9362    0.2362   -1.7489 H   0  0  0  0  0  0  0  0  0  0  0  0
    5.1574   -0.3161   -1.0023 H   0  0  0  0  0  0  0  0  0  0  0  0
    1.3947   -0.7788    2.1769 H   0  0  0  0  0  0  0  0  0  0  0  0
  1  2  1  0
  2  3  1  0
  2  4  1  0
  4  5  2  0
  5  6  1  0
  5  7  1  0
  7  8  2  0
  7  9  1  0
  9 10  1  0
 10 11  2  0
 11 12  1  0
 12 13  2  0
 13 14  1  0
 13 15  1  0
 15 16  1  0
 15 17  2  0
  9 18  1  0
 18 19  2  0
 18  4  1  0
 17 10  1  0
  1 20  1  0
  1 21  1  0
  1 22  1  0
  3 23  1  0
  3 24  1  0
  3 25  1  0
 11 26  1  0
 12 27  1  0
 17 28  1  0
M  END
$$$$
