
     RDKit          3D

 64 67  0  0  0  0  0  0  0  0999 V2000
    9.9526    3.2683   -0.8117 C   0  0  0  0  0  0  0  0  0  0  0  0
    8.6796    2.6762   -0.3941 N   0  0  0  0  0  0  0  0  0  0  0  0
    8.1105    3.4702    0.7022 C   0  0  0  0  0  0  0  0  0  0  0  0
    8.8697    1.2768    0.0082 C   0  0  0  0  0  0  0  0  0  0  0  0
    7.6233    0.4276   -0.0220 C   0  0  0  0  0  0  0  0  0  0  0  0
    6.4434    0.7685   -0.5715 C   0  0  0  0  0  0  0  0  0  0  0  0
    5.2239   -0.0820   -0.5422 C   0  0  0  0  0  0  0  0  0  0  0  0
    4.1375    0.4545   -0.3614 O   0  0  0  0  0  0  0  0  0  0  0  0
    5.4692   -1.4190   -0.7660 N   0  0  0  0  0  0  0  0  0  0  0  0
    4.5228   -2.4642   -0.8183 C   0  0  0  0  0  0  0  0  0  0  0  0
    5.0132   -3.7689   -0.9586 C   0  0  0  0  0  0  0  0  0  0  0  0
    4.1401   -4.8569   -1.0131 C   0  0  0  0  0  0  0  0  0  0  0  0
    2.7657   -4.6489   -0.9245 C   0  0  0  0  0  0  0  0  0  0  0  0
    2.2594   -3.3521   -0.7809 C   0  0  0  0  0  0  0  0  0  0  0  0
    0.7779   -3.1722   -0.7096 C   0  0  0  0  0  0  0  0  0  0  0  0
    0.0710   -4.0088   -1.2598 O   0  0  0  0  0  0  0  0  0  0  0  0
    0.3486   -2.0717    0.0114 N   0  0  0  0  0  0  0  0  0  0  0  0
   -0.9772   -1.6234    0.1839 C   0  0  0  0  0  0  0  0  0  0  0  0
   -2.0908   -2.2260   -0.3945 C   0  0  0  0  0  0  0  0  0  0  0  0
   -3.3765   -1.7002   -0.1901 C   0  0  0  0  0  0  0  0  0  0  0  0
   -3.5840   -0.5592    0.5877 C   0  0  0  0  0  0  0  0  0  0  0  0
   -4.8390    0.0073    0.8322 N   0  0  0  0  0  0  0  0  0  0  0  0
   -6.1281   -0.2754    0.3903 C   0  0  0  0  0  0  0  0  0  0  0  0
   -6.4105   -1.3658   -0.3331 N   0  0  0  0  0  0  0  0  0  0  0  0
   -7.6846   -1.5419   -0.7157 C   0  0  0  0  0  0  0  0  0  0  0  0
   -8.6939   -0.6636   -0.4115 C   0  0  0  0  0  0  0  0  0  0  0  0
   -8.3323    0.4410    0.3323 C   0  0  0  0  0  0  0  0  0  0  0  0
   -9.2898    1.4867    0.7303 C   0  0  0  0  0  0  0  0  0  0  0  0
  -10.3966    1.8490   -0.0520 C   0  0  0  0  0  0  0  0  0  0  0  0
  -11.2707    2.8501    0.3728 C   0  0  0  0  0  0  0  0  0  0  0  0
  -11.0186    3.4744    1.5807 C   0  0  0  0  0  0  0  0  0  0  0  0
   -9.9702    3.1702    2.3698 N   0  0  0  0  0  0  0  0  0  0  0  0
   -9.1357    2.1959    1.9241 C   0  0  0  0  0  0  0  0  0  0  0  0
   -7.0574    0.6295    0.7441 N   0  0  0  0  0  0  0  0  0  0  0  0
   -2.4565    0.0281    1.1804 C   0  0  0  0  0  0  0  0  0  0  0  0
   -1.1709   -0.4902    0.9779 C   0  0  0  0  0  0  0  0  0  0  0  0
    3.1423   -2.2623   -0.7458 C   0  0  0  0  0  0  0  0  0  0  0  0
   10.3666    2.7279   -1.6705 H   0  0  0  0  0  0  0  0  0  0  0  0
   10.6965    3.2605   -0.0067 H   0  0  0  0  0  0  0  0  0  0  0  0
    9.8070    4.3043   -1.1387 H   0  0  0  0  0  0  0  0  0  0  0  0
    7.9305    4.4995    0.3714 H   0  0  0  0  0  0  0  0  0  0  0  0
    8.7701    3.5018    1.5773 H   0  0  0  0  0  0  0  0  0  0  0  0
    7.1416    3.0762    1.0235 H   0  0  0  0  0  0  0  0  0  0  0  0
    9.5764    0.7860   -0.6756 H   0  0  0  0  0  0  0  0  0  0  0  0
    9.3193    1.2186    1.0089 H   0  0  0  0  0  0  0  0  0  0  0  0
    7.7313   -0.5334    0.4752 H   0  0  0  0  0  0  0  0  0  0  0  0
    6.2871    1.7452   -1.0210 H   0  0  0  0  0  0  0  0  0  0  0  0
    6.4317   -1.6844   -0.9239 H   0  0  0  0  0  0  0  0  0  0  0  0
    6.0810   -3.9594   -1.0260 H   0  0  0  0  0  0  0  0  0  0  0  0
    4.5297   -5.8656   -1.1269 H   0  0  0  0  0  0  0  0  0  0  0  0
    2.0862   -5.4976   -0.9717 H   0  0  0  0  0  0  0  0  0  0  0  0
    1.0518   -1.5294    0.4961 H   0  0  0  0  0  0  0  0  0  0  0  0
   -2.0025   -3.1087   -1.0197 H   0  0  0  0  0  0  0  0  0  0  0  0
   -4.2075   -2.2111   -0.6676 H   0  0  0  0  0  0  0  0  0  0  0  0
   -4.8505    0.8906    1.3209 H   0  0  0  0  0  0  0  0  0  0  0  0
   -7.8732   -2.4419   -1.2954 H   0  0  0  0  0  0  0  0  0  0  0  0
   -9.7082   -0.8525   -0.7336 H   0  0  0  0  0  0  0  0  0  0  0  0
  -10.5826    1.3740   -1.0119 H   0  0  0  0  0  0  0  0  0  0  0  0
  -12.1245    3.1388   -0.2307 H   0  0  0  0  0  0  0  0  0  0  0  0
  -11.6679    4.2606    1.9534 H   0  0  0  0  0  0  0  0  0  0  0  0
   -8.3016    1.9883    2.5918 H   0  0  0  0  0  0  0  0  0  0  0  0
   -2.5662    0.9098    1.8078 H   0  0  0  0  0  0  0  0  0  0  0  0
   -0.3290    0.0120    1.4481 H   0  0  0  0  0  0  0  0  0  0  0  0
    2.7396   -1.2569   -0.7068 H   0  0  0  0  0  0  0  0  0  0  0  0
  1  2  1  0
  2  3  1  0
  2  4  1  0
  4  5  1  0
  5  6  2  0
  6  7  1  0
  7  8  2  0
  7  9  1  0
  9 10  1  0
 10 11  2  0
 11 12  1  0
 12 13  2  0
 13 14  1  0
 14 15  1  0
 15 16  2  0
 15 17  1  0
 17 18  1  0
 18 19  2  0
 19 20  1  0
 20 21  2  0
 21 22  1  0
 22 23  1  0
 23 24  2  0
 24 25  1  0
 25 26  2  0
 26 27  1  0
 27 28  1  0
 28 29  2  0
 29 30  1  0
 30 31  2  0
 31 32  1  0
 32 33  2  0
 27 34  2  0
 21 35  1  0
 35 36  2  0
 14 37  2  0
 37 10  1  0
 36 18  1  0
 34 23  1  0
 33 28  1  0
  1 38  1  0
  1 39  1  0
  1 40  1  0
  3 41  1  0
  3 42  1  0
  3 43  1  0
  4 44  1  0
  4 45  1  0
  5 46  1  0
  6 47  1  0
  9 48  1  0
 11 49  1  0
 12 50  1  0
 13 51  1  0
 17 52  1  0
 19 53  1  0
 20 54  1  0
 22 55  1  0
 25 56  1  0
 26 57  1  0
 29 58  1  0
 30 59  1  0
 31 60  1  0
 33 61  1  0
 35 62  1  0
 36 63  1  0
 37 64  1  0
M  END
$$$$
