
     RDKit          3D

 51 53  0  0  0  0  0  0  0  0999 V2000
   -9.4123   -0.5065   -0.7634 C   0  0  0  0  0  0  0  0  0  0  0  0
   -8.6694   -1.2934    0.1576 O   0  0  0  0  0  0  0  0  0  0  0  0
   -7.2575   -1.1019    0.0482 C   0  0  0  0  0  0  0  0  0  0  0  0
   -6.7884    0.1196    0.8449 C   0  0  0  0  0  0  0  0  0  0  0  0
   -5.3790    0.3985    0.6719 N   0  0  0  0  0  0  0  0  0  0  0  0
   -4.3966   -0.3265    1.3082 C   0  0  0  0  0  0  0  0  0  0  0  0
   -4.6266   -1.2568    2.0734 O   0  0  0  0  0  0  0  0  0  0  0  0
   -3.0483    0.1081    0.9774 C   0  0  0  0  0  0  0  0  0  0  0  0
   -1.8586   -0.3903    1.4665 C   0  0  0  0  0  0  0  0  0  0  0  0
   -0.9064    0.3554    0.8434 N   0  0  0  0  0  0  0  0  0  0  0  0
    0.5307    0.2448    0.9696 C   0  0  0  0  0  0  0  0  0  0  0  0
    1.2447    0.0088   -0.3705 C   0  0  2  0  0  0  0  0  0  0  0  0
    0.6965   -1.2080   -1.1285 C   0  0  0  0  0  0  0  0  0  0  0  0
    1.8398   -1.5606   -2.0546 C   0  0  0  0  0  0  0  0  0  0  0  0
    1.7592   -2.8364   -2.4764 F   0  0  0  0  0  0  0  0  0  0  0  0
    1.8297   -0.7595   -3.1432 F   0  0  0  0  0  0  0  0  0  0  0  0
    3.0840   -1.3100   -1.2140 C   0  0  0  0  0  0  0  0  0  0  0  0
    2.6835   -0.2895   -0.2358 N   0  0  0  0  0  0  0  0  0  0  0  0
    3.5480    0.6394    0.3249 C   0  0  0  0  0  0  0  0  0  0  0  0
    3.1641    1.7035    0.7994 O   0  0  0  0  0  0  0  0  0  0  0  0
    4.9957    0.3390    0.3577 C   0  0  0  0  0  0  0  0  0  0  0  0
    5.4693   -0.8686    0.8623 C   0  0  0  0  0  0  0  0  0  0  0  0
    6.8364   -1.0605    0.8726 C   0  0  0  0  0  0  0  0  0  0  0  0
    7.7249   -0.1446    0.4300 N   0  0  0  0  0  0  0  0  0  0  0  0
    7.2451    1.0368   -0.0275 C   0  0  0  0  0  0  0  0  0  0  0  0
    8.2443    2.0557   -0.4870 C   0  0  0  0  0  0  0  0  0  0  0  0
    5.8877    1.3192   -0.0744 C   0  0  0  0  0  0  0  0  0  0  0  0
   -1.4542    1.2595    0.0133 N   0  0  0  0  0  0  0  0  0  0  0  0
   -2.7710    1.1180    0.0838 N   0  0  0  0  0  0  0  0  0  0  0  0
   -9.2558    0.5606   -0.5852 H   0  0  0  0  0  0  0  0  0  0  0  0
   -9.1392   -0.7609   -1.7920 H   0  0  0  0  0  0  0  0  0  0  0  0
  -10.4740   -0.7272   -0.6230 H   0  0  0  0  0  0  0  0  0  0  0  0
   -6.9604   -1.0298   -1.0054 H   0  0  0  0  0  0  0  0  0  0  0  0
   -6.7804   -2.0030    0.4486 H   0  0  0  0  0  0  0  0  0  0  0  0
   -6.9963   -0.0333    1.9103 H   0  0  0  0  0  0  0  0  0  0  0  0
   -7.3327    1.0187    0.5408 H   0  0  0  0  0  0  0  0  0  0  0  0
   -5.0808    1.1359    0.0411 H   0  0  0  0  0  0  0  0  0  0  0  0
   -1.6393   -1.1743    2.1767 H   0  0  0  0  0  0  0  0  0  0  0  0
    0.8656    1.1690    1.4511 H   0  0  0  0  0  0  0  0  0  0  0  0
    0.7430   -0.5768    1.6645 H   0  0  0  0  0  0  0  0  0  0  0  0
    1.1621    0.9038   -1.0022 H   0  0  0  0  0  0  0  0  0  0  0  0
   -0.2203   -0.9732   -1.6771 H   0  0  0  0  0  0  0  0  0  0  0  0
    0.4923   -2.0457   -0.4508 H   0  0  0  0  0  0  0  0  0  0  0  0
    3.9202   -0.9555   -1.8233 H   0  0  0  0  0  0  0  0  0  0  0  0
    3.3748   -2.2109   -0.6655 H   0  0  0  0  0  0  0  0  0  0  0  0
    4.8040   -1.6278    1.2545 H   0  0  0  0  0  0  0  0  0  0  0  0
    7.2737   -1.9794    1.2536 H   0  0  0  0  0  0  0  0  0  0  0  0
    8.1626    2.9645    0.1172 H   0  0  0  0  0  0  0  0  0  0  0  0
    9.2650    1.6720   -0.3897 H   0  0  0  0  0  0  0  0  0  0  0  0
    8.0731    2.3057   -1.5387 H   0  0  0  0  0  0  0  0  0  0  0  0
    5.5273    2.2777   -0.4353 H   0  0  0  0  0  0  0  0  0  0  0  0
  1  2  1  0
  2  3  1  0
  3  4  1  0
  4  5  1  0
  5  6  1  0
  6  7  2  0
  6  8  1  0
  8  9  2  0
  9 10  1  0
 10 11  1  0
 11 12  1  0
 12 13  1  0
 13 14  1  0
 14 15  1  0
 14 16  1  0
 14 17  1  0
 17 18  1  0
 18 19  1  0
 19 20  2  0
 19 21  1  0
 21 22  2  0
 22 23  1  0
 23 24  2  0
 24 25  1  0
 25 26  1  0
 25 27  2  0
 10 28  1  0
 28 29  2  0
 29  8  1  0
 18 12  1  0
 27 21  1  0
  1 30  1  0
  1 31  1  0
  1 32  1  0
  3 33  1  0
  3 34  1  0
  4 35  1  0
  4 36  1  0
  5 37  1  0
  9 38  1  0
 11 39  1  0
 11 40  1  0
 12 41  1  6
 13 42  1  0
 13 43  1  0
 17 44  1  0
 17 45  1  0
 22 46  1  0
 23 47  1  0
 26 48  1  0
 26 49  1  0
 26 50  1  0
 27 51  1  0
M  END
$$$$
