
     RDKit          3D

 39 41  0  0  0  0  0  0  0  0999 V2000
    6.1718    0.3000   -1.6032 C   0  0  0  0  0  0  0  0  0  0  0  0
    6.4931    0.6980   -0.2429 N   0  0  0  0  0  0  0  0  0  0  0  0
    5.9322   -0.1946    1.0571 S   0  0  0  0  0  6  0  0  0  0  0  0
    6.2941    0.5444    2.2465 O   0  0  0  0  0  0  0  0  0  0  0  0
    6.3252   -1.5724    0.8644 O   0  0  0  0  0  0  0  0  0  0  0  0
    4.1701   -0.0837    0.8645 C   0  0  0  0  0  0  0  0  0  0  0  0
    3.4658   -1.1297    0.2665 C   0  0  0  0  0  0  0  0  0  0  0  0
    2.0762   -1.0399    0.1265 C   0  0  0  0  0  0  0  0  0  0  0  0
    1.3861    0.0829    0.5916 C   0  0  0  0  0  0  0  0  0  0  0  0
   -0.0102    0.2530    0.4921 N   0  0  0  0  0  0  0  0  0  0  0  0
   -0.9331   -0.5981   -0.0795 C   0  0  0  0  0  0  0  0  0  0  0  0
   -0.6682   -1.6672   -0.6244 O   0  0  0  0  0  0  0  0  0  0  0  0
   -2.3617   -0.1298   -0.0063 C   0  0  0  0  0  0  0  0  0  0  0  0
   -3.2941   -0.9466   -0.5271 C   0  0  0  0  0  0  0  0  0  0  0  0
   -4.7013   -0.5852   -0.5049 C   0  0  0  0  0  0  0  0  0  0  0  0
   -5.6912   -1.4135   -1.0374 C   0  0  0  0  0  0  0  0  0  0  0  0
   -7.0323   -1.0194   -0.9904 C   0  0  0  0  0  0  0  0  0  0  0  0
   -7.3883    0.2014   -0.4124 C   0  0  0  0  0  0  0  0  0  0  0  0
   -6.4048    1.0322    0.1207 C   0  0  0  0  0  0  0  0  0  0  0  0
   -5.0739    0.6258    0.0664 C   0  0  0  0  0  0  0  0  0  0  0  0
   -4.1081    1.4871    0.6128 O   0  0  0  0  0  0  0  0  0  0  0  0
   -2.7574    1.1608    0.6014 C   0  0  0  0  0  0  0  0  0  0  0  0
   -1.9227    1.9254    1.0818 O   0  0  0  0  0  0  0  0  0  0  0  0
    2.1070    1.1168    1.2080 C   0  0  0  0  0  0  0  0  0  0  0  0
    3.4951    1.0369    1.3497 C   0  0  0  0  0  0  0  0  0  0  0  0
    6.9630    0.6500   -2.2724 H   0  0  0  0  0  0  0  0  0  0  0  0
    6.1038   -0.7858   -1.7072 H   0  0  0  0  0  0  0  0  0  0  0  0
    5.2309    0.7586   -1.9184 H   0  0  0  0  0  0  0  0  0  0  0  0
    6.7020    1.6725   -0.0376 H   0  0  0  0  0  0  0  0  0  0  0  0
    3.9825   -2.0182   -0.0908 H   0  0  0  0  0  0  0  0  0  0  0  0
    1.5626   -1.8727   -0.3441 H   0  0  0  0  0  0  0  0  0  0  0  0
   -0.3728    1.1188    0.8949 H   0  0  0  0  0  0  0  0  0  0  0  0
   -3.0293   -1.8994   -0.9786 H   0  0  0  0  0  0  0  0  0  0  0  0
   -5.4345   -2.3680   -1.4914 H   0  0  0  0  0  0  0  0  0  0  0  0
   -7.8018   -1.6666   -1.4057 H   0  0  0  0  0  0  0  0  0  0  0  0
   -8.4326    0.5028   -0.3783 H   0  0  0  0  0  0  0  0  0  0  0  0
   -6.6733    1.9828    0.5721 H   0  0  0  0  0  0  0  0  0  0  0  0
    1.5948    1.9974    1.5910 H   0  0  0  0  0  0  0  0  0  0  0  0
    4.0352    1.8431    1.8409 H   0  0  0  0  0  0  0  0  0  0  0  0
  1  2  1  0
  2  3  1  0
  3  4  2  0
  3  5  2  0
  3  6  1  0
  6  7  2  0
  7  8  1  0
  8  9  2  0
  9 10  1  0
 10 11  1  0
 11 12  2  0
 11 13  1  0
 13 14  2  0
 14 15  1  0
 15 16  2  0
 16 17  1  0
 17 18  2  0
 18 19  1  0
 19 20  2  0
 20 21  1  0
 21 22  1  0
 22 23  2  0
  9 24  1  0
 24 25  2  0
 25  6  1  0
 22 13  1  0
 20 15  1  0
  1 26  1  0
  1 27  1  0
  1 28  1  0
  2 29  1  0
  7 30  1  0
  8 31  1  0
 10 32  1  0
 14 33  1  0
 16 34  1  0
 17 35  1  0
 18 36  1  0
 19 37  1  0
 24 38  1  0
 25 39  1  0
M  END
$$$$
