
     RDKit          3D

 67 71  0  0  0  0  0  0  0  0999 V2000
   -4.3858   -4.7439   -0.3143 C   0  0  0  0  0  0  0  0  0  0  0  0
   -3.8194   -3.6644    0.4975 C   0  0  0  0  0  0  0  0  0  0  0  0
   -3.3479   -2.7877    1.1710 C   0  0  0  0  0  0  0  0  0  0  0  0
   -2.7586   -1.7288    2.0185 C   0  0  2  0  0  0  0  0  0  0  0  0
   -2.2969   -2.3430    3.2146 O   0  0  0  0  0  0  0  0  0  0  0  0
   -3.8281   -0.6636    2.3653 C   0  0  0  0  0  0  0  0  0  0  0  0
   -3.5678    0.5410    1.4410 C   0  0  0  0  0  0  0  0  0  0  0  0
   -2.4857    0.0663    0.4705 C   0  0  1  0  0  0  0  0  0  0  0  0
   -1.6604    1.1329   -0.2627 C   0  0  2  0  0  0  0  0  0  0  0  0
   -2.6197    2.0244   -1.0688 C   0  0  0  0  0  0  0  0  0  0  0  0
   -1.8528    2.9470   -1.9928 C   0  0  0  0  0  0  0  0  0  0  0  0
   -0.9433    2.1775   -2.9135 C   0  0  0  0  0  0  0  0  0  0  0  0
   -0.7081    2.6699   -4.1429 C   0  0  0  0  0  0  0  0  0  0  0  0
    0.3280    2.0834   -5.0159 C   0  0  0  0  0  0  0  0  0  0  0  0
    0.4061    2.4313   -6.1912 O   0  0  0  0  0  0  0  0  0  0  0  0
    1.3279    1.1700   -4.3679 C   0  0  0  0  0  0  0  0  0  0  0  0
    0.6431    0.2578   -3.3631 C   0  0  0  0  0  0  0  0  0  0  0  0
   -0.3088    0.9560   -2.3995 C   0  0  0  0  0  0  0  0  0  0  0  0
   -0.5809    0.4813   -1.1510 C   0  0  0  0  0  0  0  0  0  0  0  0
    0.1673   -0.7374   -0.5468 C   0  0  1  0  0  0  0  0  0  0  0  0
    1.5265   -0.4030    0.0826 C   0  0  0  0  0  0  0  0  0  0  0  0
    1.9923    0.9081    0.2626 C   0  0  0  0  0  0  0  0  0  0  0  0
    3.2560    1.1652    0.8152 C   0  0  0  0  0  0  0  0  0  0  0  0
    4.0996    0.1231    1.2120 C   0  0  0  0  0  0  0  0  0  0  0  0
    5.3723    0.3145    1.7806 N   0  0  0  0  0  0  0  0  0  0  0  0
    6.1027    1.5133    1.3603 C   0  0  0  0  0  0  0  0  0  0  0  0
    5.3513    0.1023    3.2346 C   0  0  0  0  0  0  0  0  0  0  0  0
    3.6378   -1.1860    1.0271 C   0  0  0  0  0  0  0  0  0  0  0  0
    2.3839   -1.4473    0.4624 C   0  0  0  0  0  0  0  0  0  0  0  0
   -0.7164   -1.6536    0.3525 C   0  0  0  0  0  0  0  0  0  0  0  0
   -1.6374   -0.8929    1.3205 C   0  0  2  0  0  0  0  0  0  0  0  0
   -0.7866   -0.1854    2.4094 C   0  0  0  0  0  0  0  0  0  0  0  0
   -4.5019   -5.6562    0.2804 H   0  0  0  0  0  0  0  0  0  0  0  0
   -3.7342   -4.9738   -1.1643 H   0  0  0  0  0  0  0  0  0  0  0  0
   -5.3702   -4.4645   -0.7049 H   0  0  0  0  0  0  0  0  0  0  0  0
   -1.6805   -3.0475    2.9492 H   0  0  0  0  0  0  0  0  0  0  0  0
   -4.8486   -1.0375    2.2193 H   0  0  0  0  0  0  0  0  0  0  0  0
   -3.7589   -0.3474    3.4136 H   0  0  0  0  0  0  0  0  0  0  0  0
   -3.2295    1.4029    2.0286 H   0  0  0  0  0  0  0  0  0  0  0  0
   -4.4818    0.8382    0.9164 H   0  0  0  0  0  0  0  0  0  0  0  0
   -3.0040   -0.5185   -0.3074 H   0  0  0  0  0  0  0  0  0  0  0  0
   -1.1464    1.7714    0.4661 H   0  0  0  0  0  0  0  0  0  0  0  0
   -3.3136    1.4115   -1.6596 H   0  0  0  0  0  0  0  0  0  0  0  0
   -3.2332    2.6281   -0.3895 H   0  0  0  0  0  0  0  0  0  0  0  0
   -1.2458    3.6399   -1.3957 H   0  0  0  0  0  0  0  0  0  0  0  0
   -2.5680    3.5551   -2.5613 H   0  0  0  0  0  0  0  0  0  0  0  0
   -1.1956    3.5580   -4.5281 H   0  0  0  0  0  0  0  0  0  0  0  0
    1.8105    0.5653   -5.1435 H   0  0  0  0  0  0  0  0  0  0  0  0
    2.0954    1.7859   -3.8866 H   0  0  0  0  0  0  0  0  0  0  0  0
    0.0596   -0.4944   -3.9133 H   0  0  0  0  0  0  0  0  0  0  0  0
    1.4374   -0.2779   -2.8356 H   0  0  0  0  0  0  0  0  0  0  0  0
    0.4242   -1.3949   -1.3894 H   0  0  0  0  0  0  0  0  0  0  0  0
    1.3835    1.7635   -0.0177 H   0  0  0  0  0  0  0  0  0  0  0  0
    3.5537    2.2016    0.9432 H   0  0  0  0  0  0  0  0  0  0  0  0
    5.6768    2.4305    1.7876 H   0  0  0  0  0  0  0  0  0  0  0  0
    6.1233    1.6000    0.2665 H   0  0  0  0  0  0  0  0  0  0  0  0
    7.1433    1.4450    1.6956 H   0  0  0  0  0  0  0  0  0  0  0  0
    4.8899   -0.8558    3.5087 H   0  0  0  0  0  0  0  0  0  0  0  0
    4.8094    0.9147    3.7424 H   0  0  0  0  0  0  0  0  0  0  0  0
    6.3796    0.0836    3.6176 H   0  0  0  0  0  0  0  0  0  0  0  0
    4.2797   -2.0197    1.3020 H   0  0  0  0  0  0  0  0  0  0  0  0
    2.0955   -2.4851    0.3110 H   0  0  0  0  0  0  0  0  0  0  0  0
   -0.1213   -2.3873    0.9067 H   0  0  0  0  0  0  0  0  0  0  0  0
   -1.3295   -2.2455   -0.3388 H   0  0  0  0  0  0  0  0  0  0  0  0
   -1.4044    0.2944    3.1754 H   0  0  0  0  0  0  0  0  0  0  0  0
   -0.1445   -0.9082    2.9238 H   0  0  0  0  0  0  0  0  0  0  0  0
   -0.1402    0.5964    2.0136 H   0  0  0  0  0  0  0  0  0  0  0  0
  1  2  1  0
  2  3  3  0
  4  3  1  6
  4  5  1  0
  4  6  1  0
  6  7  1  0
  7  8  1  0
  8  9  1  0
  9 10  1  0
 10 11  1  0
 11 12  1  0
 12 13  2  0
 13 14  1  0
 14 15  2  0
 14 16  1  0
 16 17  1  0
 17 18  1  0
 18 19  2  0
 19 20  1  0
 20 21  1  0
 21 22  2  0
 22 23  1  0
 23 24  2  0
 24 25  1  0
 25 26  1  0
 25 27  1  0
 24 28  1  0
 28 29  2  0
 20 30  1  0
 30 31  1  0
 31 32  1  1
 31  4  1  0
 31  8  1  0
 19  9  1  0
 29 21  1  0
 18 12  1  0
  1 33  1  0
  1 34  1  0
  1 35  1  0
  5 36  1  0
  6 37  1  0
  6 38  1  0
  7 39  1  0
  7 40  1  0
  8 41  1  6
  9 42  1  1
 10 43  1  0
 10 44  1  0
 11 45  1  0
 11 46  1  0
 13 47  1  0
 16 48  1  0
 16 49  1  0
 17 50  1  0
 17 51  1  0
 20 52  1  6
 22 53  1  0
 23 54  1  0
 26 55  1  0
 26 56  1  0
 26 57  1  0
 27 58  1  0
 27 59  1  0
 27 60  1  0
 28 61  1  0
 29 62  1  0
 30 63  1  0
 30 64  1  0
 32 65  1  0
 32 66  1  0
 32 67  1  0
M  END
$$$$
