
     RDKit          3D

 57 56  0  0  0  0  0  0  0  0999 V2000
   -4.3863   -1.8972    4.6187 N   0  0  0  0  0  0  0  0  0  0  0  0
   -5.0637   -1.1013    3.8798 C   0  0  0  0  0  0  0  0  0  0  0  0
   -5.9953   -0.2531    4.3603 N   0  0  0  0  0  0  0  0  0  0  0  0
   -4.9415   -0.9824    2.5382 N   0  0  0  0  0  0  0  0  0  0  0  0
   -4.1102   -1.9072    1.7798 C   0  0  0  0  0  0  0  0  0  0  0  0
   -3.9673   -1.4239    0.3338 C   0  0  0  0  0  0  0  0  0  0  0  0
   -3.1317   -0.1375    0.2431 C   0  0  0  0  0  0  0  0  0  0  0  0
   -2.8104    0.3542   -1.1763 C   0  0  2  0  0  0  0  0  0  0  0  0
   -4.0191    0.5016   -2.0122 N   0  0  0  0  0  0  0  0  0  0  0  0
   -1.7786   -0.5318   -1.9125 C   0  0  0  0  0  0  0  0  0  0  0  0
   -1.4127   -1.6375   -1.5319 O   0  0  0  0  0  0  0  0  0  0  0  0
   -1.2912    0.0489   -3.0696 N   0  0  0  0  0  0  0  0  0  0  0  0
   -0.3141   -0.6277   -3.9133 C   0  0  0  0  0  0  0  0  0  0  0  0
    1.1528   -0.3588   -3.5483 C   0  0  0  0  0  0  0  0  0  0  0  0
    2.0776   -0.6676   -4.2959 O   0  0  0  0  0  0  0  0  0  0  0  0
    1.3634    0.2115   -2.3168 N   0  0  0  0  0  0  0  0  0  0  0  0
    2.7000    0.3230   -1.7290 C   0  0  1  0  0  0  0  0  0  0  0  0
    3.4405    1.5455   -2.2713 C   0  0  0  0  0  0  0  0  0  0  0  0
    4.9206    1.4131   -2.0655 C   0  0  0  0  0  0  0  0  0  0  0  0
    5.4823    0.6336   -1.3100 O   0  0  0  0  0  0  0  0  0  0  0  0
    5.6213    2.3047   -2.7893 O   0  0  0  0  0  0  0  0  0  0  0  0
    2.4809    0.4478   -0.2054 C   0  0  0  0  0  0  0  0  0  0  0  0
    1.4002    0.7972    0.2710 O   0  0  0  0  0  0  0  0  0  0  0  0
    3.5797    0.1587    0.5716 N   0  0  0  0  0  0  0  0  0  0  0  0
    3.5714    0.4464    2.0111 C   0  0  1  0  0  0  0  0  0  0  0  0
    4.6364   -0.3574    2.7602 C   0  0  0  0  0  0  0  0  0  0  0  0
    4.3478   -2.1553    2.6601 S   0  0  0  0  0  0  0  0  0  0  0  0
    3.8695    1.9340    2.2033 C   0  0  0  0  0  0  0  0  0  0  0  0
    4.3466    2.6964    1.3740 O   0  0  0  0  0  0  0  0  0  0  0  0
    3.5782    2.3758    3.4449 O   0  0  0  0  0  0  0  0  0  0  0  0
   -4.6806   -1.8043    5.5920 H   0  0  0  0  0  0  0  0  0  0  0  0
   -5.9706    0.6414    3.8840 H   0  0  0  0  0  0  0  0  0  0  0  0
   -5.9588   -0.1190    5.3621 H   0  0  0  0  0  0  0  0  0  0  0  0
   -5.8271   -0.7912    2.0862 H   0  0  0  0  0  0  0  0  0  0  0  0
   -3.1186   -2.0004    2.2354 H   0  0  0  0  0  0  0  0  0  0  0  0
   -4.5777   -2.8978    1.7858 H   0  0  0  0  0  0  0  0  0  0  0  0
   -3.4958   -2.2222   -0.2488 H   0  0  0  0  0  0  0  0  0  0  0  0
   -4.9632   -1.2586   -0.0940 H   0  0  0  0  0  0  0  0  0  0  0  0
   -3.6639    0.6644    0.7714 H   0  0  0  0  0  0  0  0  0  0  0  0
   -2.1871   -0.2884    0.7812 H   0  0  0  0  0  0  0  0  0  0  0  0
   -2.3498    1.3461   -1.0775 H   0  0  0  0  0  0  0  0  0  0  0  0
   -4.4551   -0.4157   -2.1176 H   0  0  0  0  0  0  0  0  0  0  0  0
   -3.7460    0.7717   -2.9562 H   0  0  0  0  0  0  0  0  0  0  0  0
   -1.4508    1.0373   -3.2222 H   0  0  0  0  0  0  0  0  0  0  0  0
   -0.4794   -0.2664   -4.9328 H   0  0  0  0  0  0  0  0  0  0  0  0
   -0.4819   -1.7085   -3.8786 H   0  0  0  0  0  0  0  0  0  0  0  0
    0.5892    0.2021   -1.6570 H   0  0  0  0  0  0  0  0  0  0  0  0
    3.2351   -0.6119   -1.9334 H   0  0  0  0  0  0  0  0  0  0  0  0
    3.1020    2.4654   -1.7819 H   0  0  0  0  0  0  0  0  0  0  0  0
    3.2659    1.6430   -3.3494 H   0  0  0  0  0  0  0  0  0  0  0  0
    6.5605    2.1425   -2.5616 H   0  0  0  0  0  0  0  0  0  0  0  0
    4.4893    0.1747    0.1057 H   0  0  0  0  0  0  0  0  0  0  0  0
    2.5670    0.2486    2.4024 H   0  0  0  0  0  0  0  0  0  0  0  0
    5.6311   -0.1557    2.3470 H   0  0  0  0  0  0  0  0  0  0  0  0
    4.6641   -0.0813    3.8198 H   0  0  0  0  0  0  0  0  0  0  0  0
    4.1916   -2.2076    1.3277 H   0  0  0  0  0  0  0  0  0  0  0  0
    3.7637    3.3381    3.4168 H   0  0  0  0  0  0  0  0  0  0  0  0
  1  2  2  3
  2  3  1  0
  2  4  1  0
  4  5  1  0
  5  6  1  0
  6  7  1  0
  7  8  1  0
  8  9  1  0
  8 10  1  0
 10 11  2  0
 10 12  1  0
 12 13  1  0
 13 14  1  0
 14 15  2  0
 14 16  1  0
 16 17  1  0
 17 18  1  0
 18 19  1  0
 19 20  2  0
 19 21  1  0
 17 22  1  0
 22 23  2  0
 22 24  1  0
 24 25  1  0
 25 26  1  0
 26 27  1  0
 25 28  1  0
 28 29  2  0
 28 30  1  0
  1 31  1  0
  3 32  1  0
  3 33  1  0
  4 34  1  0
  5 35  1  0
  5 36  1  0
  6 37  1  0
  6 38  1  0
  7 39  1  0
  7 40  1  0
  8 41  1  1
  9 42  1  0
  9 43  1  0
 12 44  1  0
 13 45  1  0
 13 46  1  0
 16 47  1  0
 17 48  1  1
 18 49  1  0
 18 50  1  0
 21 51  1  0
 24 52  1  0
 25 53  1  1
 26 54  1  0
 26 55  1  0
 27 56  1  0
 30 57  1  0
M  END
$$$$
