
     RDKit          3D

 62 65  0  0  0  0  0  0  0  0999 V2000
   -6.0915    1.7815   -1.3502 C   0  0  0  0  0  0  0  0  0  0  0  0
   -6.4103    0.5636   -0.5600 C   0  0  0  0  0  0  0  0  0  0  0  0
   -7.6471   -0.0578   -0.5083 C   0  0  0  0  0  0  0  0  0  0  0  0
   -7.5610   -1.1130    0.3591 N   0  0  0  0  0  0  0  0  0  0  0  0
   -6.2996   -1.1831    0.8768 C   0  0  0  0  0  0  0  0  0  0  0  0
   -5.9161   -2.0873    1.7875 N   0  0  0  0  0  0  0  0  0  0  0  0
   -4.6318   -1.9158    2.1281 C   0  0  0  0  0  0  0  0  0  0  0  0
   -3.7586   -1.0068    1.6527 N   0  0  0  0  0  0  0  0  0  0  0  0
   -4.1722   -0.1182    0.7051 C   0  0  0  0  0  0  0  0  0  0  0  0
   -3.2537    0.8131    0.1936 N   0  0  0  0  0  0  0  0  0  0  0  0
   -2.1655    1.1354    1.1128 C   0  0  0  0  0  0  0  0  0  0  0  0
   -1.1707    2.0788    0.4443 C   0  0  0  0  0  0  0  0  0  0  0  0
   -0.5446    1.4756   -0.8420 C   0  0  0  0  0  0  0  0  0  0  0  0
   -0.3002    2.6063   -1.8928 C   0  0  0  0  0  0  0  0  0  0  0  0
   -1.5075    3.2224   -2.4555 N   0  0  0  0  0  0  0  0  0  0  0  0
    0.8612    0.9042   -0.4869 C   0  0  0  0  0  0  0  0  0  0  0  0
    1.8826    1.4351   -0.9211 O   0  0  0  0  0  0  0  0  0  0  0  0
    0.8542   -0.1828    0.3718 N   0  0  0  0  0  0  0  0  0  0  0  0
    1.9653   -0.8756    0.9042 C   0  0  0  0  0  0  0  0  0  0  0  0
    1.6879   -1.9711    1.7383 C   0  0  0  0  0  0  0  0  0  0  0  0
    2.7220   -2.7092    2.3260 C   0  0  0  0  0  0  0  0  0  0  0  0
    4.0482   -2.3646    2.0814 C   0  0  0  0  0  0  0  0  0  0  0  0
    4.3229   -1.2937    1.2337 C   0  0  0  0  0  0  0  0  0  0  0  0
    5.6385   -0.8633    0.9861 O   0  0  0  0  0  0  0  0  0  0  0  0
    6.5654   -1.7897    0.5145 C   0  0  0  0  0  0  0  0  0  0  0  0
    6.3106   -2.9707    0.2958 O   0  0  0  0  0  0  0  0  0  0  0  0
    7.8221   -1.2302    0.3186 N   0  0  0  0  0  0  0  0  0  0  0  0
    8.8914   -2.0517   -0.2167 C   0  0  0  0  0  0  0  0  0  0  0  0
    8.1146    0.1802    0.5153 C   0  0  0  0  0  0  0  0  0  0  0  0
    3.2965   -0.5364    0.6610 C   0  0  0  0  0  0  0  0  0  0  0  0
   -1.4391    0.3651   -1.4504 C   0  0  0  0  0  0  0  0  0  0  0  0
   -2.9322    0.5983   -1.2233 C   0  0  0  0  0  0  0  0  0  0  0  0
   -5.5288   -0.1804    0.3025 C   0  0  0  0  0  0  0  0  0  0  0  0
   -5.4014    2.4370   -0.8081 H   0  0  0  0  0  0  0  0  0  0  0  0
   -6.9989    2.3620   -1.5556 H   0  0  0  0  0  0  0  0  0  0  0  0
   -5.6432    1.5047   -2.3105 H   0  0  0  0  0  0  0  0  0  0  0  0
   -8.5806    0.1721   -1.0054 H   0  0  0  0  0  0  0  0  0  0  0  0
   -8.3098   -1.7403    0.6164 H   0  0  0  0  0  0  0  0  0  0  0  0
   -4.2441   -2.5940    2.8824 H   0  0  0  0  0  0  0  0  0  0  0  0
   -2.5766    1.6362    1.9991 H   0  0  0  0  0  0  0  0  0  0  0  0
   -1.6487    0.2383    1.4675 H   0  0  0  0  0  0  0  0  0  0  0  0
   -1.6971    3.0146    0.2239 H   0  0  0  0  0  0  0  0  0  0  0  0
   -0.3880    2.3451    1.1666 H   0  0  0  0  0  0  0  0  0  0  0  0
    0.2779    2.2025   -2.7341 H   0  0  0  0  0  0  0  0  0  0  0  0
    0.3113    3.4024   -1.4487 H   0  0  0  0  0  0  0  0  0  0  0  0
   -2.0112    3.7330   -1.7303 H   0  0  0  0  0  0  0  0  0  0  0  0
   -1.2253    3.9286   -3.1363 H   0  0  0  0  0  0  0  0  0  0  0  0
   -0.0421   -0.5737    0.6261 H   0  0  0  0  0  0  0  0  0  0  0  0
    0.6614   -2.2645    1.9489 H   0  0  0  0  0  0  0  0  0  0  0  0
    2.4918   -3.5524    2.9728 H   0  0  0  0  0  0  0  0  0  0  0  0
    4.8521   -2.9332    2.5405 H   0  0  0  0  0  0  0  0  0  0  0  0
    9.1634   -1.6732   -1.2083 H   0  0  0  0  0  0  0  0  0  0  0  0
    9.7555   -1.9844    0.4484 H   0  0  0  0  0  0  0  0  0  0  0  0
    8.5995   -3.0999   -0.3101 H   0  0  0  0  0  0  0  0  0  0  0  0
    8.9895    0.2673    1.1685 H   0  0  0  0  0  0  0  0  0  0  0  0
    8.3410    0.6276   -0.4575 H   0  0  0  0  0  0  0  0  0  0  0  0
    7.2838    0.7270    0.9692 H   0  0  0  0  0  0  0  0  0  0  0  0
    3.5721    0.3023    0.0321 H   0  0  0  0  0  0  0  0  0  0  0  0
   -1.2474    0.2731   -2.5270 H   0  0  0  0  0  0  0  0  0  0  0  0
   -1.1962   -0.6221   -1.0427 H   0  0  0  0  0  0  0  0  0  0  0  0
   -3.4727   -0.2637   -1.6426 H   0  0  0  0  0  0  0  0  0  0  0  0
   -3.2687    1.4698   -1.7923 H   0  0  0  0  0  0  0  0  0  0  0  0
  1  2  1  0
  2  3  2  0
  3  4  1  0
  4  5  1  0
  5  6  2  0
  6  7  1  0
  7  8  2  0
  8  9  1  0
  9 10  1  0
 10 11  1  0
 11 12  1  0
 12 13  1  0
 13 14  1  0
 14 15  1  0
 13 16  1  0
 16 17  2  0
 16 18  1  0
 18 19  1  0
 19 20  2  0
 20 21  1  0
 21 22  2  0
 22 23  1  0
 23 24  1  0
 24 25  1  0
 25 26  2  0
 25 27  1  0
 27 28  1  0
 27 29  1  0
 23 30  2  0
 13 31  1  0
 31 32  1  0
  9 33  2  0
 33  2  1  0
 33  5  1  0
 32 10  1  0
 30 19  1  0
  1 34  1  0
  1 35  1  0
  1 36  1  0
  3 37  1  0
  4 38  1  0
  7 39  1  0
 11 40  1  0
 11 41  1  0
 12 42  1  0
 12 43  1  0
 14 44  1  0
 14 45  1  0
 15 46  1  0
 15 47  1  0
 18 48  1  0
 20 49  1  0
 21 50  1  0
 22 51  1  0
 28 52  1  0
 28 53  1  0
 28 54  1  0
 29 55  1  0
 29 56  1  0
 29 57  1  0
 30 58  1  0
 31 59  1  0
 31 60  1  0
 32 61  1  0
 32 62  1  0
M  END
$$$$
