
     RDKit          3D

 50 50  0  0  0  0  0  0  0  0999 V2000
    3.7462    0.1384   -0.1414 C   0  0  0  0  0  0  0  0  0  0  0  0
    3.0517   -1.1374   -0.0463 N   0  0  0  0  0  0  0  0  0  0  0  0
    2.7271   -1.4790    1.3332 C   0  0  0  0  0  0  0  0  0  0  0  0
    1.9334   -1.2944   -0.9806 C   0  0  0  0  0  0  0  0  0  0  0  0
    0.9551   -0.1270   -1.2233 C   0  0  0  0  0  0  0  0  0  0  0  0
    0.0215    0.2411   -0.0494 C   0  0  0  0  0  0  0  0  0  0  0  0
   -0.7924    1.5251   -0.2596 C   0  0  0  0  0  0  0  0  0  0  0  0
   -1.3082    2.1830    0.8739 C   0  0  0  0  0  0  0  0  0  0  0  0
   -2.0674    3.3485    0.7475 C   0  0  0  0  0  0  0  0  0  0  0  0
   -2.3236    3.8696   -0.5163 C   0  0  0  0  0  0  0  0  0  0  0  0
   -3.2591    5.3043   -0.6783 Cl  0  0  0  0  0  0  0  0  0  0  0  0
   -1.8293    3.2335   -1.6519 C   0  0  0  0  0  0  0  0  0  0  0  0
   -1.0697    2.0658   -1.5253 C   0  0  0  0  0  0  0  0  0  0  0  0
   -0.8739   -0.9280    0.3483 C   0  0  0  0  0  0  0  0  0  0  0  0
   -1.8638   -1.4105   -0.5093 C   0  0  0  0  0  0  0  0  0  0  0  0
   -2.6489   -2.4850   -0.1004 C   0  0  0  0  0  0  0  0  0  0  0  0
   -2.4309   -3.0519    1.1481 C   0  0  0  0  0  0  0  0  0  0  0  0
   -1.4323   -2.5163    1.9415 C   0  0  0  0  0  0  0  0  0  0  0  0
   -0.6551   -1.4747    1.5723 N   0  0  0  0  0  0  0  0  0  0  0  0
    2.5557   -0.0511   -0.7382 O   0  0  0  0  0  0  0  0  0  0  0  0
    1.5337   -0.0018   -0.0792 C   0  0  0  0  0  0  0  0  0  0  0  0
    1.2266   -0.9352    0.8333 O   0  0  0  0  0  0  0  0  0  0  0  0
    0.5918    1.1210   -0.0852 C   0  0  0  0  0  0  0  0  0  0  0  0
   -0.7406    1.0321    0.0258 C   0  0  0  0  0  0  0  0  0  0  0  0
   -1.5192   -0.2082    0.0850 C   0  0  0  0  0  0  0  0  0  0  0  0
   -2.5272   -0.3612    0.7495 O   0  0  0  0  0  0  0  0  0  0  0  0
   -1.0833   -1.1391   -0.7762 O   0  0  0  0  0  0  0  0  0  0  0  0
    3.1406    0.9733    0.2271 H   0  0  0  0  0  0  0  0  0  0  0  0
    4.6739    0.1130    0.4415 H   0  0  0  0  0  0  0  0  0  0  0  0
    4.0356    0.3471   -1.1772 H   0  0  0  0  0  0  0  0  0  0  0  0
    2.0986   -0.7330    1.8244 H   0  0  0  0  0  0  0  0  0  0  0  0
    2.2289   -2.4528    1.3921 H   0  0  0  0  0  0  0  0  0  0  0  0
    3.6474   -1.5706    1.9217 H   0  0  0  0  0  0  0  0  0  0  0  0
    2.3927   -1.5070   -1.9562 H   0  0  0  0  0  0  0  0  0  0  0  0
    1.3747   -2.2100   -0.7490 H   0  0  0  0  0  0  0  0  0  0  0  0
    0.3525   -0.4014   -2.1001 H   0  0  0  0  0  0  0  0  0  0  0  0
    1.5250    0.7588   -1.5320 H   0  0  0  0  0  0  0  0  0  0  0  0
    0.6728    0.4701    0.8022 H   0  0  0  0  0  0  0  0  0  0  0  0
   -1.1223    1.7792    1.8691 H   0  0  0  0  0  0  0  0  0  0  0  0
   -2.4552    3.8379    1.6366 H   0  0  0  0  0  0  0  0  0  0  0  0
   -2.0319    3.6392   -2.6396 H   0  0  0  0  0  0  0  0  0  0  0  0
   -0.7058    1.5935   -2.4338 H   0  0  0  0  0  0  0  0  0  0  0  0
   -2.0323   -0.9571   -1.4806 H   0  0  0  0  0  0  0  0  0  0  0  0
   -3.4267   -2.8738   -0.7514 H   0  0  0  0  0  0  0  0  0  0  0  0
   -3.0257   -3.8887    1.4957 H   0  0  0  0  0  0  0  0  0  0  0  0
   -1.2231   -2.9227    2.9268 H   0  0  0  0  0  0  0  0  0  0  0  0
    1.9451   -1.5946    0.7443 H   0  0  0  0  0  0  0  0  0  0  0  0
    1.0638    2.0909   -0.1941 H   0  0  0  0  0  0  0  0  0  0  0  0
   -1.3417    1.9323    0.0832 H   0  0  0  0  0  0  0  0  0  0  0  0
   -1.7047   -1.8851   -0.6484 H   0  0  0  0  0  0  0  0  0  0  0  0
  1  2  1  0
  2  3  1  0
  2  4  1  0
  4  5  1  0
  5  6  1  0
  6  7  1  0
  7  8  2  0
  8  9  1  0
  9 10  2  0
 10 11  1  0
 10 12  1  0
 12 13  2  0
  6 14  1  0
 14 15  2  0
 15 16  1  0
 16 17  2  0
 17 18  1  0
 18 19  2  0
 20 21  2  0
 21 22  1  0
 21 23  1  0
 23 24  2  0
 24 25  1  0
 25 26  2  0
 25 27  1  0
 13  7  1  0
 19 14  1  0
  1 28  1  0
  1 29  1  0
  1 30  1  0
  3 31  1  0
  3 32  1  0
  3 33  1  0
  4 34  1  0
  4 35  1  0
  5 36  1  0
  5 37  1  0
  6 38  1  0
  8 39  1  0
  9 40  1  0
 12 41  1  0
 13 42  1  0
 15 43  1  0
 16 44  1  0
 17 45  1  0
 18 46  1  0
 22 47  1  0
 23 48  1  0
 24 49  1  0
 27 50  1  0
M  END
$$$$
