
     RDKit          3D

 54 56  0  0  0  0  0  0  0  0999 V2000
    1.0834   -2.8879   -2.6078 C   0  0  0  0  0  0  0  0  0  0  0  0
    2.1184   -1.9734   -2.0081 C   0  0  0  0  0  0  0  0  0  0  0  0
    3.4436   -2.0779   -2.4536 C   0  0  0  0  0  0  0  0  0  0  0  0
    3.7616   -2.9757   -3.3981 F   0  0  0  0  0  0  0  0  0  0  0  0
    4.4606   -1.2736   -1.9510 C   0  0  0  0  0  0  0  0  0  0  0  0
    4.1628   -0.3286   -0.9728 C   0  0  0  0  0  0  0  0  0  0  0  0
    5.1967    0.5727   -0.3895 C   0  0  0  0  0  0  0  0  0  0  0  0
    5.0064    1.0840    0.7098 O   0  0  0  0  0  0  0  0  0  0  0  0
    6.3173    0.8142   -1.1629 N   0  0  0  0  0  0  0  0  0  0  0  0
    7.3686    1.6749   -0.7184 C   0  0  0  0  0  0  0  0  0  0  0  0
    8.6731    1.7395   -1.4643 C   0  0  0  0  0  0  0  0  0  0  0  0
    8.6154    1.0954   -0.1109 C   0  0  0  0  0  0  0  0  0  0  0  0
    2.8495   -0.2349   -0.4865 C   0  0  0  0  0  0  0  0  0  0  0  0
    1.8079   -1.0485   -0.9843 C   0  0  0  0  0  0  0  0  0  0  0  0
    0.4538   -0.9134   -0.4154 C   0  0  0  0  0  0  0  0  0  0  0  0
   -0.1921    0.3202   -0.3161 C   0  0  0  0  0  0  0  0  0  0  0  0
   -1.4696    0.3829    0.2451 C   0  0  0  0  0  0  0  0  0  0  0  0
   -2.0723   -0.7884    0.7024 C   0  0  0  0  0  0  0  0  0  0  0  0
   -3.4274   -0.8322    1.2982 C   0  0  0  0  0  0  0  0  0  0  0  0
   -4.0862   -1.8629    1.2296 O   0  0  0  0  0  0  0  0  0  0  0  0
   -3.8648    0.3186    1.9200 N   0  0  0  0  0  0  0  0  0  0  0  0
   -5.1815    0.4206    2.5241 C   0  0  0  0  0  0  0  0  0  0  0  0
   -6.2036    1.1888    1.6508 C   0  0  0  0  0  0  0  0  0  0  0  0
   -6.4589    0.4544    0.3237 C   0  0  0  0  0  0  0  0  0  0  0  0
   -5.7072    2.6154    1.3568 C   0  0  0  0  0  0  0  0  0  0  0  0
   -7.5307    1.2788    2.4262 C   0  0  0  0  0  0  0  0  0  0  0  0
   -1.3717   -1.9763    0.5503 C   0  0  0  0  0  0  0  0  0  0  0  0
   -0.1271   -2.0601    0.0136 N   0  0  0  0  0  0  0  0  0  0  0  0
    0.9137   -3.7482   -1.9527 H   0  0  0  0  0  0  0  0  0  0  0  0
    0.1388   -2.3595   -2.7748 H   0  0  0  0  0  0  0  0  0  0  0  0
    1.4019   -3.2622   -3.5870 H   0  0  0  0  0  0  0  0  0  0  0  0
    5.4670   -1.4314   -2.3213 H   0  0  0  0  0  0  0  0  0  0  0  0
    6.3365    0.5140   -2.1280 H   0  0  0  0  0  0  0  0  0  0  0  0
    7.0057    2.6071   -0.2901 H   0  0  0  0  0  0  0  0  0  0  0  0
    9.1608    2.7039   -1.5446 H   0  0  0  0  0  0  0  0  0  0  0  0
    8.8213    1.0950   -2.3222 H   0  0  0  0  0  0  0  0  0  0  0  0
    8.7040    0.0173   -0.0514 H   0  0  0  0  0  0  0  0  0  0  0  0
    9.0539    1.6220    0.7291 H   0  0  0  0  0  0  0  0  0  0  0  0
    2.6397    0.4755    0.3147 H   0  0  0  0  0  0  0  0  0  0  0  0
    0.2806    1.2248   -0.6864 H   0  0  0  0  0  0  0  0  0  0  0  0
   -1.9814    1.3388    0.2868 H   0  0  0  0  0  0  0  0  0  0  0  0
   -3.2302    1.0928    2.0563 H   0  0  0  0  0  0  0  0  0  0  0  0
   -5.0397    0.9369    3.4806 H   0  0  0  0  0  0  0  0  0  0  0  0
   -5.5563   -0.5842    2.7511 H   0  0  0  0  0  0  0  0  0  0  0  0
   -5.5594    0.4213   -0.3002 H   0  0  0  0  0  0  0  0  0  0  0  0
   -7.2395    0.9544   -0.2597 H   0  0  0  0  0  0  0  0  0  0  0  0
   -6.7851   -0.5760    0.5009 H   0  0  0  0  0  0  0  0  0  0  0  0
   -4.7904    2.6089    0.7573 H   0  0  0  0  0  0  0  0  0  0  0  0
   -5.4969    3.1596    2.2856 H   0  0  0  0  0  0  0  0  0  0  0  0
   -6.4576    3.1881    0.7985 H   0  0  0  0  0  0  0  0  0  0  0  0
   -7.9249    0.2809    2.6542 H   0  0  0  0  0  0  0  0  0  0  0  0
   -7.3988    1.8107    3.3762 H   0  0  0  0  0  0  0  0  0  0  0  0
   -8.2931    1.8148    1.8486 H   0  0  0  0  0  0  0  0  0  0  0  0
   -1.7967   -2.9260    0.8673 H   0  0  0  0  0  0  0  0  0  0  0  0
  1  2  1  0
  2  3  2  0
  3  4  1  0
  3  5  1  0
  5  6  2  0
  6  7  1  0
  7  8  2  0
  7  9  1  0
  9 10  1  0
 10 11  1  0
 11 12  1  0
  6 13  1  0
 13 14  2  0
 14 15  1  0
 15 16  2  0
 16 17  1  0
 17 18  2  0
 18 19  1  0
 19 20  2  0
 19 21  1  0
 21 22  1  0
 22 23  1  0
 23 24  1  0
 23 25  1  0
 23 26  1  0
 18 27  1  0
 27 28  2  0
 14  2  1  0
 28 15  1  0
 12 10  1  0
  1 29  1  0
  1 30  1  0
  1 31  1  0
  5 32  1  0
  9 33  1  0
 10 34  1  0
 11 35  1  0
 11 36  1  0
 12 37  1  0
 12 38  1  0
 13 39  1  0
 16 40  1  0
 17 41  1  0
 21 42  1  0
 22 43  1  0
 22 44  1  0
 24 45  1  0
 24 46  1  0
 24 47  1  0
 25 48  1  0
 25 49  1  0
 25 50  1  0
 26 51  1  0
 26 52  1  0
 26 53  1  0
 27 54  1  0
M  END
$$$$
