
     RDKit          3D

 51 54  0  0  0  0  0  0  0  0999 V2000
   -5.9791    0.1368   -2.5362 C   0  0  0  0  0  0  0  0  0  0  0  0
   -5.1430   -0.7173   -1.7022 N   0  0  0  0  0  0  0  0  0  0  0  0
   -5.5020   -0.6271   -0.2841 C   0  0  0  0  0  0  0  0  0  0  0  0
   -5.0215    0.6596    0.3984 C   0  0  0  0  0  0  0  0  0  0  0  0
   -3.5108    0.9018    0.2045 C   0  0  0  0  0  0  0  0  0  0  0  0
   -2.6820   -0.0649    1.0693 C   0  0  0  0  0  0  0  0  0  0  0  0
   -1.3051    0.3840    1.1656 N   0  0  0  0  0  0  0  0  0  0  0  0
   -0.2972   -0.3221    1.7748 C   0  0  0  0  0  0  0  0  0  0  0  0
   -0.5562   -1.2480    2.9201 C   0  0  0  0  0  0  0  0  0  0  0  0
    0.4759   -1.9109    3.4539 C   0  0  0  0  0  0  0  0  0  0  0  0
    1.7681   -1.7167    2.9260 C   0  0  0  0  0  0  0  0  0  0  0  0
    2.9196   -2.2547    3.2613 N   0  0  0  0  0  0  0  0  0  0  0  0
    3.8283   -1.6922    2.4035 C   0  0  0  0  0  0  0  0  0  0  0  0
    3.2387   -0.7906    1.5307 C   0  0  0  0  0  0  0  0  0  0  0  0
    3.8352    0.0190    0.4652 C   0  0  0  0  0  0  0  0  0  0  0  0
    3.4408    1.3448    0.2440 C   0  0  0  0  0  0  0  0  0  0  0  0
    4.0405    2.1085   -0.7595 C   0  0  0  0  0  0  0  0  0  0  0  0
    5.0539    1.5660   -1.5477 C   0  0  0  0  0  0  0  0  0  0  0  0
    5.4855    0.2595   -1.3187 C   0  0  0  0  0  0  0  0  0  0  0  0
    6.4797   -0.3719   -2.0161 O   0  0  0  0  0  0  0  0  0  0  0  0
    7.5840    0.4374   -2.3955 C   0  0  0  0  0  0  0  0  0  0  0  0
    8.0198    1.1927   -1.3617 F   0  0  0  0  0  0  0  0  0  0  0  0
    8.5977   -0.3722   -2.7826 F   0  0  0  0  0  0  0  0  0  0  0  0
    7.2717    1.2399   -3.4389 F   0  0  0  0  0  0  0  0  0  0  0  0
    4.8617   -0.5134   -0.3309 C   0  0  0  0  0  0  0  0  0  0  0  0
    1.8979   -0.8195    1.8773 N   0  0  0  0  0  0  0  0  0  0  0  0
    0.8926   -0.1106    1.2761 N   0  0  0  0  0  0  0  0  0  0  0  0
   -3.1717    0.7996   -1.2946 C   0  0  0  0  0  0  0  0  0  0  0  0
   -3.7087   -0.4867   -1.9325 C   0  0  0  0  0  0  0  0  0  0  0  0
   -5.8857    1.1963   -2.2928 H   0  0  0  0  0  0  0  0  0  0  0  0
   -7.0333   -0.1457   -2.4346 H   0  0  0  0  0  0  0  0  0  0  0  0
   -5.7248    0.0089   -3.5905 H   0  0  0  0  0  0  0  0  0  0  0  0
   -5.0741   -1.4911    0.2333 H   0  0  0  0  0  0  0  0  0  0  0  0
   -6.5908   -0.7280   -0.1558 H   0  0  0  0  0  0  0  0  0  0  0  0
   -5.5725    1.5146   -0.0052 H   0  0  0  0  0  0  0  0  0  0  0  0
   -5.2686    0.6215    1.4670 H   0  0  0  0  0  0  0  0  0  0  0  0
   -3.2859    1.9261    0.5370 H   0  0  0  0  0  0  0  0  0  0  0  0
   -2.7131   -1.0813    0.6723 H   0  0  0  0  0  0  0  0  0  0  0  0
   -3.1092   -0.0942    2.0742 H   0  0  0  0  0  0  0  0  0  0  0  0
   -0.9449    0.8651    0.3442 H   0  0  0  0  0  0  0  0  0  0  0  0
   -1.5613   -1.3551    3.3013 H   0  0  0  0  0  0  0  0  0  0  0  0
    0.3484   -2.5924    4.2880 H   0  0  0  0  0  0  0  0  0  0  0  0
    4.8771   -1.9556    2.4575 H   0  0  0  0  0  0  0  0  0  0  0  0
    2.6681    1.7996    0.8591 H   0  0  0  0  0  0  0  0  0  0  0  0
    3.7108    3.1331   -0.9261 H   0  0  0  0  0  0  0  0  0  0  0  0
    5.4821    2.1858   -2.3310 H   0  0  0  0  0  0  0  0  0  0  0  0
    5.1983   -1.5374   -0.1732 H   0  0  0  0  0  0  0  0  0  0  0  0
   -3.6017    1.6655   -1.8100 H   0  0  0  0  0  0  0  0  0  0  0  0
   -2.0872    0.8608   -1.4604 H   0  0  0  0  0  0  0  0  0  0  0  0
   -3.4913   -0.4816   -3.0086 H   0  0  0  0  0  0  0  0  0  0  0  0
   -3.1551   -1.3458   -1.5418 H   0  0  0  0  0  0  0  0  0  0  0  0
  1  2  1  0
  2  3  1  0
  3  4  1  0
  4  5  1  0
  5  6  1  0
  6  7  1  0
  7  8  1  0
  8  9  1  0
  9 10  2  0
 10 11  1  0
 11 12  2  0
 12 13  1  0
 13 14  2  0
 14 15  1  0
 15 16  2  0
 16 17  1  0
 17 18  2  0
 18 19  1  0
 19 20  1  0
 20 21  1  0
 21 22  1  0
 21 23  1  0
 21 24  1  0
 19 25  2  0
 14 26  1  0
 26 27  1  0
  5 28  1  0
 28 29  1  0
 29  2  1  0
 27  8  2  0
 26 11  1  0
 25 15  1  0
  1 30  1  0
  1 31  1  0
  1 32  1  0
  3 33  1  0
  3 34  1  0
  4 35  1  0
  4 36  1  0
  5 37  1  0
  6 38  1  0
  6 39  1  0
  7 40  1  0
  9 41  1  0
 10 42  1  0
 13 43  1  0
 16 44  1  0
 17 45  1  0
 18 46  1  0
 25 47  1  0
 28 48  1  0
 28 49  1  0
 29 50  1  0
 29 51  1  0
M  END
$$$$
