
     RDKit          3D

 34 36  0  0  0  0  0  0  0  0999 V2000
   -5.2357    1.3961    0.6789 C   0  0  0  0  0  0  0  0  0  0  0  0
   -3.9647    0.6030    0.7576 C   0  0  0  0  0  0  0  0  0  0  0  0
   -2.7269    1.2520    0.8223 C   0  0  0  0  0  0  0  0  0  0  0  0
   -1.5402    0.5143    0.8653 C   0  0  0  0  0  0  0  0  0  0  0  0
   -1.5750   -0.8831    0.8258 C   0  0  0  0  0  0  0  0  0  0  0  0
   -0.0837   -1.8634    0.8918 S   0  0  0  0  0  0  0  0  0  0  0  0
    0.8767   -1.1473   -0.4516 C   0  0  0  0  0  0  0  0  0  0  0  0
    0.3854   -1.3729   -1.7465 C   0  0  0  0  0  0  0  0  0  0  0  0
    1.0503   -0.8504   -2.8439 C   0  0  0  0  0  0  0  0  0  0  0  0
    2.2092   -0.1052   -2.6475 C   0  0  0  0  0  0  0  0  0  0  0  0
    2.7327    0.1297   -1.3838 C   0  0  0  0  0  0  0  0  0  0  0  0
    3.8494    0.8581   -1.3290 N   0  0  0  0  0  0  0  0  0  0  0  0
    4.3857    1.0770   -0.1330 C   0  0  0  0  0  0  0  0  0  0  0  0
    5.5349    1.8374   -0.0765 N   0  0  0  0  0  0  0  0  0  0  0  0
    3.8714    0.6559    1.0137 N   0  0  0  0  0  0  0  0  0  0  0  0
    2.7447   -0.0692    0.9560 C   0  0  0  0  0  0  0  0  0  0  0  0
    2.2876   -0.5168    2.2063 N   0  0  0  0  0  0  0  0  0  0  0  0
    2.0842   -0.3919   -0.2533 C   0  0  0  0  0  0  0  0  0  0  0  0
   -2.8108   -1.5327    0.7570 C   0  0  0  0  0  0  0  0  0  0  0  0
   -3.9971   -0.7950    0.7144 C   0  0  0  0  0  0  0  0  0  0  0  0
   -5.4816    1.6056   -0.3666 H   0  0  0  0  0  0  0  0  0  0  0  0
   -5.1380    2.3448    1.2170 H   0  0  0  0  0  0  0  0  0  0  0  0
   -6.0669    0.8484    1.1355 H   0  0  0  0  0  0  0  0  0  0  0  0
   -2.6773    2.3388    0.8436 H   0  0  0  0  0  0  0  0  0  0  0  0
   -0.5964    1.0495    0.9281 H   0  0  0  0  0  0  0  0  0  0  0  0
   -0.5216   -1.9527   -1.9072 H   0  0  0  0  0  0  0  0  0  0  0  0
    0.6721   -1.0182   -3.8490 H   0  0  0  0  0  0  0  0  0  0  0  0
    2.7267    0.3038   -3.5141 H   0  0  0  0  0  0  0  0  0  0  0  0
    5.6138    2.2553    0.8406 H   0  0  0  0  0  0  0  0  0  0  0  0
    5.5844    2.4502   -0.8770 H   0  0  0  0  0  0  0  0  0  0  0  0
    2.3049   -1.5342    2.2140 H   0  0  0  0  0  0  0  0  0  0  0  0
    1.3131   -0.2537    2.3275 H   0  0  0  0  0  0  0  0  0  0  0  0
   -2.8637   -2.6188    0.7326 H   0  0  0  0  0  0  0  0  0  0  0  0
   -4.9475   -1.3208    0.6510 H   0  0  0  0  0  0  0  0  0  0  0  0
  1  2  1  0
  2  3  2  0
  3  4  1  0
  4  5  2  0
  5  6  1  0
  6  7  1  0
  7  8  2  0
  8  9  1  0
  9 10  2  0
 10 11  1  0
 11 12  2  0
 12 13  1  0
 13 14  1  0
 13 15  2  0
 15 16  1  0
 16 17  1  0
 16 18  2  0
  5 19  1  0
 19 20  2  0
 20  2  1  0
 18  7  1  0
 18 11  1  0
  1 21  1  0
  1 22  1  0
  1 23  1  0
  3 24  1  0
  4 25  1  0
  8 26  1  0
  9 27  1  0
 10 28  1  0
 14 29  1  0
 14 30  1  0
 17 31  1  0
 17 32  1  0
 19 33  1  0
 20 34  1  0
M  END
$$$$
