
     RDKit          3D

 50 53  0  0  0  0  0  0  0  0999 V2000
   -3.0825   -2.7915    2.2140 C   0  0  0  0  0  0  0  0  0  0  0  0
   -1.9205   -2.0446    1.6196 C   0  0  0  0  0  0  0  0  0  0  0  0
   -0.8955   -1.6343    2.4957 C   0  0  0  0  0  0  0  0  0  0  0  0
    0.2437   -0.9748    2.0275 C   0  0  0  0  0  0  0  0  0  0  0  0
    0.3914   -0.7347    0.6614 C   0  0  0  0  0  0  0  0  0  0  0  0
    1.5790   -0.0249    0.1160 C   0  0  0  0  0  0  0  0  0  0  0  0
    1.3975    0.7718   -0.7960 O   0  0  0  0  0  0  0  0  0  0  0  0
    2.7820   -0.3766    0.6980 N   0  0  0  0  0  0  0  0  0  0  0  0
    4.0566    0.1586    0.4125 C   0  0  0  0  0  0  0  0  0  0  0  0
    5.1570   -0.4255    1.0810 C   0  0  0  0  0  0  0  0  0  0  0  0
    6.4616    0.0363    0.8720 C   0  0  0  0  0  0  0  0  0  0  0  0
    6.6346    1.0810   -0.0061 C   0  0  0  0  0  0  0  0  0  0  0  0
    5.5709    1.6568   -0.6577 C   0  0  0  0  0  0  0  0  0  0  0  0
    4.2733    1.2213   -0.4707 C   0  0  0  0  0  0  0  0  0  0  0  0
    5.9564    2.6737   -1.4760 O   0  0  0  0  0  0  0  0  0  0  0  0
    7.3835    2.6635   -1.2707 C   0  0  0  0  0  0  0  0  0  0  0  0
    7.8208    1.6589   -0.3314 O   0  0  0  0  0  0  0  0  0  0  0  0
   -0.6150   -1.1265   -0.2241 C   0  0  0  0  0  0  0  0  0  0  0  0
   -1.7811   -1.7545    0.2471 C   0  0  0  0  0  0  0  0  0  0  0  0
   -2.9908   -2.2034   -1.0032 S   0  0  0  0  0  6  0  0  0  0  0  0
   -2.2431   -2.6440   -2.1626 O   0  0  0  0  0  0  0  0  0  0  0  0
   -3.9914   -3.0620   -0.4082 O   0  0  0  0  0  0  0  0  0  0  0  0
   -3.7388   -0.7285   -1.3751 N   0  0  0  0  0  0  0  0  0  0  0  0
   -4.6770   -0.1446   -0.3910 C   0  0  0  0  0  0  0  0  0  0  0  0
   -4.3979    1.3355   -0.1616 C   0  0  0  0  0  0  0  0  0  0  0  0
   -4.4710    2.1381   -1.4589 C   0  0  0  0  0  0  0  0  0  0  0  0
   -3.9861    1.3411   -2.6694 C   0  0  0  0  0  0  0  0  0  0  0  0
   -3.0332    0.2230   -2.2610 C   0  0  0  0  0  0  0  0  0  0  0  0
   -2.9955   -2.8631    3.3043 H   0  0  0  0  0  0  0  0  0  0  0  0
   -4.0263   -2.2792    2.0139 H   0  0  0  0  0  0  0  0  0  0  0  0
   -3.1121   -3.8168    1.8334 H   0  0  0  0  0  0  0  0  0  0  0  0
   -0.9813   -1.8263    3.5652 H   0  0  0  0  0  0  0  0  0  0  0  0
    0.9917   -0.6399    2.7416 H   0  0  0  0  0  0  0  0  0  0  0  0
    2.7668   -1.1483    1.3524 H   0  0  0  0  0  0  0  0  0  0  0  0
    5.0088   -1.2519    1.7720 H   0  0  0  0  0  0  0  0  0  0  0  0
    7.3073   -0.4113    1.3812 H   0  0  0  0  0  0  0  0  0  0  0  0
    3.4723    1.7142   -1.0071 H   0  0  0  0  0  0  0  0  0  0  0  0
    7.6915    3.6477   -0.8994 H   0  0  0  0  0  0  0  0  0  0  0  0
    7.8755    2.4812   -2.2332 H   0  0  0  0  0  0  0  0  0  0  0  0
   -0.4805   -0.9422   -1.2896 H   0  0  0  0  0  0  0  0  0  0  0  0
   -4.6187   -0.6609    0.5696 H   0  0  0  0  0  0  0  0  0  0  0  0
   -5.6966   -0.2835   -0.7690 H   0  0  0  0  0  0  0  0  0  0  0  0
   -3.3977    1.4498    0.2761 H   0  0  0  0  0  0  0  0  0  0  0  0
   -5.1054    1.7471    0.5670 H   0  0  0  0  0  0  0  0  0  0  0  0
   -5.5012    2.4678   -1.6395 H   0  0  0  0  0  0  0  0  0  0  0  0
   -3.8717    3.0494   -1.3459 H   0  0  0  0  0  0  0  0  0  0  0  0
   -4.8537    0.9072   -3.1833 H   0  0  0  0  0  0  0  0  0  0  0  0
   -3.5012    2.0141   -3.3854 H   0  0  0  0  0  0  0  0  0  0  0  0
   -2.1610    0.6490   -1.7570 H   0  0  0  0  0  0  0  0  0  0  0  0
   -2.6957   -0.2935   -3.1653 H   0  0  0  0  0  0  0  0  0  0  0  0
  1  2  1  0
  2  3  2  0
  3  4  1  0
  4  5  2  0
  5  6  1  0
  6  7  2  0
  6  8  1  0
  8  9  1  0
  9 10  2  0
 10 11  1  0
 11 12  2  0
 12 13  1  0
 13 14  2  0
 13 15  1  0
 15 16  1  0
 16 17  1  0
  5 18  1  0
 18 19  2  0
 19 20  1  0
 20 21  2  0
 20 22  2  0
 20 23  1  0
 23 24  1  0
 24 25  1  0
 25 26  1  0
 26 27  1  0
 27 28  1  0
 19  2  1  0
 28 23  1  0
 14  9  1  0
 17 12  1  0
  1 29  1  0
  1 30  1  0
  1 31  1  0
  3 32  1  0
  4 33  1  0
  8 34  1  0
 10 35  1  0
 11 36  1  0
 14 37  1  0
 16 38  1  0
 16 39  1  0
 18 40  1  0
 24 41  1  0
 24 42  1  0
 25 43  1  0
 25 44  1  0
 26 45  1  0
 26 46  1  0
 27 47  1  0
 27 48  1  0
 28 49  1  0
 28 50  1  0
M  END
$$$$
