
     RDKit          3D

 44 46  0  0  0  0  0  0  0  0999 V2000
   -3.0256   -3.7422    1.3927 C   0  0  0  0  0  0  0  0  0  0  0  0
   -2.6377   -3.4211   -0.0436 C   0  0  0  0  0  0  0  0  0  0  0  0
   -1.8980   -2.1486   -0.1208 N   0  0  0  0  0  0  0  0  0  0  0  0
   -0.5103   -2.1367   -0.0610 C   0  0  0  0  0  0  0  0  0  0  0  0
    0.2906   -1.0616   -0.1056 C   0  0  0  0  0  0  0  0  0  0  0  0
    1.7750   -1.2629   -0.0303 C   0  0  0  0  0  0  0  0  0  0  0  0
    2.2257   -2.3995    0.0789 O   0  0  0  0  0  0  0  0  0  0  0  0
    2.4929   -0.0904   -0.0957 N   0  0  0  0  0  0  0  0  0  0  0  0
    3.8894    0.0355   -0.0492 C   0  0  0  0  0  0  0  0  0  0  0  0
    4.6472   -1.0716    0.0725 N   0  0  0  0  0  0  0  0  0  0  0  0
    5.9875   -0.9337    0.1159 C   0  0  0  0  0  0  0  0  0  0  0  0
    6.6342    0.2825    0.0427 C   0  0  0  0  0  0  0  0  0  0  0  0
    5.8542    1.4238   -0.0826 C   0  0  0  0  0  0  0  0  0  0  0  0
    4.4563    1.3172   -0.1310 C   0  0  0  0  0  0  0  0  0  0  0  0
    3.6337    2.5664   -0.2669 C   0  0  0  0  0  0  0  0  0  0  0  0
   -0.3801    0.2544   -0.2276 C   0  0  0  0  0  0  0  0  0  0  0  0
    0.2726    1.2958   -0.2935 O   0  0  0  0  0  0  0  0  0  0  0  0
   -1.8645    0.2870   -0.2619 C   0  0  0  0  0  0  0  0  0  0  0  0
   -2.5014    1.5389   -0.3502 C   0  0  0  0  0  0  0  0  0  0  0  0
   -3.8886    1.6117   -0.3767 C   0  0  0  0  0  0  0  0  0  0  0  0
   -4.6370    2.7515   -0.4590 O   0  0  0  0  0  0  0  0  0  0  0  0
   -3.9294    3.9839   -0.5301 C   0  0  0  0  0  0  0  0  0  0  0  0
   -4.6248    0.4309   -0.3129 C   0  0  0  0  0  0  0  0  0  0  0  0
   -3.9885   -0.8150   -0.2263 C   0  0  0  0  0  0  0  0  0  0  0  0
   -2.5909   -0.9216   -0.2010 C   0  0  0  0  0  0  0  0  0  0  0  0
   -3.6834   -2.9767    1.8154 H   0  0  0  0  0  0  0  0  0  0  0  0
   -3.5500   -4.7018    1.4369 H   0  0  0  0  0  0  0  0  0  0  0  0
   -2.1394   -3.8099    2.0327 H   0  0  0  0  0  0  0  0  0  0  0  0
   -2.0080   -4.2370   -0.4229 H   0  0  0  0  0  0  0  0  0  0  0  0
   -3.5160   -3.4232   -0.6984 H   0  0  0  0  0  0  0  0  0  0  0  0
   -0.0768   -3.1323    0.0304 H   0  0  0  0  0  0  0  0  0  0  0  0
    1.9574    0.7678   -0.1876 H   0  0  0  0  0  0  0  0  0  0  0  0
    6.5414   -1.8625    0.2146 H   0  0  0  0  0  0  0  0  0  0  0  0
    7.7156    0.3401    0.0821 H   0  0  0  0  0  0  0  0  0  0  0  0
    6.3390    2.3950   -0.1424 H   0  0  0  0  0  0  0  0  0  0  0  0
    4.2643    3.4608   -0.3147 H   0  0  0  0  0  0  0  0  0  0  0  0
    2.9691    2.6813    0.5955 H   0  0  0  0  0  0  0  0  0  0  0  0
    3.0415    2.5350   -1.1871 H   0  0  0  0  0  0  0  0  0  0  0  0
   -1.8885    2.4336   -0.3946 H   0  0  0  0  0  0  0  0  0  0  0  0
   -4.6672    4.7895   -0.5937 H   0  0  0  0  0  0  0  0  0  0  0  0
   -3.3329    4.1487    0.3732 H   0  0  0  0  0  0  0  0  0  0  0  0
   -3.3070    4.0301   -1.4299 H   0  0  0  0  0  0  0  0  0  0  0  0
   -5.7120    0.4759   -0.3300 H   0  0  0  0  0  0  0  0  0  0  0  0
   -4.6297   -1.6889   -0.1745 H   0  0  0  0  0  0  0  0  0  0  0  0
  1  2  1  0
  2  3  1  0
  3  4  1  0
  4  5  2  0
  5  6  1  0
  6  7  2  0
  6  8  1  0
  8  9  1  0
  9 10  2  0
 10 11  1  0
 11 12  2  0
 12 13  1  0
 13 14  2  0
 14 15  1  0
  5 16  1  0
 16 17  2  0
 16 18  1  0
 18 19  2  0
 19 20  1  0
 20 21  1  0
 21 22  1  0
 20 23  2  0
 23 24  1  0
 24 25  2  0
 25  3  1  0
 14  9  1  0
 25 18  1  0
  1 26  1  0
  1 27  1  0
  1 28  1  0
  2 29  1  0
  2 30  1  0
  4 31  1  0
  8 32  1  0
 11 33  1  0
 12 34  1  0
 13 35  1  0
 15 36  1  0
 15 37  1  0
 15 38  1  0
 19 39  1  0
 22 40  1  0
 22 41  1  0
 22 42  1  0
 23 43  1  0
 24 44  1  0
M  END
$$$$
