
     RDKit          3D

 78 85  0  0  0  0  0  0  0  0999 V2000
   -7.8724   -0.2263   -2.5405 C   0  0  0  0  0  0  0  0  0  0  0  0
   -7.7281    0.6089   -1.3923 O   0  0  0  0  0  0  0  0  0  0  0  0
   -6.5873    0.3981   -0.6589 C   0  0  0  0  0  0  0  0  0  0  0  0
   -5.4123   -0.1778   -1.1489 C   0  0  0  0  0  0  0  0  0  0  0  0
   -4.2797   -0.3145   -0.3296 C   0  0  0  0  0  0  0  0  0  0  0  0
   -3.0284   -0.9941   -0.8992 C   0  0  2  0  0  0  0  0  0  0  0  0
   -2.2242   -1.7401    0.1835 C   0  0  0  0  0  0  0  0  0  0  0  0
   -2.7972   -2.8998    0.7476 C   0  0  0  0  0  0  0  0  0  0  0  0
   -2.1265   -3.5350    1.7641 C   0  0  0  0  0  0  0  0  0  0  0  0
   -0.9273   -3.0665    2.2379 C   0  0  0  0  0  0  0  0  0  0  0  0
   -0.3293   -1.9364    1.7218 C   0  0  0  0  0  0  0  0  0  0  0  0
   -0.9670   -1.2493    0.6687 C   0  0  0  0  0  0  0  0  0  0  0  0
   -0.2809   -0.0317    0.0463 C   0  0  1  0  0  0  0  0  0  0  0  0
    0.6935   -0.5295   -0.8770 O   0  0  0  0  0  0  0  0  0  0  0  0
    2.0342   -0.4670   -0.3862 C   0  0  2  0  0  0  0  0  0  0  0  0
    2.5385    0.8570   -0.6315 O   0  0  0  0  0  0  0  0  0  0  0  0
    3.9054    0.9553   -0.2432 C   0  0  2  0  0  0  0  0  0  0  0  0
    4.4319    2.3829   -0.3152 C   0  0  0  0  0  0  0  0  0  0  0  0
    5.3729    2.5370   -1.3853 O   0  0  0  0  0  0  0  0  0  0  0  0
    6.4782    1.6159   -1.3293 C   0  0  1  0  0  0  0  0  0  0  0  0
    7.5213    2.1663   -0.3968 C   0  0  0  0  0  0  0  0  0  0  0  0
    7.7823    1.8450    0.9215 C   0  0  0  0  0  0  0  0  0  0  0  0
    8.8446    2.6094    1.4768 C   0  0  0  0  0  0  0  0  0  0  0  0
    9.3685    3.4986    0.5614 C   0  0  0  0  0  0  0  0  0  0  0  0
    8.5917    3.3909   -0.9547 S   0  0  0  0  0  0  0  0  0  0  0  0
    6.1198    0.2906   -0.8923 O   0  0  0  0  0  0  0  0  0  0  0  0
    4.7393    0.0684   -1.1628 C   0  0  1  0  0  0  0  0  0  0  0  0
    4.3566   -1.3816   -0.9055 C   0  0  2  0  0  0  0  0  0  0  0  0
    5.0626   -2.2592   -1.7983 O   0  0  0  0  0  0  0  0  0  0  0  0
    2.8474   -1.5618   -1.1197 C   0  0  1  0  0  0  0  0  0  0  0  0
    2.4702   -2.8579   -0.6172 O   0  0  0  0  0  0  0  0  0  0  0  0
   -1.2839    0.8076   -0.7312 C   0  0  1  0  0  0  0  0  0  0  0  0
   -0.7397    1.8231   -1.7014 C   0  0  0  0  0  0  0  0  0  0  0  0
   -1.8313    2.0452   -2.6121 O   0  0  0  0  0  0  0  0  0  0  0  0
   -2.6333    0.9381   -2.6308 C   0  0  0  0  0  0  0  0  0  0  0  0
   -3.5917    0.8028   -3.3753 O   0  0  0  0  0  0  0  0  0  0  0  0
   -2.0797   -0.0766   -1.6714 C   0  0  2  0  0  0  0  0  0  0  0  0
   -0.4308   -3.8255    3.2508 O   0  0  0  0  0  0  0  0  0  0  0  0
   -1.4735   -4.8277    3.3666 C   0  0  0  0  0  0  0  0  0  0  0  0
   -2.5501   -4.6513    2.4209 O   0  0  0  0  0  0  0  0  0  0  0  0
   -4.3443    0.1631    0.9939 C   0  0  0  0  0  0  0  0  0  0  0  0
   -5.5118    0.7357    1.5042 C   0  0  0  0  0  0  0  0  0  0  0  0
   -5.6590    1.1924    2.7853 O   0  0  0  0  0  0  0  0  0  0  0  0
   -4.4700    1.4575    3.5152 C   0  0  0  0  0  0  0  0  0  0  0  0
   -6.6271    0.8315    0.6680 C   0  0  0  0  0  0  0  0  0  0  0  0
   -7.7956    1.3646    1.1520 O   0  0  0  0  0  0  0  0  0  0  0  0
   -7.7184   -1.2785   -2.2829 H   0  0  0  0  0  0  0  0  0  0  0  0
   -7.2001    0.0935   -3.3426 H   0  0  0  0  0  0  0  0  0  0  0  0
   -8.8906   -0.1095   -2.9034 H   0  0  0  0  0  0  0  0  0  0  0  0
   -5.3561   -0.5111   -2.1825 H   0  0  0  0  0  0  0  0  0  0  0  0
   -3.3727   -1.7658   -1.6046 H   0  0  0  0  0  0  0  0  0  0  0  0
   -3.7532   -3.2742    0.4040 H   0  0  0  0  0  0  0  0  0  0  0  0
    0.6171   -1.6098    2.1309 H   0  0  0  0  0  0  0  0  0  0  0  0
    0.1677    0.6014    0.8214 H   0  0  0  0  0  0  0  0  0  0  0  0
    2.0614   -0.6732    0.6891 H   0  0  0  0  0  0  0  0  0  0  0  0
    3.9810    0.6337    0.8007 H   0  0  0  0  0  0  0  0  0  0  0  0
    3.6292    3.1094   -0.4630 H   0  0  0  0  0  0  0  0  0  0  0  0
    4.9256    2.6449    0.6222 H   0  0  0  0  0  0  0  0  0  0  0  0
    6.8745    1.5221   -2.3451 H   0  0  0  0  0  0  0  0  0  0  0  0
    7.2267    1.0933    1.4673 H   0  0  0  0  0  0  0  0  0  0  0  0
    9.1951    2.5250    2.4965 H   0  0  0  0  0  0  0  0  0  0  0  0
   10.1728    4.2042    0.7114 H   0  0  0  0  0  0  0  0  0  0  0  0
    4.5541    0.2893   -2.2233 H   0  0  0  0  0  0  0  0  0  0  0  0
    4.6512   -1.6965    0.1024 H   0  0  0  0  0  0  0  0  0  0  0  0
    5.9974   -1.9656   -1.7873 H   0  0  0  0  0  0  0  0  0  0  0  0
    2.6049   -1.5474   -2.1904 H   0  0  0  0  0  0  0  0  0  0  0  0
    2.7646   -3.4966   -1.2939 H   0  0  0  0  0  0  0  0  0  0  0  0
   -1.9567    1.3215   -0.0341 H   0  0  0  0  0  0  0  0  0  0  0  0
    0.1254    1.4824   -2.2759 H   0  0  0  0  0  0  0  0  0  0  0  0
   -0.4838    2.7673   -1.2166 H   0  0  0  0  0  0  0  0  0  0  0  0
   -1.3973   -0.6968   -2.2753 H   0  0  0  0  0  0  0  0  0  0  0  0
   -1.8856   -4.7894    4.3817 H   0  0  0  0  0  0  0  0  0  0  0  0
   -1.0256   -5.8197    3.1998 H   0  0  0  0  0  0  0  0  0  0  0  0
   -3.4770    0.0650    1.6414 H   0  0  0  0  0  0  0  0  0  0  0  0
   -4.7414    2.0005    4.4246 H   0  0  0  0  0  0  0  0  0  0  0  0
   -3.7803    2.0904    2.9446 H   0  0  0  0  0  0  0  0  0  0  0  0
   -3.9877    0.5249    3.8304 H   0  0  0  0  0  0  0  0  0  0  0  0
   -8.0986    1.9896    0.4725 H   0  0  0  0  0  0  0  0  0  0  0  0
  1  2  1  0
  2  3  1  0
  3  4  2  0
  4  5  1  0
  5  6  1  0
  6  7  1  0
  7  8  2  0
  8  9  1  0
  9 10  2  0
 10 11  1  0
 11 12  2  0
 12 13  1  0
 13 14  1  0
 14 15  1  0
 15 16  1  0
 16 17  1  0
 17 18  1  0
 18 19  1  0
 19 20  1  0
 20 21  1  0
 21 22  2  0
 22 23  1  0
 23 24  2  0
 24 25  1  0
 20 26  1  0
 26 27  1  0
 27 28  1  0
 28 29  1  0
 28 30  1  0
 30 31  1  0
 13 32  1  0
 32 33  1  0
 33 34  1  0
 34 35  1  0
 35 36  2  0
 35 37  1  0
 10 38  1  0
 38 39  1  0
 39 40  1  0
  5 41  2  0
 41 42  1  0
 42 43  1  0
 43 44  1  0
 42 45  2  0
 45 46  1  0
 45  3  1  0
 37  6  1  0
 12  7  1  0
 30 15  1  0
 37 32  1  0
 40  9  1  0
 27 17  1  0
 25 21  1  0
  1 47  1  0
  1 48  1  0
  1 49  1  0
  4 50  1  0
  6 51  1  6
  8 52  1  0
 11 53  1  0
 13 54  1  1
 15 55  1  1
 17 56  1  1
 18 57  1  0
 18 58  1  0
 20 59  1  6
 22 60  1  0
 23 61  1  0
 24 62  1  0
 27 63  1  6
 28 64  1  1
 29 65  1  0
 30 66  1  6
 31 67  1  0
 32 68  1  1
 33 69  1  0
 33 70  1  0
 37 71  1  6
 39 72  1  0
 39 73  1  0
 41 74  1  0
 44 75  1  0
 44 76  1  0
 44 77  1  0
 46 78  1  0
M  END
$$$$
