
     RDKit          3D

 67 70  0  0  0  0  0  0  0  0999 V2000
    9.3139    2.5431    1.0651 C   0  0  0  0  0  0  0  0  0  0  0  0
    7.9823    2.5219    0.4869 N   0  0  0  0  0  0  0  0  0  0  0  0
    6.9661    1.8047    1.1300 C   0  0  0  0  0  0  0  0  0  0  0  0
    6.9910    1.4746    2.4880 C   0  0  0  0  0  0  0  0  0  0  0  0
    5.9116    0.8215    3.0887 C   0  0  0  0  0  0  0  0  0  0  0  0
    4.7760    0.5010    2.3440 C   0  0  0  0  0  0  0  0  0  0  0  0
    4.7096    0.8408    0.9962 C   0  0  0  0  0  0  0  0  0  0  0  0
    3.5988    0.5697    0.1738 N   0  0  0  0  0  0  0  0  0  0  0  0
    2.5057   -0.2165    0.4618 C   0  0  0  0  0  0  0  0  0  0  0  0
    2.3165   -0.8782    1.4736 O   0  0  0  0  0  0  0  0  0  0  0  0
    1.6179   -0.2045   -0.5905 N   0  0  0  0  0  0  0  0  0  0  0  0
    0.3847   -0.9365   -0.4680 C   0  0  2  0  0  0  0  0  0  0  0  0
   -0.1735   -1.0107   -1.8104 N   0  0  0  0  0  0  0  0  0  0  0  0
   -1.1856   -1.8021   -1.9693 C   0  0  0  0  0  0  0  0  0  0  0  0
   -1.8231   -1.8406   -3.3096 C   0  0  0  0  0  0  0  0  0  0  0  0
   -2.8648   -0.9663   -3.5863 C   0  0  0  0  0  0  0  0  0  0  0  0
   -3.4275   -1.0127   -4.8571 C   0  0  0  0  0  0  0  0  0  0  0  0
   -2.9263   -1.9152   -5.7924 C   0  0  0  0  0  0  0  0  0  0  0  0
   -1.8785   -2.7449   -5.4170 C   0  0  0  0  0  0  0  0  0  0  0  0
   -1.3142   -2.7378   -4.1913 N   0  0  0  0  0  0  0  0  0  0  0  0
   -1.7942   -2.6580   -0.9071 C   0  0  0  0  0  0  0  0  0  0  0  0
   -2.1134   -3.9850   -1.2502 C   0  0  0  0  0  0  0  0  0  0  0  0
   -2.7314   -4.8286   -0.3310 C   0  0  0  0  0  0  0  0  0  0  0  0
   -3.0367   -4.3558    0.9375 C   0  0  0  0  0  0  0  0  0  0  0  0
   -2.7207   -3.0403    1.2894 C   0  0  0  0  0  0  0  0  0  0  0  0
   -2.0913   -2.1678    0.3830 C   0  0  0  0  0  0  0  0  0  0  0  0
   -1.7692   -0.8424    0.8151 N   0  0  0  0  0  0  0  0  0  0  0  0
   -2.7366   -0.0785    1.6042 C   0  0  0  0  0  0  0  0  0  0  0  0
   -3.6106    0.7837    0.6803 C   0  0  0  0  0  0  0  0  0  0  0  0
   -3.9194    0.3902   -0.4517 O   0  0  0  0  0  0  0  0  0  0  0  0
   -4.1555    2.1163    1.2385 C   0  0  0  0  0  0  0  0  0  0  0  0
   -4.9274    1.8548    2.5386 C   0  0  0  0  0  0  0  0  0  0  0  0
   -5.1181    2.7468    0.2149 C   0  0  0  0  0  0  0  0  0  0  0  0
   -3.0036    3.0986    1.4900 C   0  0  0  0  0  0  0  0  0  0  0  0
   -0.6397   -0.1369    0.3822 C   0  0  0  0  0  0  0  0  0  0  0  0
   -0.4876    1.0629    0.6431 O   0  0  0  0  0  0  0  0  0  0  0  0
    5.7953    1.5115    0.4104 C   0  0  0  0  0  0  0  0  0  0  0  0
    9.3302    3.0961    2.0092 H   0  0  0  0  0  0  0  0  0  0  0  0
    9.9944    3.0538    0.3770 H   0  0  0  0  0  0  0  0  0  0  0  0
    9.6993    1.5295    1.2216 H   0  0  0  0  0  0  0  0  0  0  0  0
    7.9932    2.3455   -0.5148 H   0  0  0  0  0  0  0  0  0  0  0  0
    7.8455    1.7225    3.1097 H   0  0  0  0  0  0  0  0  0  0  0  0
    5.9515    0.5675    4.1447 H   0  0  0  0  0  0  0  0  0  0  0  0
    3.9536    0.0027    2.8470 H   0  0  0  0  0  0  0  0  0  0  0  0
    3.6696    0.8453   -0.7939 H   0  0  0  0  0  0  0  0  0  0  0  0
    1.4980    0.6844   -1.0507 H   0  0  0  0  0  0  0  0  0  0  0  0
    0.6017   -1.9152   -0.0231 H   0  0  0  0  0  0  0  0  0  0  0  0
   -3.2190   -0.2632   -2.8405 H   0  0  0  0  0  0  0  0  0  0  0  0
   -4.2404   -0.3411   -5.1176 H   0  0  0  0  0  0  0  0  0  0  0  0
   -3.3380   -1.9653   -6.7945 H   0  0  0  0  0  0  0  0  0  0  0  0
   -1.4508   -3.4571   -6.1184 H   0  0  0  0  0  0  0  0  0  0  0  0
   -1.8709   -4.3803   -2.2351 H   0  0  0  0  0  0  0  0  0  0  0  0
   -2.9636   -5.8550   -0.6037 H   0  0  0  0  0  0  0  0  0  0  0  0
   -3.4992   -5.0172    1.6644 H   0  0  0  0  0  0  0  0  0  0  0  0
   -2.9266   -2.7377    2.3125 H   0  0  0  0  0  0  0  0  0  0  0  0
   -3.4037   -0.7139    2.1885 H   0  0  0  0  0  0  0  0  0  0  0  0
   -2.1878    0.5525    2.3065 H   0  0  0  0  0  0  0  0  0  0  0  0
   -5.3821    2.7747    2.9203 H   0  0  0  0  0  0  0  0  0  0  0  0
   -5.7259    1.1215    2.3806 H   0  0  0  0  0  0  0  0  0  0  0  0
   -4.2747    1.4604    3.3259 H   0  0  0  0  0  0  0  0  0  0  0  0
   -4.6086    2.9526   -0.7337 H   0  0  0  0  0  0  0  0  0  0  0  0
   -5.5278    3.6932    0.5843 H   0  0  0  0  0  0  0  0  0  0  0  0
   -5.9610    2.0804   -0.0022 H   0  0  0  0  0  0  0  0  0  0  0  0
   -2.3313    2.7521    2.2826 H   0  0  0  0  0  0  0  0  0  0  0  0
   -3.3851    4.0800    1.7975 H   0  0  0  0  0  0  0  0  0  0  0  0
   -2.3979    3.2402    0.5860 H   0  0  0  0  0  0  0  0  0  0  0  0
    5.7371    1.8081   -0.6336 H   0  0  0  0  0  0  0  0  0  0  0  0
  1  2  1  0
  2  3  1  0
  3  4  2  0
  4  5  1  0
  5  6  2  0
  6  7  1  0
  7  8  1  0
  8  9  1  0
  9 10  2  0
  9 11  1  0
 11 12  1  0
 12 13  1  0
 13 14  2  0
 14 15  1  0
 15 16  2  0
 16 17  1  0
 17 18  2  0
 18 19  1  0
 19 20  2  0
 14 21  1  0
 21 22  2  0
 22 23  1  0
 23 24  2  0
 24 25  1  0
 25 26  2  0
 26 27  1  0
 27 28  1  0
 28 29  1  0
 29 30  2  0
 29 31  1  0
 31 32  1  0
 31 33  1  0
 31 34  1  0
 27 35  1  0
 35 36  2  0
  7 37  2  0
 37  3  1  0
 35 12  1  0
 20 15  1  0
 26 21  1  0
  1 38  1  0
  1 39  1  0
  1 40  1  0
  2 41  1  0
  4 42  1  0
  5 43  1  0
  6 44  1  0
  8 45  1  0
 11 46  1  0
 12 47  1  1
 16 48  1  0
 17 49  1  0
 18 50  1  0
 19 51  1  0
 22 52  1  0
 23 53  1  0
 24 54  1  0
 25 55  1  0
 28 56  1  0
 28 57  1  0
 32 58  1  0
 32 59  1  0
 32 60  1  0
 33 61  1  0
 33 62  1  0
 33 63  1  0
 34 64  1  0
 34 65  1  0
 34 66  1  0
 37 67  1  0
M  END
$$$$
