
     RDKit          3D

 56 59  0  0  0  0  0  0  0  0999 V2000
   -3.0021    2.1955   -2.7800 C   0  0  0  0  0  0  0  0  0  0  0  0
   -2.3160    1.5098   -1.6419 C   0  0  0  0  0  0  0  0  0  0  0  0
   -1.2731    2.4014   -0.6344 S   0  0  0  0  0  0  0  0  0  0  0  0
   -0.8772    1.0403    0.2816 C   0  0  0  0  0  0  0  0  0  0  0  0
   -1.5958   -0.0896   -0.0700 C   0  0  0  0  0  0  0  0  0  0  0  0
   -2.3813    0.1737   -1.2724 C   0  0  0  0  0  0  0  0  0  0  0  0
   -3.1677   -0.8530   -2.0342 C   0  0  0  0  0  0  0  0  0  0  0  0
   -1.5629   -1.3540    0.6780 C   0  0  0  0  0  0  0  0  0  0  0  0
   -2.8579   -2.0467    0.9611 C   0  0  0  0  0  0  0  0  0  0  0  0
   -2.8902   -3.4482    0.9824 C   0  0  0  0  0  0  0  0  0  0  0  0
   -4.0844   -4.1190    1.2587 C   0  0  0  0  0  0  0  0  0  0  0  0
   -5.2419   -3.3901    1.5266 C   0  0  0  0  0  0  0  0  0  0  0  0
   -6.7127   -4.2153    1.8637 Cl  0  0  0  0  0  0  0  0  0  0  0  0
   -5.2150   -1.9958    1.5286 C   0  0  0  0  0  0  0  0  0  0  0  0
   -4.0221   -1.3215    1.2524 C   0  0  0  0  0  0  0  0  0  0  0  0
   -0.4894   -1.8948    1.1301 N   0  0  0  0  0  0  0  0  0  0  0  0
    0.8514   -1.3184    1.0127 C   0  0  1  0  0  0  0  0  0  0  0  0
    1.3781   -1.4135   -0.4150 C   0  0  0  0  0  0  0  0  0  0  0  0
    2.8480   -1.0966   -0.4581 C   0  0  0  0  0  0  0  0  0  0  0  0
    3.7271   -1.9340   -0.3221 O   0  0  0  0  0  0  0  0  0  0  0  0
    3.0235    0.2341   -0.6688 O   0  0  0  0  0  0  0  0  0  0  0  0
    4.3510    0.8184   -0.6818 C   0  0  0  0  0  0  0  0  0  0  0  0
    5.1765    0.2802   -1.8548 C   0  0  0  0  0  0  0  0  0  0  0  0
    5.0675    0.6225    0.6585 C   0  0  0  0  0  0  0  0  0  0  0  0
    4.1103    2.3207   -0.8941 C   0  0  0  0  0  0  0  0  0  0  0  0
    0.9291    0.0437    1.6223 C   0  0  0  0  0  0  0  0  0  0  0  0
    1.8160    0.4287    2.5143 N   0  0  0  0  0  0  0  0  0  0  0  0
    1.6536    1.7640    2.7208 N   0  0  0  0  0  0  0  0  0  0  0  0
    0.6605    2.1844    1.9636 C   0  0  0  0  0  0  0  0  0  0  0  0
    0.1474    3.5744    1.9851 C   0  0  0  0  0  0  0  0  0  0  0  0
    0.1425    1.1167    1.2362 N   0  0  0  0  0  0  0  0  0  0  0  0
   -3.0399    3.2817   -2.6466 H   0  0  0  0  0  0  0  0  0  0  0  0
   -2.4772    1.9836   -3.7172 H   0  0  0  0  0  0  0  0  0  0  0  0
   -4.0341    1.8419   -2.8756 H   0  0  0  0  0  0  0  0  0  0  0  0
   -3.1586   -0.6340   -3.1073 H   0  0  0  0  0  0  0  0  0  0  0  0
   -4.2087   -0.8643   -1.6981 H   0  0  0  0  0  0  0  0  0  0  0  0
   -2.7418   -1.8533   -1.9126 H   0  0  0  0  0  0  0  0  0  0  0  0
   -1.9869   -4.0226    0.7861 H   0  0  0  0  0  0  0  0  0  0  0  0
   -4.1017   -5.2060    1.2701 H   0  0  0  0  0  0  0  0  0  0  0  0
   -6.1159   -1.4296    1.7521 H   0  0  0  0  0  0  0  0  0  0  0  0
   -4.0143   -0.2346    1.2800 H   0  0  0  0  0  0  0  0  0  0  0  0
    1.4952   -1.9575    1.6336 H   0  0  0  0  0  0  0  0  0  0  0  0
    1.2474   -2.4305   -0.8061 H   0  0  0  0  0  0  0  0  0  0  0  0
    0.8571   -0.7608   -1.1230 H   0  0  0  0  0  0  0  0  0  0  0  0
    5.4289   -0.7765   -1.7247 H   0  0  0  0  0  0  0  0  0  0  0  0
    4.6147    0.3554   -2.7926 H   0  0  0  0  0  0  0  0  0  0  0  0
    6.1166    0.8312   -1.9667 H   0  0  0  0  0  0  0  0  0  0  0  0
    6.0062    1.1860    0.6933 H   0  0  0  0  0  0  0  0  0  0  0  0
    5.3093   -0.4281    0.8443 H   0  0  0  0  0  0  0  0  0  0  0  0
    4.4358    0.9515    1.4904 H   0  0  0  0  0  0  0  0  0  0  0  0
    5.0494    2.8829   -0.9263 H   0  0  0  0  0  0  0  0  0  0  0  0
    3.4871    2.7324   -0.0915 H   0  0  0  0  0  0  0  0  0  0  0  0
    3.5667    2.5001   -1.8291 H   0  0  0  0  0  0  0  0  0  0  0  0
    0.4444    4.1172    1.0834 H   0  0  0  0  0  0  0  0  0  0  0  0
   -0.9406    3.6007    2.0946 H   0  0  0  0  0  0  0  0  0  0  0  0
    0.5679    4.1149    2.8403 H   0  0  0  0  0  0  0  0  0  0  0  0
  1  2  1  0
  2  3  1  0
  3  4  1  0
  4  5  2  0
  5  6  1  0
  6  7  1  0
  5  8  1  0
  8  9  1  0
  9 10  2  0
 10 11  1  0
 11 12  2  0
 12 13  1  0
 12 14  1  0
 14 15  2  0
  8 16  2  0
 16 17  1  0
 17 18  1  0
 18 19  1  0
 19 20  2  0
 19 21  1  0
 21 22  1  0
 22 23  1  0
 22 24  1  0
 22 25  1  0
 17 26  1  0
 26 27  2  0
 27 28  1  0
 28 29  2  0
 29 30  1  0
 29 31  1  0
  6  2  2  0
 15  9  1  0
 31 26  1  0
 31  4  1  0
  1 32  1  0
  1 33  1  0
  1 34  1  0
  7 35  1  0
  7 36  1  0
  7 37  1  0
 10 38  1  0
 11 39  1  0
 14 40  1  0
 15 41  1  0
 17 42  1  1
 18 43  1  0
 18 44  1  0
 23 45  1  0
 23 46  1  0
 23 47  1  0
 24 48  1  0
 24 49  1  0
 24 50  1  0
 25 51  1  0
 25 52  1  0
 25 53  1  0
 30 54  1  0
 30 55  1  0
 30 56  1  0
M  END
$$$$
