
     RDKit          3D

 35 37  0  0  0  0  0  0  0  0999 V2000
   -3.0113   -2.3946    1.2152 O   0  0  0  0  0  0  0  0  0  0  0  0
   -2.2710   -1.5180    0.7778 C   0  0  0  0  0  0  0  0  0  0  0  0
   -0.7486   -1.6843    0.8355 C   0  0  0  0  0  0  0  0  0  0  0  0
   -0.1012   -0.5469    0.2723 O   0  0  0  0  0  0  0  0  0  0  0  0
    1.2684   -0.5261    0.2393 C   0  0  0  0  0  0  0  0  0  0  0  0
    2.0765   -1.5505    0.7263 C   0  0  0  0  0  0  0  0  0  0  0  0
    3.4663   -1.4442    0.6512 C   0  0  0  0  0  0  0  0  0  0  0  0
    4.0820   -0.3172    0.0903 C   0  0  0  0  0  0  0  0  0  0  0  0
    5.4841   -0.2449    0.0316 C   0  0  0  0  0  0  0  0  0  0  0  0
    6.1246    0.8623   -0.5200 C   0  0  0  0  0  0  0  0  0  0  0  0
    5.3700    1.9129   -1.0207 C   0  0  0  0  0  0  0  0  0  0  0  0
    3.9749    1.8549   -0.9691 C   0  0  0  0  0  0  0  0  0  0  0  0
    3.2904    0.7431   -0.4144 C   0  0  0  0  0  0  0  0  0  0  0  0
    1.8740    0.6154   -0.3284 C   0  0  0  0  0  0  0  0  0  0  0  0
    0.7278    2.0084   -0.9898 Br  0  0  0  0  0  0  0  0  0  0  0  0
   -2.6616   -0.3226    0.2026 N   0  0  0  0  0  0  0  0  0  0  0  0
   -3.9690    0.1531   -0.0088 C   0  0  0  0  0  0  0  0  0  0  0  0
   -5.1251   -0.5368    0.3440 C   0  0  0  0  0  0  0  0  0  0  0  0
   -6.3749    0.0292    0.0880 C   0  0  0  0  0  0  0  0  0  0  0  0
   -6.4284    1.2741   -0.5162 C   0  0  0  0  0  0  0  0  0  0  0  0
   -5.3346    1.9770   -0.8744 N   0  0  0  0  0  0  0  0  0  0  0  0
   -4.1366    1.4001   -0.6123 C   0  0  0  0  0  0  0  0  0  0  0  0
   -0.4749   -1.7926    1.8910 H   0  0  0  0  0  0  0  0  0  0  0  0
   -0.4997   -2.5848    0.2628 H   0  0  0  0  0  0  0  0  0  0  0  0
    1.6657   -2.4503    1.1729 H   0  0  0  0  0  0  0  0  0  0  0  0
    4.0715   -2.2618    1.0406 H   0  0  0  0  0  0  0  0  0  0  0  0
    6.0949   -1.0583    0.4188 H   0  0  0  0  0  0  0  0  0  0  0  0
    7.2100    0.9022   -0.5577 H   0  0  0  0  0  0  0  0  0  0  0  0
    5.8613    2.7810   -1.4530 H   0  0  0  0  0  0  0  0  0  0  0  0
    3.4273    2.7027   -1.3741 H   0  0  0  0  0  0  0  0  0  0  0  0
   -1.8946    0.2748   -0.0995 H   0  0  0  0  0  0  0  0  0  0  0  0
   -5.0902   -1.5122    0.8175 H   0  0  0  0  0  0  0  0  0  0  0  0
   -7.2856   -0.4949    0.3564 H   0  0  0  0  0  0  0  0  0  0  0  0
   -7.3798    1.7510   -0.7335 H   0  0  0  0  0  0  0  0  0  0  0  0
   -3.2824    1.9990   -0.9163 H   0  0  0  0  0  0  0  0  0  0  0  0
  1  2  2  0
  2  3  1  0
  3  4  1  0
  4  5  1  0
  5  6  2  0
  6  7  1  0
  7  8  2  0
  8  9  1  0
  9 10  2  0
 10 11  1  0
 11 12  2  0
 12 13  1  0
 13 14  2  0
 14 15  1  0
  2 16  1  0
 16 17  1  0
 17 18  2  0
 18 19  1  0
 19 20  2  0
 20 21  1  0
 21 22  2  0
 14  5  1  0
 22 17  1  0
 13  8  1  0
  3 23  1  0
  3 24  1  0
  6 25  1  0
  7 26  1  0
  9 27  1  0
 10 28  1  0
 11 29  1  0
 12 30  1  0
 16 31  1  0
 18 32  1  0
 19 33  1  0
 20 34  1  0
 22 35  1  0
M  END
$$$$
