
     RDKit          3D

 18 19  0  0  0  0  0  0  0  0999 V2000
   -3.4426   -1.9317   -0.5402 O   0  0  0  0  0  0  0  0  0  0  0  0
   -2.5015   -1.1956   -0.2672 C   0  0  0  0  0  0  0  0  0  0  0  0
   -2.7125    0.0366    0.5129 C   0  0  0  0  0  0  0  0  0  0  0  0
   -1.7134    0.8653    0.8312 C   0  0  0  0  0  0  0  0  0  0  0  0
   -0.3610    0.5542    0.3991 C   0  0  0  0  0  0  0  0  0  0  0  0
    0.7229    1.3810    0.7008 C   0  0  0  0  0  0  0  0  0  0  0  0
    2.0050    1.0367    0.2614 C   0  0  0  0  0  0  0  0  0  0  0  0
    2.1997   -0.1292   -0.4759 C   0  0  0  0  0  0  0  0  0  0  0  0
    3.4696   -0.4175   -0.8793 O   0  0  0  0  0  0  0  0  0  0  0  0
    1.1334   -0.9644   -0.7859 C   0  0  0  0  0  0  0  0  0  0  0  0
   -0.1380   -0.6073   -0.3407 C   0  0  0  0  0  0  0  0  0  0  0  0
   -1.2016   -1.4719   -0.6689 O   0  0  0  0  0  0  0  0  0  0  0  0
   -3.7341    0.2318    0.8154 H   0  0  0  0  0  0  0  0  0  0  0  0
   -1.8922    1.7669    1.4065 H   0  0  0  0  0  0  0  0  0  0  0  0
    0.5870    2.2939    1.2751 H   0  0  0  0  0  0  0  0  0  0  0  0
    2.8521    1.6771    0.4937 H   0  0  0  0  0  0  0  0  0  0  0  0
    3.4589   -1.2508   -1.3792 H   0  0  0  0  0  0  0  0  0  0  0  0
    1.2682   -1.8751   -1.3587 H   0  0  0  0  0  0  0  0  0  0  0  0
  1  2  2  0
  2  3  1  0
  3  4  2  0
  4  5  1  0
  5  6  2  0
  6  7  1  0
  7  8  2  0
  8  9  1  0
  8 10  1  0
 10 11  2  0
 11 12  1  0
 12  2  1  0
 11  5  1  0
  3 13  1  0
  4 14  1  0
  6 15  1  0
  7 16  1  0
  9 17  1  0
 10 18  1  0
M  END
$$$$
