
     RDKit          3D

 45 46  0  0  0  0  0  0  0  0999 V2000
    6.5575   -1.2615    0.8860 C   0  0  0  0  0  0  0  0  0  0  0  0
    5.2286   -1.4100    0.7978 C   0  0  0  0  0  0  0  0  0  0  0  0
    4.4901   -1.7567   -0.4635 C   0  0  0  0  0  0  0  0  0  0  0  0
    3.4367   -0.7841   -0.7670 N   0  0  0  0  0  0  0  0  0  0  0  0
    3.5914    0.3020   -1.6043 C   0  0  0  0  0  0  0  0  0  0  0  0
    4.8739    0.6592   -2.2700 C   0  0  0  0  0  0  0  0  0  0  0  0
    2.3733    0.9427   -1.6765 C   0  0  0  0  0  0  0  0  0  0  0  0
    1.4367    0.2506   -0.8557 C   0  0  0  0  0  0  0  0  0  0  0  0
    0.0221    0.5988   -0.6432 C   0  0  0  0  0  0  0  0  0  0  0  0
   -0.6150   -0.0175    0.3080 N   0  0  0  0  0  0  0  0  0  0  0  0
   -1.9455    0.3228    0.6027 N   0  0  0  0  0  0  0  0  0  0  0  0
   -2.7672    0.7438   -0.3064 C   0  0  0  0  0  0  0  0  0  0  0  0
   -4.0979    1.0083   -0.1252 N   0  0  0  0  0  0  0  0  0  0  0  0
   -4.9152    0.5580    0.9996 C   0  0  0  0  0  0  0  0  0  0  0  0
   -4.9329   -0.9738    1.0704 C   0  0  0  0  0  0  0  0  0  0  0  0
   -4.4177    1.1633    2.3185 C   0  0  0  0  0  0  0  0  0  0  0  0
   -6.3508    1.0587    0.7511 C   0  0  0  0  0  0  0  0  0  0  0  0
   -2.2768    1.0849   -1.9521 S   0  0  0  0  0  0  0  0  0  0  0  0
   -0.6272    1.6569   -1.4961 C   0  0  0  0  0  0  0  0  0  0  0  0
    2.1376   -0.8142   -0.2848 C   0  0  0  0  0  0  0  0  0  0  0  0
    1.6413   -1.8430    0.6830 C   0  0  0  0  0  0  0  0  0  0  0  0
    7.2075   -1.3842    0.0253 H   0  0  0  0  0  0  0  0  0  0  0  0
    7.0237   -1.0061    1.8332 H   0  0  0  0  0  0  0  0  0  0  0  0
    4.6244   -1.2723    1.6926 H   0  0  0  0  0  0  0  0  0  0  0  0
    5.1614   -1.8069   -1.3274 H   0  0  0  0  0  0  0  0  0  0  0  0
    4.0258   -2.7441   -0.3825 H   0  0  0  0  0  0  0  0  0  0  0  0
    5.6805    0.7627   -1.5379 H   0  0  0  0  0  0  0  0  0  0  0  0
    4.7839    1.6130   -2.8004 H   0  0  0  0  0  0  0  0  0  0  0  0
    5.1551   -0.1039   -3.0024 H   0  0  0  0  0  0  0  0  0  0  0  0
    2.1939    1.8355   -2.2618 H   0  0  0  0  0  0  0  0  0  0  0  0
   -4.5921    1.1033   -1.0055 H   0  0  0  0  0  0  0  0  0  0  0  0
   -5.2606   -1.4100    0.1196 H   0  0  0  0  0  0  0  0  0  0  0  0
   -3.9420   -1.3837    1.2921 H   0  0  0  0  0  0  0  0  0  0  0  0
   -5.6140   -1.3247    1.8539 H   0  0  0  0  0  0  0  0  0  0  0  0
   -5.1111    0.9429    3.1384 H   0  0  0  0  0  0  0  0  0  0  0  0
   -3.4411    0.7684    2.6141 H   0  0  0  0  0  0  0  0  0  0  0  0
   -4.3228    2.2527    2.2429 H   0  0  0  0  0  0  0  0  0  0  0  0
   -6.7569    0.6537   -0.1834 H   0  0  0  0  0  0  0  0  0  0  0  0
   -7.0236    0.7621    1.5636 H   0  0  0  0  0  0  0  0  0  0  0  0
   -6.3799    2.1519    0.6714 H   0  0  0  0  0  0  0  0  0  0  0  0
   -0.0703    1.8423   -2.4160 H   0  0  0  0  0  0  0  0  0  0  0  0
   -0.6889    2.5903   -0.9277 H   0  0  0  0  0  0  0  0  0  0  0  0
    0.8130   -2.4070    0.2419 H   0  0  0  0  0  0  0  0  0  0  0  0
    1.2894   -1.3592    1.6001 H   0  0  0  0  0  0  0  0  0  0  0  0
    2.4020   -2.5657    0.9839 H   0  0  0  0  0  0  0  0  0  0  0  0
  1  2  2  3
  2  3  1  0
  3  4  1  0
  4  5  1  0
  5  6  1  0
  5  7  2  0
  7  8  1  0
  8  9  1  0
  9 10  2  0
 10 11  1  0
 11 12  2  0
 12 13  1  0
 13 14  1  0
 14 15  1  0
 14 16  1  0
 14 17  1  0
 12 18  1  0
 18 19  1  0
  8 20  2  0
 20 21  1  0
 20  4  1  0
 19  9  1  0
  1 22  1  0
  1 23  1  0
  2 24  1  0
  3 25  1  0
  3 26  1  0
  6 27  1  0
  6 28  1  0
  6 29  1  0
  7 30  1  0
 13 31  1  0
 15 32  1  0
 15 33  1  0
 15 34  1  0
 16 35  1  0
 16 36  1  0
 16 37  1  0
 17 38  1  0
 17 39  1  0
 17 40  1  0
 19 41  1  0
 19 42  1  0
 21 43  1  0
 21 44  1  0
 21 45  1  0
M  END
$$$$
