
     RDKit          3D

 52 54  0  0  0  0  0  0  0  0999 V2000
    1.9733    3.0055   -0.6859 C   0  0  0  0  0  0  0  0  0  0  0  0
    0.6436    2.5149   -1.2347 C   0  0  0  0  0  0  0  0  0  0  0  0
    0.1538    1.2734   -0.5942 N   0  0  0  0  0  0  0  0  0  0  0  0
    0.0428    1.3030    0.8868 C   0  0  0  0  0  0  0  0  0  0  0  0
   -1.2546    0.7077    1.4167 C   0  0  0  0  0  0  0  0  0  0  0  0
   -1.3413    0.2552    2.5555 O   0  0  0  0  0  0  0  0  0  0  0  0
   -2.3236    0.8206    0.5486 N   0  0  0  0  0  0  0  0  0  0  0  0
   -3.6011    0.1834    0.8253 C   0  0  0  0  0  0  0  0  0  0  0  0
   -4.7208    0.8708    0.0274 C   0  0  0  0  0  0  0  0  0  0  0  0
   -5.9255   -0.0333   -0.2453 C   0  0  0  0  0  0  0  0  0  0  0  0
   -6.0895   -1.1038    0.8238 C   0  0  0  0  0  0  0  0  0  0  0  0
   -4.8641   -2.0151    0.9065 C   0  0  0  0  0  0  0  0  0  0  0  0
   -3.5545   -1.3182    0.5296 C   0  0  0  0  0  0  0  0  0  0  0  0
    0.4453   -0.2200   -1.3453 S   0  0  0  0  0  6  0  0  0  0  0  0
   -0.2687   -1.2406   -0.6114 O   0  0  0  0  0  0  0  0  0  0  0  0
    0.2183   -0.0413   -2.7641 O   0  0  0  0  0  0  0  0  0  0  0  0
    2.1802   -0.5120   -1.1070 C   0  0  0  0  0  0  0  0  0  0  0  0
    3.0817   -0.1980   -2.1257 C   0  0  0  0  0  0  0  0  0  0  0  0
    4.4412   -0.4566   -1.9444 C   0  0  0  0  0  0  0  0  0  0  0  0
    4.9079   -1.0456   -0.7575 C   0  0  0  0  0  0  0  0  0  0  0  0
    6.2728   -1.3084   -0.5613 C   0  0  0  0  0  0  0  0  0  0  0  0
    6.7221   -1.9037    0.6186 C   0  0  0  0  0  0  0  0  0  0  0  0
    5.8136   -2.2461    1.6158 C   0  0  0  0  0  0  0  0  0  0  0  0
    4.4528   -1.9928    1.4373 C   0  0  0  0  0  0  0  0  0  0  0  0
    3.9847   -1.3911    0.2587 C   0  0  0  0  0  0  0  0  0  0  0  0
    2.6199   -1.1300    0.0680 C   0  0  0  0  0  0  0  0  0  0  0  0
    2.3002    3.8906   -1.2414 H   0  0  0  0  0  0  0  0  0  0  0  0
    2.7577    2.2516   -0.7685 H   0  0  0  0  0  0  0  0  0  0  0  0
    1.8996    3.2914    0.3674 H   0  0  0  0  0  0  0  0  0  0  0  0
    0.7263    2.3788   -2.3178 H   0  0  0  0  0  0  0  0  0  0  0  0
   -0.1183    3.2906   -1.0915 H   0  0  0  0  0  0  0  0  0  0  0  0
    0.0567    2.3381    1.2467 H   0  0  0  0  0  0  0  0  0  0  0  0
    0.8910    0.7848    1.3417 H   0  0  0  0  0  0  0  0  0  0  0  0
   -2.0635    0.9585   -0.4231 H   0  0  0  0  0  0  0  0  0  0  0  0
   -3.8045    0.3139    1.8965 H   0  0  0  0  0  0  0  0  0  0  0  0
   -5.0469    1.7596    0.5830 H   0  0  0  0  0  0  0  0  0  0  0  0
   -4.3468    1.2454   -0.9343 H   0  0  0  0  0  0  0  0  0  0  0  0
   -6.8336    0.5761   -0.3157 H   0  0  0  0  0  0  0  0  0  0  0  0
   -5.7997   -0.5186   -1.2215 H   0  0  0  0  0  0  0  0  0  0  0  0
   -6.9829   -1.7066    0.6251 H   0  0  0  0  0  0  0  0  0  0  0  0
   -6.2498   -0.6200    1.7956 H   0  0  0  0  0  0  0  0  0  0  0  0
   -5.0012   -2.8824    0.2494 H   0  0  0  0  0  0  0  0  0  0  0  0
   -4.7920   -2.4135    1.9258 H   0  0  0  0  0  0  0  0  0  0  0  0
   -3.3575   -1.4706   -0.5402 H   0  0  0  0  0  0  0  0  0  0  0  0
   -2.7245   -1.8010    1.0592 H   0  0  0  0  0  0  0  0  0  0  0  0
    2.7393    0.2449   -3.0584 H   0  0  0  0  0  0  0  0  0  0  0  0
    5.1370   -0.2019   -2.7415 H   0  0  0  0  0  0  0  0  0  0  0  0
    6.9994   -1.0538   -1.3298 H   0  0  0  0  0  0  0  0  0  0  0  0
    7.7817   -2.1034    0.7568 H   0  0  0  0  0  0  0  0  0  0  0  0
    6.1627   -2.7134    2.5332 H   0  0  0  0  0  0  0  0  0  0  0  0
    3.7592   -2.2715    2.2283 H   0  0  0  0  0  0  0  0  0  0  0  0
    1.9002   -1.4163    0.8334 H   0  0  0  0  0  0  0  0  0  0  0  0
  1  2  1  0
  2  3  1  0
  3  4  1  0
  4  5  1  0
  5  6  2  0
  5  7  1  0
  7  8  1  0
  8  9  1  0
  9 10  1  0
 10 11  1  0
 11 12  1  0
 12 13  1  0
  3 14  1  0
 14 15  2  0
 14 16  2  0
 14 17  1  0
 17 18  2  0
 18 19  1  0
 19 20  2  0
 20 21  1  0
 21 22  2  0
 22 23  1  0
 23 24  2  0
 24 25  1  0
 25 26  2  0
 13  8  1  0
 26 17  1  0
 25 20  1  0
  1 27  1  0
  1 28  1  0
  1 29  1  0
  2 30  1  0
  2 31  1  0
  4 32  1  0
  4 33  1  0
  7 34  1  0
  8 35  1  0
  9 36  1  0
  9 37  1  0
 10 38  1  0
 10 39  1  0
 11 40  1  0
 11 41  1  0
 12 42  1  0
 12 43  1  0
 13 44  1  0
 13 45  1  0
 18 46  1  0
 19 47  1  0
 21 48  1  0
 22 49  1  0
 23 50  1  0
 24 51  1  0
 26 52  1  0
M  END
$$$$
