
     RDKit          3D

 54 57  0  0  0  0  0  0  0  0999 V2000
    6.2642   -0.6094    0.5402 C   0  0  0  0  0  0  0  0  0  0  0  0
    4.9699   -0.0851    0.8080 O   0  0  0  0  0  0  0  0  0  0  0  0
    4.7023    1.1837    0.3694 C   0  0  0  0  0  0  0  0  0  0  0  0
    5.5071    1.9028   -0.5204 C   0  0  0  0  0  0  0  0  0  0  0  0
    5.1516    3.1996   -0.9115 C   0  0  0  0  0  0  0  0  0  0  0  0
    3.9923    3.7948   -0.4172 C   0  0  0  0  0  0  0  0  0  0  0  0
    3.1771    3.0901    0.4644 C   0  0  0  0  0  0  0  0  0  0  0  0
    3.5237    1.7853    0.8393 C   0  0  0  0  0  0  0  0  0  0  0  0
    2.6297    1.0961    1.7918 C   0  0  0  0  0  0  0  0  0  0  0  0
    2.6076    1.5107    2.9489 O   0  0  0  0  0  0  0  0  0  0  0  0
    1.8090    0.0697    1.3281 N   0  0  0  0  0  0  0  0  0  0  0  0
    1.1337   -0.7659    2.3232 C   0  0  0  0  0  0  0  0  0  0  0  0
   -0.2300   -1.2746    1.8363 C   0  0  0  0  0  0  0  0  0  0  0  0
   -0.0971   -1.9245    0.5022 N   0  0  0  0  0  0  0  0  0  0  0  0
   -1.3832   -2.9026   -0.0166 S   0  0  0  0  0  6  0  0  0  0  0  0
   -1.0106   -3.4752   -1.2941 O   0  0  0  0  0  0  0  0  0  0  0  0
   -1.7640   -3.7617    1.0825 O   0  0  0  0  0  0  0  0  0  0  0  0
   -2.7104   -1.7345   -0.3330 C   0  0  0  0  0  0  0  0  0  0  0  0
   -2.7194   -1.1379   -1.6072 C   0  0  0  0  0  0  0  0  0  0  0  0
   -3.7156   -0.2324   -1.9595 C   0  0  0  0  0  0  0  0  0  0  0  0
   -4.7190    0.0772   -1.0467 C   0  0  0  0  0  0  0  0  0  0  0  0
   -4.7343   -0.5253    0.2127 C   0  0  0  0  0  0  0  0  0  0  0  0
   -3.7368   -1.4475    0.5903 C   0  0  0  0  0  0  0  0  0  0  0  0
   -3.8612   -2.0904    1.9436 C   0  0  0  0  0  0  0  0  0  0  0  0
   -5.7064    1.0029   -1.3769 N   0  0  0  0  0  0  0  0  0  0  0  0
   -5.7719    1.5705   -2.6181 C   0  0  0  0  0  0  0  0  0  0  0  0
   -6.6258    2.4097   -2.8935 O   0  0  0  0  0  0  0  0  0  0  0  0
   -4.7597    1.0417   -3.6336 C   0  0  0  0  0  0  0  0  0  0  0  0
   -3.6082    0.3348   -3.1971 O   0  0  0  0  0  0  0  0  0  0  0  0
    0.5075   -1.0054   -0.5029 C   0  0  0  0  0  0  0  0  0  0  0  0
    1.8788   -0.5084   -0.0202 C   0  0  0  0  0  0  0  0  0  0  0  0
    6.3958   -0.7957   -0.5303 H   0  0  0  0  0  0  0  0  0  0  0  0
    6.3486   -1.5700    1.0575 H   0  0  0  0  0  0  0  0  0  0  0  0
    7.0496    0.0479    0.9275 H   0  0  0  0  0  0  0  0  0  0  0  0
    6.4207    1.4845   -0.9307 H   0  0  0  0  0  0  0  0  0  0  0  0
    5.7899    3.7500   -1.5995 H   0  0  0  0  0  0  0  0  0  0  0  0
    3.7294    4.8077   -0.7123 H   0  0  0  0  0  0  0  0  0  0  0  0
    2.2797    3.5529    0.8677 H   0  0  0  0  0  0  0  0  0  0  0  0
    1.7998   -1.6137    2.5265 H   0  0  0  0  0  0  0  0  0  0  0  0
    1.0028   -0.2211    3.2639 H   0  0  0  0  0  0  0  0  0  0  0  0
   -0.6074   -1.9894    2.5732 H   0  0  0  0  0  0  0  0  0  0  0  0
   -0.9317   -0.4360    1.7634 H   0  0  0  0  0  0  0  0  0  0  0  0
   -1.9492   -1.3783   -2.3379 H   0  0  0  0  0  0  0  0  0  0  0  0
   -5.5356   -0.2853    0.9097 H   0  0  0  0  0  0  0  0  0  0  0  0
   -4.1132   -3.1500    1.8405 H   0  0  0  0  0  0  0  0  0  0  0  0
   -4.6603   -1.6273    2.5336 H   0  0  0  0  0  0  0  0  0  0  0  0
   -2.9446   -1.9703    2.5243 H   0  0  0  0  0  0  0  0  0  0  0  0
   -6.4056    1.2913   -0.7055 H   0  0  0  0  0  0  0  0  0  0  0  0
   -5.3064    0.3918   -4.3269 H   0  0  0  0  0  0  0  0  0  0  0  0
   -4.4004    1.9052   -4.2045 H   0  0  0  0  0  0  0  0  0  0  0  0
    0.6427   -1.5164   -1.4611 H   0  0  0  0  0  0  0  0  0  0  0  0
   -0.1541   -0.1450   -0.6535 H   0  0  0  0  0  0  0  0  0  0  0  0
    2.5876   -1.3438    0.0239 H   0  0  0  0  0  0  0  0  0  0  0  0
    2.2605    0.2223   -0.7380 H   0  0  0  0  0  0  0  0  0  0  0  0
  1  2  1  0
  2  3  1  0
  3  4  2  0
  4  5  1  0
  5  6  2  0
  6  7  1  0
  7  8  2  0
  8  9  1  0
  9 10  2  0
  9 11  1  0
 11 12  1  0
 12 13  1  0
 13 14  1  0
 14 15  1  0
 15 16  2  0
 15 17  2  0
 15 18  1  0
 18 19  2  0
 19 20  1  0
 20 21  2  0
 21 22  1  0
 22 23  2  0
 23 24  1  0
 21 25  1  0
 25 26  1  0
 26 27  2  0
 26 28  1  0
 28 29  1  0
 14 30  1  0
 30 31  1  0
  8  3  1  0
 31 11  1  0
 23 18  1  0
 29 20  1  0
  1 32  1  0
  1 33  1  0
  1 34  1  0
  4 35  1  0
  5 36  1  0
  6 37  1  0
  7 38  1  0
 12 39  1  0
 12 40  1  0
 13 41  1  0
 13 42  1  0
 19 43  1  0
 22 44  1  0
 24 45  1  0
 24 46  1  0
 24 47  1  0
 25 48  1  0
 28 49  1  0
 28 50  1  0
 30 51  1  0
 30 52  1  0
 31 53  1  0
 31 54  1  0
M  END
$$$$
