
     RDKit          3D

 75 79  0  0  0  0  0  0  0  0999 V2000
   -7.4722   -3.7074   -0.9096 C   0  0  0  0  0  0  0  0  0  0  0  0
   -6.3808   -4.0982   -0.2379 C   0  0  0  0  0  0  0  0  0  0  0  0
   -5.1628   -3.2651   -0.0264 C   0  0  0  0  0  0  0  0  0  0  0  0
   -4.0807   -3.8318    0.0528 O   0  0  0  0  0  0  0  0  0  0  0  0
   -5.4246   -1.9291    0.1197 N   0  0  0  0  0  0  0  0  0  0  0  0
   -4.5206   -0.8648    0.3205 C   0  0  0  0  0  0  0  0  0  0  0  0
   -3.1304   -0.9997    0.3222 C   0  0  0  0  0  0  0  0  0  0  0  0
   -2.3043    0.1138    0.5266 C   0  0  0  0  0  0  0  0  0  0  0  0
   -0.9000    0.0485    0.5243 N   0  0  0  0  0  0  0  0  0  0  0  0
    0.0316   -0.9039    0.1398 C   0  0  0  0  0  0  0  0  0  0  0  0
   -0.3339   -2.0966   -0.3441 N   0  0  0  0  0  0  0  0  0  0  0  0
    0.6359   -2.9462   -0.7260 C   0  0  0  0  0  0  0  0  0  0  0  0
    1.9708   -2.6491   -0.6550 C   0  0  0  0  0  0  0  0  0  0  0  0
    2.2656   -1.4028   -0.1471 C   0  0  0  0  0  0  0  0  0  0  0  0
    3.6299   -1.0010   -0.0450 N   0  0  0  0  0  0  0  0  0  0  0  0
    4.0849    0.1861    0.4689 C   0  0  0  0  0  0  0  0  0  0  0  0
    5.4603    0.1968    0.3435 C   0  0  0  0  0  0  0  0  0  0  0  0
    6.3997    1.2665    0.8022 C   0  0  0  0  0  0  0  0  0  0  0  0
    5.9464    2.5923    0.3446 N   0  0  0  0  0  0  0  0  0  0  0  0
    6.1336    2.7648   -1.0976 C   0  0  0  0  0  0  0  0  0  0  0  0
    6.6631    3.6443    1.0672 C   0  0  0  0  0  0  0  0  0  0  0  0
    5.7614   -1.0596   -0.2635 C   0  0  0  0  0  0  0  0  0  0  0  0
    7.0669   -1.5950   -0.6411 C   0  0  0  0  0  0  0  0  0  0  0  0
    7.9203   -0.8722   -1.4846 C   0  0  0  0  0  0  0  0  0  0  0  0
    9.1694   -1.3888   -1.8366 C   0  0  0  0  0  0  0  0  0  0  0  0
    9.5694   -2.6342   -1.3549 C   0  0  0  0  0  0  0  0  0  0  0  0
    8.7204   -3.3681   -0.5274 C   0  0  0  0  0  0  0  0  0  0  0  0
    7.4714   -2.8524   -0.1747 C   0  0  0  0  0  0  0  0  0  0  0  0
    4.6522   -1.7896   -0.4608 N   0  0  0  0  0  0  0  0  0  0  0  0
    1.3127   -0.5256    0.2556 N   0  0  0  0  0  0  0  0  0  0  0  0
   -2.9043    1.3812    0.7278 C   0  0  0  0  0  0  0  0  0  0  0  0
   -2.0166    2.4177    0.9227 O   0  0  0  0  0  0  0  0  0  0  0  0
   -2.5516    3.7329    0.9785 C   0  0  0  0  0  0  0  0  0  0  0  0
   -4.2955    1.5185    0.7216 C   0  0  0  0  0  0  0  0  0  0  0  0
   -5.1171    0.4024    0.5189 C   0  0  0  0  0  0  0  0  0  0  0  0
   -6.5336    0.4911    0.4972 N   0  0  0  0  0  0  0  0  0  0  0  0
   -7.0654    1.2525   -0.6616 C   0  0  0  0  0  0  0  0  0  0  0  0
   -7.7408    2.5605   -0.2210 C   0  0  0  0  0  0  0  0  0  0  0  0
   -8.8037    2.3694    0.7248 O   0  0  0  0  0  0  0  0  0  0  0  0
   -8.5943    1.2538    1.6072 C   0  0  0  0  0  0  0  0  0  0  0  0
   -7.1111    0.9018    1.7996 C   0  0  0  0  0  0  0  0  0  0  0  0
   -7.5594   -2.7280   -1.3659 H   0  0  0  0  0  0  0  0  0  0  0  0
   -8.3013   -4.3943   -1.0494 H   0  0  0  0  0  0  0  0  0  0  0  0
   -6.2960   -5.1104    0.1437 H   0  0  0  0  0  0  0  0  0  0  0  0
   -6.3897   -1.6148    0.1471 H   0  0  0  0  0  0  0  0  0  0  0  0
   -2.6830   -1.9748    0.1697 H   0  0  0  0  0  0  0  0  0  0  0  0
   -0.4443    0.9228    0.7511 H   0  0  0  0  0  0  0  0  0  0  0  0
    0.2879   -3.9020   -1.1068 H   0  0  0  0  0  0  0  0  0  0  0  0
    2.7248   -3.3543   -0.9780 H   0  0  0  0  0  0  0  0  0  0  0  0
    3.4018    0.9209    0.8712 H   0  0  0  0  0  0  0  0  0  0  0  0
    7.4323    1.0746    0.4915 H   0  0  0  0  0  0  0  0  0  0  0  0
    6.3914    1.2360    1.8992 H   0  0  0  0  0  0  0  0  0  0  0  0
    5.7887    3.7562   -1.4125 H   0  0  0  0  0  0  0  0  0  0  0  0
    7.1833    2.6589   -1.3926 H   0  0  0  0  0  0  0  0  0  0  0  0
    5.5393    2.0427   -1.6688 H   0  0  0  0  0  0  0  0  0  0  0  0
    6.3017    4.6340    0.7664 H   0  0  0  0  0  0  0  0  0  0  0  0
    7.7443    3.6047    0.8901 H   0  0  0  0  0  0  0  0  0  0  0  0
    6.4835    3.5637    2.1453 H   0  0  0  0  0  0  0  0  0  0  0  0
    7.6126    0.0894   -1.8865 H   0  0  0  0  0  0  0  0  0  0  0  0
    9.8259   -0.8238   -2.4933 H   0  0  0  0  0  0  0  0  0  0  0  0
   10.5391   -3.0394   -1.6315 H   0  0  0  0  0  0  0  0  0  0  0  0
    9.0269   -4.3445   -0.1612 H   0  0  0  0  0  0  0  0  0  0  0  0
    6.8108   -3.4355    0.4635 H   0  0  0  0  0  0  0  0  0  0  0  0
   -1.7131    4.4307    1.0653 H   0  0  0  0  0  0  0  0  0  0  0  0
   -3.1847    3.8627    1.8616 H   0  0  0  0  0  0  0  0  0  0  0  0
   -3.0950    3.9792    0.0607 H   0  0  0  0  0  0  0  0  0  0  0  0
   -4.7589    2.4840    0.8764 H   0  0  0  0  0  0  0  0  0  0  0  0
   -7.8170    0.6123   -1.1395 H   0  0  0  0  0  0  0  0  0  0  0  0
   -6.2948    1.4590   -1.4138 H   0  0  0  0  0  0  0  0  0  0  0  0
   -7.0114    3.2403    0.2316 H   0  0  0  0  0  0  0  0  0  0  0  0
   -8.1650    3.0746   -1.0891 H   0  0  0  0  0  0  0  0  0  0  0  0
   -9.0527    1.5058    2.5690 H   0  0  0  0  0  0  0  0  0  0  0  0
   -9.1416    0.3984    1.1941 H   0  0  0  0  0  0  0  0  0  0  0  0
   -6.5922    1.7792    2.2085 H   0  0  0  0  0  0  0  0  0  0  0  0
   -7.0158    0.0777    2.5168 H   0  0  0  0  0  0  0  0  0  0  0  0
  1  2  2  3
  2  3  1  0
  3  4  2  0
  3  5  1  0
  5  6  1  0
  6  7  2  0
  7  8  1  0
  8  9  1  0
  9 10  1  0
 10 11  2  0
 11 12  1  0
 12 13  2  0
 13 14  1  0
 14 15  1  0
 15 16  1  0
 16 17  2  0
 17 18  1  0
 18 19  1  0
 19 20  1  0
 19 21  1  0
 17 22  1  0
 22 23  1  0
 23 24  2  0
 24 25  1  0
 25 26  2  0
 26 27  1  0
 27 28  2  0
 22 29  2  0
 14 30  2  0
  8 31  2  0
 31 32  1  0
 32 33  1  0
 31 34  1  0
 34 35  2  0
 35 36  1  0
 36 37  1  0
 37 38  1  0
 38 39  1  0
 39 40  1  0
 40 41  1  0
 35  6  1  0
 41 36  1  0
 30 10  1  0
 29 15  1  0
 28 23  1  0
  1 42  1  0
  1 43  1  0
  2 44  1  0
  5 45  1  0
  7 46  1  0
  9 47  1  0
 12 48  1  0
 13 49  1  0
 16 50  1  0
 18 51  1  0
 18 52  1  0
 20 53  1  0
 20 54  1  0
 20 55  1  0
 21 56  1  0
 21 57  1  0
 21 58  1  0
 24 59  1  0
 25 60  1  0
 26 61  1  0
 27 62  1  0
 28 63  1  0
 33 64  1  0
 33 65  1  0
 33 66  1  0
 34 67  1  0
 37 68  1  0
 37 69  1  0
 38 70  1  0
 38 71  1  0
 40 72  1  0
 40 73  1  0
 41 74  1  0
 41 75  1  0
M  END
$$$$
