
     RDKit          3D

 29 29  0  0  0  0  0  0  0  0999 V2000
    0.6884    0.0000    0.0000 Cl  0  0  0  0  0  0  0  0  0  0  0  0
   -2.7463   -1.8271   -0.8794 N   0  0  0  0  0  0  0  0  0  0  0  0
   -2.1928   -0.7368   -0.5726 C   0  0  0  0  0  0  0  0  0  0  0  0
   -2.5182    0.6419   -1.1294 C   0  0  0  0  0  0  0  0  0  0  0  0
   -2.2495    1.5238    0.0515 C   0  0  0  0  0  0  0  0  0  0  0  0
   -1.2695    0.7979    0.9224 C   0  0  0  0  0  0  0  0  0  0  0  0
   -1.1662   -0.5702    0.3435 N   0  0  0  0  0  0  0  0  0  0  0  0
   -0.0609   -1.4181    0.8245 C   0  0  0  0  0  0  0  0  0  0  0  0
    1.1664   -0.7341    0.2891 C   0  0  0  0  0  0  0  0  0  0  0  0
    1.6005   -0.8164   -0.9541 N   0  0  0  0  0  0  0  0  0  0  0  0
    2.7376   -0.1571   -1.3639 C   0  0  0  0  0  0  0  0  0  0  0  0
    3.1773   -0.2392   -2.5321 O   0  0  0  0  0  0  0  0  0  0  0  0
    3.3743    0.5714   -0.4628 N   0  0  0  0  0  0  0  0  0  0  0  0
    2.9750    0.6848    0.8297 C   0  0  0  0  0  0  0  0  0  0  0  0
    3.6198    1.3904    1.6684 O   0  0  0  0  0  0  0  0  0  0  0  0
    1.8635    0.0282    1.2317 C   0  0  0  0  0  0  0  0  0  0  0  0
    1.3516    0.0792    2.9211 Cl  0  0  0  0  0  0  0  0  0  0  0  0
   -0.6884    0.0000    0.0000 H   0  0  0  0  0  0  0  0  0  0  0  0
   -2.6469   -2.7730   -0.6080 H   0  0  0  0  0  0  0  0  0  0  0  0
   -3.5289    0.7095   -1.5157 H   0  0  0  0  0  0  0  0  0  0  0  0
   -1.7117    0.8070   -1.9127 H   0  0  0  0  0  0  0  0  0  0  0  0
   -1.7789    2.4856   -0.3301 H   0  0  0  0  0  0  0  0  0  0  0  0
   -3.1970    1.7331    0.5313 H   0  0  0  0  0  0  0  0  0  0  0  0
   -1.6707    0.7440    1.9535 H   0  0  0  0  0  0  0  0  0  0  0  0
   -0.3069    1.3096    0.9029 H   0  0  0  0  0  0  0  0  0  0  0  0
   -0.0277   -1.5392    1.8847 H   0  0  0  0  0  0  0  0  0  0  0  0
   -0.1307   -2.4102    0.3148 H   0  0  0  0  0  0  0  0  0  0  0  0
    1.1151   -1.4032   -1.6445 H   0  0  0  0  0  0  0  0  0  0  0  0
    4.2218    1.1184   -0.7639 H   0  0  0  0  0  0  0  0  0  0  0  0
  2  3  2  3
  3  4  1  0
  4  5  1  0
  5  6  1  0
  6  7  1  0
  7  8  1  0
  8  9  1  0
  9 10  1  0
 10 11  1  0
 11 12  2  0
 11 13  1  0
 13 14  1  0
 14 15  2  0
 14 16  1  0
 16 17  1  0
  7  3  1  0
 16  9  2  0
  1 18  1  0
  2 19  1  0
  4 20  1  0
  4 21  1  0
  5 22  1  0
  5 23  1  0
  6 24  1  0
  6 25  1  0
  8 26  1  0
  8 27  1  0
 10 28  1  0
 13 29  1  0
M  END
$$$$
