
     RDKit          3D

 41 43  0  0  0  0  0  0  0  0999 V2000
   -1.3851    0.6164   -2.1222 C   0  0  0  0  0  0  0  0  0  0  0  0
   -1.1090    0.0906   -0.7125 C   0  0  2  0  0  0  0  0  0  0  0  0
   -0.8706   -1.3505   -0.7860 N   0  0  0  0  0  0  0  0  0  0  0  0
   -0.0065   -1.9543    0.0810 C   0  0  0  0  0  0  0  0  0  0  0  0
    1.2677   -1.8063    0.2108 N   0  0  0  0  0  0  0  0  0  0  0  0
    1.9833   -0.9553   -0.6524 C   0  0  0  0  0  0  0  0  0  0  0  0
    2.1226   -1.2926   -2.0033 C   0  0  0  0  0  0  0  0  0  0  0  0
    2.8242   -0.4597   -2.8665 C   0  0  0  0  0  0  0  0  0  0  0  0
    3.4019    0.7113   -2.3754 C   0  0  0  0  0  0  0  0  0  0  0  0
    3.3128    1.0658   -1.0367 C   0  0  0  0  0  0  0  0  0  0  0  0
    3.9020    2.2053   -0.6311 N   0  0  0  0  0  0  0  0  0  0  0  0
    3.8281    2.5295    0.6783 C   0  0  0  0  0  0  0  0  0  0  0  0
    3.1775    1.7646    1.6247 C   0  0  0  0  0  0  0  0  0  0  0  0
    2.5607    0.5953    1.1988 C   0  0  0  0  0  0  0  0  0  0  0  0
    2.6082    0.2163   -0.1565 C   0  0  0  0  0  0  0  0  0  0  0  0
   -0.6896   -2.8646    0.9028 N   0  0  0  0  0  0  0  0  0  0  0  0
    0.0245   -3.3899    1.8999 C   0  0  0  0  0  0  0  0  0  0  0  0
    0.5643   -3.8687    2.8058 N   0  0  0  0  0  0  0  0  0  0  0  0
   -2.2359    0.3381    0.2799 C   0  0  0  0  0  0  0  0  0  0  0  0
   -3.5915    0.2610   -0.0775 C   0  0  0  0  0  0  0  0  0  0  0  0
   -4.5923    0.4495    0.8788 C   0  0  0  0  0  0  0  0  0  0  0  0
   -4.2543    0.7070    2.2052 C   0  0  0  0  0  0  0  0  0  0  0  0
   -2.9153    0.7748    2.5795 C   0  0  0  0  0  0  0  0  0  0  0  0
   -1.9138    0.5890    1.6255 C   0  0  0  0  0  0  0  0  0  0  0  0
   -1.6511    1.6788   -2.1016 H   0  0  0  0  0  0  0  0  0  0  0  0
   -2.1947    0.0704   -2.6188 H   0  0  0  0  0  0  0  0  0  0  0  0
   -0.4955    0.5039   -2.7519 H   0  0  0  0  0  0  0  0  0  0  0  0
   -0.2224    0.6234   -0.3535 H   0  0  0  0  0  0  0  0  0  0  0  0
   -1.7501   -1.8422   -0.8659 H   0  0  0  0  0  0  0  0  0  0  0  0
    1.6769   -2.2098   -2.3792 H   0  0  0  0  0  0  0  0  0  0  0  0
    2.9268   -0.7195   -3.9165 H   0  0  0  0  0  0  0  0  0  0  0  0
    3.9504    1.3619   -3.0531 H   0  0  0  0  0  0  0  0  0  0  0  0
    4.3295    3.4531    0.9534 H   0  0  0  0  0  0  0  0  0  0  0  0
    3.1556    2.0637    2.6660 H   0  0  0  0  0  0  0  0  0  0  0  0
    2.0517   -0.0348    1.9251 H   0  0  0  0  0  0  0  0  0  0  0  0
   -1.7036   -2.8329    0.9537 H   0  0  0  0  0  0  0  0  0  0  0  0
   -3.8921    0.0535   -1.1015 H   0  0  0  0  0  0  0  0  0  0  0  0
   -5.6389    0.3956    0.5883 H   0  0  0  0  0  0  0  0  0  0  0  0
   -5.0346    0.8543    2.9477 H   0  0  0  0  0  0  0  0  0  0  0  0
   -2.6492    0.9714    3.6153 H   0  0  0  0  0  0  0  0  0  0  0  0
   -0.8725    0.6368    1.9416 H   0  0  0  0  0  0  0  0  0  0  0  0
  1  2  1  0
  2  3  1  0
  3  4  1  0
  4  5  2  0
  5  6  1  0
  6  7  2  0
  7  8  1  0
  8  9  2  0
  9 10  1  0
 10 11  2  0
 11 12  1  0
 12 13  2  0
 13 14  1  0
 14 15  2  0
  4 16  1  0
 16 17  1  0
 17 18  3  0
  2 19  1  0
 19 20  2  0
 20 21  1  0
 21 22  2  0
 22 23  1  0
 23 24  2  0
 15  6  1  0
 24 19  1  0
 15 10  1  0
  1 25  1  0
  1 26  1  0
  1 27  1  0
  2 28  1  1
  3 29  1  0
  7 30  1  0
  8 31  1  0
  9 32  1  0
 12 33  1  0
 13 34  1  0
 14 35  1  0
 16 36  1  0
 20 37  1  0
 21 38  1  0
 22 39  1  0
 23 40  1  0
 24 41  1  0
M  END
$$$$
