
     RDKit          3D

 58 60  0  0  0  0  0  0  0  0999 V2000
   10.2935   -1.6615    0.2249 C   0  0  0  0  0  0  0  0  0  0  0  0
    9.5556   -0.5440    0.9402 C   0  0  0  0  0  0  0  0  0  0  0  0
    8.3268   -0.2316    0.2879 O   0  0  0  0  0  0  0  0  0  0  0  0
    7.2623   -1.1136    0.6288 C   0  0  0  0  0  0  0  0  0  0  0  0
    6.0064   -0.7160   -0.1395 C   0  0  0  0  0  0  0  0  0  0  0  0
    5.6012    0.7310    0.1312 C   0  0  0  0  0  0  0  0  0  0  0  0
    4.2906    1.0313   -0.4130 N   0  0  0  0  0  0  0  0  0  0  0  0
    4.0911    1.3450   -1.7515 C   0  0  0  0  0  0  0  0  0  0  0  0
    5.0283    1.3984   -2.5447 O   0  0  0  0  0  0  0  0  0  0  0  0
    2.7044    1.5889   -2.1068 C   0  0  0  0  0  0  0  0  0  0  0  0
    2.2329    1.9154   -3.2932 N   0  0  0  0  0  0  0  0  0  0  0  0
    0.8662    2.0445   -3.1487 N   0  0  0  0  0  0  0  0  0  0  0  0
    0.5932    1.7849   -1.8863 C   0  0  0  0  0  0  0  0  0  0  0  0
   -0.6884    1.7762   -1.1908 C   0  0  0  0  0  0  0  0  0  0  0  0
   -1.8529    2.1527   -1.8829 C   0  0  0  0  0  0  0  0  0  0  0  0
   -3.0984    2.1570   -1.2481 C   0  0  0  0  0  0  0  0  0  0  0  0
   -3.1851    1.7711    0.0899 C   0  0  0  0  0  0  0  0  0  0  0  0
   -4.7533    1.7794    0.9254 S   0  0  0  0  0  6  0  0  0  0  0  0
   -4.5310    2.3569    2.2341 O   0  0  0  0  0  0  0  0  0  0  0  0
   -5.7505    2.3196    0.0256 O   0  0  0  0  0  0  0  0  0  0  0  0
   -5.0843    0.1124    1.1219 N   0  0  0  0  0  0  0  0  0  0  0  0
   -5.1781   -0.6729   -0.1424 C   0  0  0  0  0  0  0  0  0  0  0  0
   -5.7099   -2.0748    0.1386 C   0  0  0  0  0  0  0  0  0  0  0  0
   -7.1384   -2.0374    0.7038 C   0  0  0  0  0  0  0  0  0  0  0  0
   -8.1824   -2.2732   -0.3878 C   0  0  0  0  0  0  0  0  0  0  0  0
   -7.4183   -0.7147    1.4323 C   0  0  0  0  0  0  0  0  0  0  0  0
   -6.1649   -0.1794    2.1119 C   0  0  0  0  0  0  0  0  0  0  0  0
   -2.0411    1.4006    0.8008 C   0  0  0  0  0  0  0  0  0  0  0  0
   -0.7990    1.4022    0.1590 C   0  0  0  0  0  0  0  0  0  0  0  0
    1.7144    1.4825   -1.1552 O   0  0  0  0  0  0  0  0  0  0  0  0
   11.2827   -1.8140    0.6661 H   0  0  0  0  0  0  0  0  0  0  0  0
    9.7435   -2.6051    0.2852 H   0  0  0  0  0  0  0  0  0  0  0  0
   10.4122   -1.4263   -0.8377 H   0  0  0  0  0  0  0  0  0  0  0  0
    9.3848   -0.7886    1.9946 H   0  0  0  0  0  0  0  0  0  0  0  0
   10.1706    0.3614    0.9096 H   0  0  0  0  0  0  0  0  0  0  0  0
    7.5264   -2.1445    0.3722 H   0  0  0  0  0  0  0  0  0  0  0  0
    7.0742   -1.0584    1.7073 H   0  0  0  0  0  0  0  0  0  0  0  0
    5.1892   -1.3946    0.1329 H   0  0  0  0  0  0  0  0  0  0  0  0
    6.1822   -0.8408   -1.2150 H   0  0  0  0  0  0  0  0  0  0  0  0
    6.3294    1.4264   -0.3002 H   0  0  0  0  0  0  0  0  0  0  0  0
    5.5439    0.9198    1.2084 H   0  0  0  0  0  0  0  0  0  0  0  0
    3.4809    0.9721    0.1918 H   0  0  0  0  0  0  0  0  0  0  0  0
   -1.7934    2.4544   -2.9291 H   0  0  0  0  0  0  0  0  0  0  0  0
   -3.9841    2.4630   -1.8013 H   0  0  0  0  0  0  0  0  0  0  0  0
   -5.8222   -0.1669   -0.8699 H   0  0  0  0  0  0  0  0  0  0  0  0
   -4.1768   -0.7657   -0.5758 H   0  0  0  0  0  0  0  0  0  0  0  0
   -5.0524   -2.5609    0.8717 H   0  0  0  0  0  0  0  0  0  0  0  0
   -5.6630   -2.6856   -0.7703 H   0  0  0  0  0  0  0  0  0  0  0  0
   -7.2303   -2.8602    1.4250 H   0  0  0  0  0  0  0  0  0  0  0  0
   -9.1937   -2.2535    0.0316 H   0  0  0  0  0  0  0  0  0  0  0  0
   -8.0356   -3.2501   -0.8604 H   0  0  0  0  0  0  0  0  0  0  0  0
   -8.1229   -1.5078   -1.1688 H   0  0  0  0  0  0  0  0  0  0  0  0
   -8.2089   -0.8695    2.1762 H   0  0  0  0  0  0  0  0  0  0  0  0
   -7.7951    0.0394    0.7290 H   0  0  0  0  0  0  0  0  0  0  0  0
   -6.4258    0.7115    2.6924 H   0  0  0  0  0  0  0  0  0  0  0  0
   -5.7740   -0.9107    2.8296 H   0  0  0  0  0  0  0  0  0  0  0  0
   -2.1134    1.1145    1.8485 H   0  0  0  0  0  0  0  0  0  0  0  0
    0.0805    1.1099    0.7290 H   0  0  0  0  0  0  0  0  0  0  0  0
  1  2  1  0
  2  3  1  0
  3  4  1  0
  4  5  1  0
  5  6  1  0
  6  7  1  0
  7  8  1  0
  8  9  2  0
  8 10  1  0
 10 11  2  0
 11 12  1  0
 12 13  2  0
 13 14  1  0
 14 15  2  0
 15 16  1  0
 16 17  2  0
 17 18  1  0
 18 19  2  0
 18 20  2  0
 18 21  1  0
 21 22  1  0
 22 23  1  0
 23 24  1  0
 24 25  1  0
 24 26  1  0
 26 27  1  0
 17 28  1  0
 28 29  2  0
 13 30  1  0
 30 10  1  0
 29 14  1  0
 27 21  1  0
  1 31  1  0
  1 32  1  0
  1 33  1  0
  2 34  1  0
  2 35  1  0
  4 36  1  0
  4 37  1  0
  5 38  1  0
  5 39  1  0
  6 40  1  0
  6 41  1  0
  7 42  1  0
 15 43  1  0
 16 44  1  0
 22 45  1  0
 22 46  1  0
 23 47  1  0
 23 48  1  0
 24 49  1  0
 25 50  1  0
 25 51  1  0
 25 52  1  0
 26 53  1  0
 26 54  1  0
 27 55  1  0
 27 56  1  0
 28 57  1  0
 29 58  1  0
M  END
$$$$
