
     RDKit          3D

 39 41  0  0  0  0  0  0  0  0999 V2000
    0.0946   -3.9438    0.1657 O   0  0  0  0  0  0  0  0  0  0  0  0
    0.1432   -2.5758    0.1113 C   0  0  0  0  0  0  0  0  0  0  0  0
    1.3554   -1.9226    0.2481 C   0  0  0  0  0  0  0  0  0  0  0  0
    1.4142   -0.5337    0.1942 C   0  0  0  0  0  0  0  0  0  0  0  0
    2.6365    0.2836    0.3250 C   0  0  0  0  0  0  0  0  0  0  0  0
    3.9235   -0.2547    0.5252 C   0  0  0  0  0  0  0  0  0  0  0  0
    5.0470    0.5726    0.6420 C   0  0  0  0  0  0  0  0  0  0  0  0
    4.9120    1.9544    0.5619 C   0  0  0  0  0  0  0  0  0  0  0  0
    3.6556    2.5143    0.3649 C   0  0  0  0  0  0  0  0  0  0  0  0
    2.5344    1.6883    0.2483 C   0  0  0  0  0  0  0  0  0  0  0  0
    0.2260    0.2219   -0.0022 O   0  0  0  0  0  3  0  0  0  0  0  0
   -1.0074   -0.4816   -0.1396 C   0  0  0  0  0  0  0  0  0  0  0  0
   -1.0526   -1.8814   -0.0833 C   0  0  0  0  0  0  0  0  0  0  0  0
   -2.3002   -2.5168   -0.2257 C   0  0  0  0  0  0  0  0  0  0  0  0
   -3.4635   -1.7687   -0.4184 C   0  0  0  0  0  0  0  0  0  0  0  0
   -3.4167   -0.3695   -0.4744 C   0  0  0  0  0  0  0  0  0  0  0  0
   -4.5819    0.3880   -0.6677 C   0  0  0  0  0  0  0  0  0  0  0  0
   -4.5248    1.7811   -0.7220 C   0  0  0  0  0  0  0  0  0  0  0  0
   -3.3053    2.4356   -0.5843 C   0  0  0  0  0  0  0  0  0  0  0  0
   -2.1384    1.6963   -0.3916 C   0  0  0  0  0  0  0  0  0  0  0  0
   -2.1744    0.2886   -0.3337 C   0  0  0  0  0  0  0  0  0  0  0  0
    1.1372   -0.5596    0.7044 O   0  0  0  0  0  1  0  0  0  0  0  0
   -0.0000   -0.0000   -0.0000 Cl  0  0  0  0  0  4  0  0  0  0  0  0
   -0.5425   -0.9923   -0.9075 O   0  0  0  0  0  1  0  0  0  0  0  0
   -1.0181    0.3878    0.9569 O   0  0  0  0  0  1  0  0  0  0  0  0
    0.4234    1.1641   -0.7537 O   0  0  0  0  0  1  0  0  0  0  0  0
    0.9677   -4.3541    0.3035 H   0  0  0  0  0  0  0  0  0  0  0  0
    2.2605   -2.5006    0.3978 H   0  0  0  0  0  0  0  0  0  0  0  0
    4.1005   -1.3251    0.5972 H   0  0  0  0  0  0  0  0  0  0  0  0
    6.0337    0.1383    0.7965 H   0  0  0  0  0  0  0  0  0  0  0  0
    5.7868    2.5954    0.6530 H   0  0  0  0  0  0  0  0  0  0  0  0
    3.5479    3.5956    0.3019 H   0  0  0  0  0  0  0  0  0  0  0  0
    1.5643    2.1625    0.0944 H   0  0  0  0  0  0  0  0  0  0  0  0
   -2.3778   -3.6045   -0.1878 H   0  0  0  0  0  0  0  0  0  0  0  0
   -4.4146   -2.2934   -0.5251 H   0  0  0  0  0  0  0  0  0  0  0  0
   -5.5510   -0.0978   -0.7786 H   0  0  0  0  0  0  0  0  0  0  0  0
   -5.4366    2.3566   -0.8725 H   0  0  0  0  0  0  0  0  0  0  0  0
   -3.2654    3.5225   -0.6273 H   0  0  0  0  0  0  0  0  0  0  0  0
   -1.1931    2.2284   -0.2859 H   0  0  0  0  0  0  0  0  0  0  0  0
  1  2  1  0
  2  3  2  0
  3  4  1  0
  4  5  1  0
  5  6  2  0
  6  7  1  0
  7  8  2  0
  8  9  1  0
  9 10  2  0
  4 11  2  0
 11 12  1  0
 12 13  2  0
 13 14  1  0
 14 15  2  0
 15 16  1  0
 16 17  2  0
 17 18  1  0
 18 19  2  0
 19 20  1  0
 20 21  2  0
 22 23  1  0
 23 24  1  0
 23 25  1  0
 23 26  1  0
 13  2  1  0
 21 16  1  0
 10  5  1  0
 21 12  1  0
  1 27  1  0
  3 28  1  0
  6 29  1  0
  7 30  1  0
  8 31  1  0
  9 32  1  0
 10 33  1  0
 14 34  1  0
 15 35  1  0
 17 36  1  0
 18 37  1  0
 19 38  1  0
 20 39  1  0
M  CHG  6  11   1  22  -1  23   3  24  -1  25  -1  26  -1
M  END
$$$$
