
     RDKit          3D

 71 71  0  0  0  0  0  0  0  0999 V2000
    4.8482   -1.5089    3.4432 C   0  0  0  0  0  0  0  0  0  0  0  0
    4.0915   -1.6479    2.1558 C   0  0  0  0  0  0  0  0  0  0  0  0
    4.4842   -2.5840    1.1985 C   0  0  0  0  0  0  0  0  0  0  0  0
    3.8006   -2.6767   -0.0138 C   0  0  0  0  0  0  0  0  0  0  0  0
    2.7222   -1.8282   -0.2799 C   0  0  0  0  0  0  0  0  0  0  0  0
    2.0829   -1.9355   -1.4818 O   0  0  0  0  0  0  0  0  0  0  0  0
    2.3000   -0.8779    0.6568 C   0  0  0  0  0  0  0  0  0  0  0  0
    1.1397    0.0962    0.4395 C   0  0  2  0  0  0  0  0  0  0  0  0
   -0.1622   -0.5740   -0.0718 C   0  0  0  0  0  0  0  0  0  0  0  0
   -1.3858    0.3515    0.0817 C   0  0  0  0  0  0  0  0  0  0  0  0
   -2.6601   -0.3461   -0.1658 N   0  0  0  0  0  0  0  0  0  0  0  0
   -2.8818   -0.7040   -1.5818 C   0  0  0  0  0  0  0  0  0  0  0  0
   -3.4518    0.4086   -2.4650 C   0  0  0  0  0  0  0  0  0  0  0  0
   -3.7587   -1.9605   -1.6758 C   0  0  0  0  0  0  0  0  0  0  0  0
   -3.8234    0.2350    0.5362 C   0  0  0  0  0  0  0  0  0  0  0  0
   -3.8626   -0.3270    1.9646 C   0  0  0  0  0  0  0  0  0  0  0  0
   -3.8883    1.7683    0.5856 C   0  0  0  0  0  0  0  0  0  0  0  0
    1.5681    1.3335   -0.3465 C   0  0  0  0  0  0  0  0  0  0  0  0
    1.6339    1.3411   -1.7479 C   0  0  0  0  0  0  0  0  0  0  0  0
    2.0346    2.4867   -2.4389 C   0  0  0  0  0  0  0  0  0  0  0  0
    2.3830    3.6394   -1.7387 C   0  0  0  0  0  0  0  0  0  0  0  0
    2.3350    3.6466   -0.3477 C   0  0  0  0  0  0  0  0  0  0  0  0
    1.9337    2.5023    0.3438 C   0  0  0  0  0  0  0  0  0  0  0  0
    3.0153   -0.7952    1.8709 C   0  0  0  0  0  0  0  0  0  0  0  0
   -2.5931   -0.9070    0.9197 O   0  0  0  0  0  0  0  0  0  0  0  0
   -1.6721   -0.1059    0.8694 C   0  0  0  0  0  0  0  0  0  0  0  0
   -1.4309    0.7256    1.9015 O   0  0  0  0  0  0  0  0  0  0  0  0
   -0.7165    0.0865   -0.3018 C   0  0  2  0  0  0  0  0  0  0  0  0
   -1.1445   -0.6421   -1.4602 O   0  0  0  0  0  0  0  0  0  0  0  0
    0.6888   -0.3542    0.1126 C   0  0  1  0  0  0  0  0  0  0  0  0
    0.8944   -1.7337   -0.2225 O   0  0  0  0  0  0  0  0  0  0  0  0
    1.7184    0.5451   -0.5582 C   0  0  0  0  0  0  0  0  0  0  0  0
    2.5306    0.2062   -1.4058 O   0  0  0  0  0  0  0  0  0  0  0  0
    1.6893    1.8167   -0.1128 O   0  0  0  0  0  0  0  0  0  0  0  0
    5.2932   -2.4643    3.7435 H   0  0  0  0  0  0  0  0  0  0  0  0
    5.6457   -0.7685    3.3314 H   0  0  0  0  0  0  0  0  0  0  0  0
    4.1841   -1.1936    4.2550 H   0  0  0  0  0  0  0  0  0  0  0  0
    5.3279   -3.2436    1.3879 H   0  0  0  0  0  0  0  0  0  0  0  0
    4.1262   -3.4147   -0.7417 H   0  0  0  0  0  0  0  0  0  0  0  0
    2.5020   -2.6435   -1.9967 H   0  0  0  0  0  0  0  0  0  0  0  0
    0.8673    0.4543    1.4444 H   0  0  0  0  0  0  0  0  0  0  0  0
   -0.3398   -1.4891    0.5098 H   0  0  0  0  0  0  0  0  0  0  0  0
   -0.0598   -0.8814   -1.1151 H   0  0  0  0  0  0  0  0  0  0  0  0
   -1.2929    1.2288   -0.5681 H   0  0  0  0  0  0  0  0  0  0  0  0
   -1.3664    0.7197    1.1135 H   0  0  0  0  0  0  0  0  0  0  0  0
   -1.9287   -0.9971   -2.0324 H   0  0  0  0  0  0  0  0  0  0  0  0
   -4.4743    0.6768   -2.1832 H   0  0  0  0  0  0  0  0  0  0  0  0
   -2.8300    1.3078   -2.4230 H   0  0  0  0  0  0  0  0  0  0  0  0
   -3.4793    0.0855   -3.5127 H   0  0  0  0  0  0  0  0  0  0  0  0
   -4.7932   -1.7743   -1.3699 H   0  0  0  0  0  0  0  0  0  0  0  0
   -3.7837   -2.3282   -2.7081 H   0  0  0  0  0  0  0  0  0  0  0  0
   -3.3576   -2.7663   -1.0518 H   0  0  0  0  0  0  0  0  0  0  0  0
   -4.7508   -0.1082    0.0635 H   0  0  0  0  0  0  0  0  0  0  0  0
   -3.0048    0.0015    2.5612 H   0  0  0  0  0  0  0  0  0  0  0  0
   -3.8693   -1.4228    1.9536 H   0  0  0  0  0  0  0  0  0  0  0  0
   -4.7714    0.0021    2.4809 H   0  0  0  0  0  0  0  0  0  0  0  0
   -3.0884    2.2001    1.1962 H   0  0  0  0  0  0  0  0  0  0  0  0
   -3.8315    2.2121   -0.4115 H   0  0  0  0  0  0  0  0  0  0  0  0
   -4.8386    2.0876    1.0287 H   0  0  0  0  0  0  0  0  0  0  0  0
    1.3845    0.4485   -2.3167 H   0  0  0  0  0  0  0  0  0  0  0  0
    2.0812    2.4755   -3.5247 H   0  0  0  0  0  0  0  0  0  0  0  0
    2.6982    4.5287   -2.2779 H   0  0  0  0  0  0  0  0  0  0  0  0
    2.6125    4.5429    0.2014 H   0  0  0  0  0  0  0  0  0  0  0  0
    1.9108    2.5291    1.4309 H   0  0  0  0  0  0  0  0  0  0  0  0
    2.7288   -0.0486    2.6103 H   0  0  0  0  0  0  0  0  0  0  0  0
   -2.1227    0.5032    2.5620 H   0  0  0  0  0  0  0  0  0  0  0  0
   -0.7655    1.1489   -0.5674 H   0  0  0  0  0  0  0  0  0  0  0  0
   -1.3824   -1.5358   -1.1400 H   0  0  0  0  0  0  0  0  0  0  0  0
    0.8607   -0.2644    1.1906 H   0  0  0  0  0  0  0  0  0  0  0  0
    1.0257   -1.7523   -1.1926 H   0  0  0  0  0  0  0  0  0  0  0  0
    2.4198    2.2632   -0.5944 H   0  0  0  0  0  0  0  0  0  0  0  0
  1  2  1  0
  2  3  2  0
  3  4  1  0
  4  5  2  0
  5  6  1  0
  5  7  1  0
  7  8  1  0
  8  9  1  0
  9 10  1  0
 10 11  1  0
 11 12  1  0
 12 13  1  0
 12 14  1  0
 11 15  1  0
 15 16  1  0
 15 17  1  0
  8 18  1  0
 18 19  2  0
 19 20  1  0
 20 21  2  0
 21 22  1  0
 22 23  2  0
  7 24  2  0
 25 26  2  0
 26 27  1  0
 26 28  1  0
 28 29  1  0
 28 30  1  0
 30 31  1  0
 30 32  1  0
 32 33  2  0
 32 34  1  0
 24  2  1  0
 23 18  1  0
  1 35  1  0
  1 36  1  0
  1 37  1  0
  3 38  1  0
  4 39  1  0
  6 40  1  0
  8 41  1  1
  9 42  1  0
  9 43  1  0
 10 44  1  0
 10 45  1  0
 12 46  1  0
 13 47  1  0
 13 48  1  0
 13 49  1  0
 14 50  1  0
 14 51  1  0
 14 52  1  0
 15 53  1  0
 16 54  1  0
 16 55  1  0
 16 56  1  0
 17 57  1  0
 17 58  1  0
 17 59  1  0
 19 60  1  0
 20 61  1  0
 21 62  1  0
 22 63  1  0
 23 64  1  0
 24 65  1  0
 27 66  1  0
 28 67  1  6
 29 68  1  0
 30 69  1  1
 31 70  1  0
 34 71  1  0
M  END
$$$$
