
     RDKit          3D

 15 14  0  0  0  0  0  0  0  0999 V2000
   -1.6336    1.2526    1.0955 O   0  0  0  0  0  0  0  0  0  0  0  0
   -1.9931    0.6008    0.1268 C   0  0  0  0  0  0  0  0  0  0  0  0
   -3.1250    0.9206   -0.5322 O   0  0  0  0  0  0  0  0  0  0  0  0
   -1.3167   -0.6378   -0.4380 C   0  0  0  0  0  0  0  0  0  0  0  0
    0.0154   -0.7887    0.1166 N   0  0  0  0  0  0  0  0  0  0  0  0
    1.0988   -0.1657   -0.4735 C   0  0  0  0  0  0  0  0  0  0  0  0
    1.0830    0.3712   -1.5697 O   0  0  0  0  0  0  0  0  0  0  0  0
    2.3721   -0.1918    0.4168 C   0  0  0  0  0  0  0  0  0  0  0  0
    2.3913   -0.6864    1.5300 O   0  0  0  0  0  0  0  0  0  0  0  0
    3.4435    0.3745   -0.1430 O   0  0  0  0  0  0  0  0  0  0  0  0
   -3.4470    1.7285   -0.0792 H   0  0  0  0  0  0  0  0  0  0  0  0
   -1.8977   -1.5188   -0.1532 H   0  0  0  0  0  0  0  0  0  0  0  0
   -1.2569   -0.5548   -1.5271 H   0  0  0  0  0  0  0  0  0  0  0  0
    0.1116   -0.9978    1.1072 H   0  0  0  0  0  0  0  0  0  0  0  0
    4.1543    0.2935    0.5232 H   0  0  0  0  0  0  0  0  0  0  0  0
  1  2  2  0
  2  3  1  0
  2  4  1  0
  4  5  1  0
  5  6  1  0
  6  7  2  0
  6  8  1  0
  8  9  2  0
  8 10  1  0
  3 11  1  0
  4 12  1  0
  4 13  1  0
  5 14  1  0
 10 15  1  0
M  END
$$$$
