
     RDKit          3D

 35 36  0  0  0  0  0  0  0  0999 V2000
    1.2729   -1.3171    1.3547 C   0  0  0  0  0  0  0  0  0  0  0  0
    2.2398   -0.4753    0.6181 C   0  0  0  0  0  0  0  0  0  0  0  0
    3.4117   -0.2263    1.2642 O   0  0  0  0  0  0  0  0  0  0  0  0
    4.1815    0.5541    0.4465 C   0  0  0  0  0  0  0  0  0  0  0  0
    5.4904    0.9778    0.8670 C   0  0  0  0  0  0  0  0  0  0  0  0
    6.2852    1.6672    0.2426 O   0  0  0  0  0  0  0  0  0  0  0  0
    5.8113    0.5255    2.1005 O   0  0  0  0  0  0  0  0  0  0  0  0
    3.4894    0.8006   -0.7230 C   0  0  0  0  0  0  0  0  0  0  0  0
    2.2242    0.1478   -0.6181 C   0  0  0  0  0  0  0  0  0  0  0  0
    1.1397    0.1285   -1.6401 C   0  0  0  0  0  0  0  0  0  0  0  0
    0.4263    1.7810   -1.9189 S   0  0  0  0  0  0  0  0  0  0  0  0
   -0.5071    1.9844   -0.3692 C   0  0  0  0  0  0  0  0  0  0  0  0
   -1.6988    1.1018   -0.3254 C   0  0  0  0  0  0  0  0  0  0  0  0
   -2.9271    1.1334   -0.9490 C   0  0  0  0  0  0  0  0  0  0  0  0
   -3.6574   -0.0048   -0.4937 C   0  0  0  0  0  0  0  0  0  0  0  0
   -4.9970   -0.3854   -0.8816 C   0  0  0  0  0  0  0  0  0  0  0  0
   -5.7042    0.2342   -1.6629 O   0  0  0  0  0  0  0  0  0  0  0  0
   -5.4615   -1.5195   -0.3128 O   0  0  0  0  0  0  0  0  0  0  0  0
   -2.8106   -0.6534    0.3901 C   0  0  0  0  0  0  0  0  0  0  0  0
   -2.9288   -1.8770    1.2133 C   0  0  0  0  0  0  0  0  0  0  0  0
   -1.6270    0.0153    0.4925 O   0  0  0  0  0  0  0  0  0  0  0  0
    0.6518   -0.6967    2.0074 H   0  0  0  0  0  0  0  0  0  0  0  0
    0.6196   -1.8627    0.6677 H   0  0  0  0  0  0  0  0  0  0  0  0
    1.7920   -2.0540    1.9758 H   0  0  0  0  0  0  0  0  0  0  0  0
    6.7080    0.8850    2.2485 H   0  0  0  0  0  0  0  0  0  0  0  0
    3.8542    1.3920   -1.5531 H   0  0  0  0  0  0  0  0  0  0  0  0
    0.3500   -0.5851   -1.3887 H   0  0  0  0  0  0  0  0  0  0  0  0
    1.5637   -0.2058   -2.5939 H   0  0  0  0  0  0  0  0  0  0  0  0
    0.1465    1.8218    0.4930 H   0  0  0  0  0  0  0  0  0  0  0  0
   -0.8357    3.0282   -0.3199 H   0  0  0  0  0  0  0  0  0  0  0  0
   -3.2648    1.8810   -1.6551 H   0  0  0  0  0  0  0  0  0  0  0  0
   -6.3599   -1.6020   -0.6939 H   0  0  0  0  0  0  0  0  0  0  0  0
   -3.7697   -1.7928    1.9084 H   0  0  0  0  0  0  0  0  0  0  0  0
   -3.0858   -2.7535    0.5773 H   0  0  0  0  0  0  0  0  0  0  0  0
   -2.0225   -2.0482    1.8029 H   0  0  0  0  0  0  0  0  0  0  0  0
  1  2  1  0
  2  3  1  0
  3  4  1  0
  4  5  1  0
  5  6  2  0
  5  7  1  0
  4  8  2  0
  8  9  1  0
  9 10  1  0
 10 11  1  0
 11 12  1  0
 12 13  1  0
 13 14  2  0
 14 15  1  0
 15 16  1  0
 16 17  2  0
 16 18  1  0
 15 19  2  0
 19 20  1  0
 19 21  1  0
  9  2  2  0
 21 13  1  0
  1 22  1  0
  1 23  1  0
  1 24  1  0
  7 25  1  0
  8 26  1  0
 10 27  1  0
 10 28  1  0
 12 29  1  0
 12 30  1  0
 14 31  1  0
 18 32  1  0
 20 33  1  0
 20 34  1  0
 20 35  1  0
M  END
$$$$
