
     RDKit          3D

 24 25  0  0  0  0  0  0  0  0999 V2000
   -4.2058   -2.3085   -1.0036 O   0  0  0  0  0  0  0  0  0  0  0  0
   -3.3096   -1.4928   -0.8240 C   0  0  0  0  0  0  0  0  0  0  0  0
   -3.5431   -0.0528   -1.0255 C   0  0  0  0  0  0  0  0  0  0  0  0
   -2.5736    0.8443   -0.8325 C   0  0  0  0  0  0  0  0  0  0  0  0
   -1.2118    0.4203   -0.4038 C   0  0  0  0  0  0  0  0  0  0  0  0
   -0.2484    1.3012   -0.2110 N   0  0  0  0  0  4  0  0  0  0  0  0
   -0.4602    2.5527   -0.3886 O   0  0  0  0  0  1  0  0  0  0  0  0
    1.0461    0.8164    0.2042 C   0  0  0  0  0  0  0  0  0  0  0  0
    2.0974    1.7026    0.4216 C   0  0  0  0  0  0  0  0  0  0  0  0
    3.3432    1.2042    0.8241 C   0  0  0  0  0  0  0  0  0  0  0  0
    3.5977   -0.1664    1.0251 C   0  0  0  0  0  0  0  0  0  0  0  0
    4.7353   -0.6060    1.3912 O   0  0  0  0  0  1  0  0  0  0  0  0
    2.4991   -1.0152    0.7907 C   0  0  0  0  0  0  0  0  0  0  0  0
    1.2450   -0.5433    0.3883 C   0  0  0  0  0  0  0  0  0  0  0  0
    0.2645   -1.4789    0.1957 O   0  0  0  0  0  0  0  0  0  0  0  0
   -0.9788   -1.0301   -0.2015 C   0  0  0  0  0  0  0  0  0  0  0  0
   -1.9646   -1.9099   -0.4007 C   0  0  0  0  0  0  0  0  0  0  0  0
    0.0000    0.0000    0.0000 Na  0  0  0  0  0 15  0  0  0  0  0  0
   -4.5392    0.2360   -1.3371 H   0  0  0  0  0  0  0  0  0  0  0  0
   -2.7547    1.9048   -0.9835 H   0  0  0  0  0  0  0  0  0  0  0  0
    1.9730    2.7724    0.2859 H   0  0  0  0  0  0  0  0  0  0  0  0
    4.1591    1.9077    0.9914 H   0  0  0  0  0  0  0  0  0  0  0  0
    2.6414   -2.0861    0.9316 H   0  0  0  0  0  0  0  0  0  0  0  0
   -1.8119   -2.9725   -0.2576 H   0  0  0  0  0  0  0  0  0  0  0  0
  1  2  2  0
  2  3  1  0
  3  4  2  0
  4  5  1  0
  5  6  2  0
  6  7  1  0
  6  8  1  0
  8  9  2  0
  9 10  1  0
 10 11  2  0
 11 12  1  0
 11 13  1  0
 13 14  2  0
 14 15  1  0
 15 16  1  0
 16 17  2  0
 17  2  1  0
 16  5  1  0
 14  8  1  0
  3 19  1  0
  4 20  1  0
  9 21  1  0
 10 22  1  0
 13 23  1  0
 17 24  1  0
M  CHG  4   6   1   7  -1  12  -1  18   1
M  END
$$$$
