
     RDKit          3D

 47 50  0  0  0  0  0  0  0  0999 V2000
    2.4677   -2.0030    3.1706 C   0  0  0  0  0  0  0  0  0  0  0  0
    1.3883   -1.4567    2.4218 O   0  0  0  0  0  0  0  0  0  0  0  0
    1.6509   -1.1079    1.1170 C   0  0  0  0  0  0  0  0  0  0  0  0
    2.9306   -0.9537    0.5735 C   0  0  0  0  0  0  0  0  0  0  0  0
    3.0854   -0.5622   -0.7601 C   0  0  0  0  0  0  0  0  0  0  0  0
    4.4077   -0.4228   -1.2721 N   0  0  0  0  0  0  0  0  0  0  0  0
    4.8899    0.9814   -2.0620 S   0  0  0  0  0  6  0  0  0  0  0  0
    4.5935    2.2379   -0.8324 C   0  0  0  0  0  0  0  0  0  0  0  0
    6.3243    0.8592   -2.2188 O   0  0  0  0  0  0  0  0  0  0  0  0
    4.0321    1.2317   -3.1978 O   0  0  0  0  0  0  0  0  0  0  0  0
    1.9629   -0.3587   -1.5583 C   0  0  0  0  0  0  0  0  0  0  0  0
    0.6825   -0.5030   -1.0192 C   0  0  0  0  0  0  0  0  0  0  0  0
    0.5102   -0.8527    0.3249 C   0  0  0  0  0  0  0  0  0  0  0  0
   -0.7834   -1.0756    0.8829 N   0  0  0  0  0  0  0  0  0  0  0  0
   -1.9708   -0.4044    0.4553 C   0  0  0  0  0  0  0  0  0  0  0  0
   -2.8357   -1.0478   -0.4656 C   0  0  0  0  0  0  0  0  0  0  0  0
   -2.6139   -2.3504   -0.9749 C   0  0  0  0  0  0  0  0  0  0  0  0
   -3.4995   -2.9331   -1.8790 C   0  0  0  0  0  0  0  0  0  0  0  0
   -4.6208   -2.2248   -2.2846 C   0  0  0  0  0  0  0  0  0  0  0  0
   -4.8464   -0.9414   -1.7812 C   0  0  0  0  0  0  0  0  0  0  0  0
   -3.9770   -0.3402   -0.8797 C   0  0  0  0  0  0  0  0  0  0  0  0
   -4.2669    0.8941   -0.4429 N   0  0  0  0  0  0  0  0  0  0  0  0
   -3.4435    1.5020    0.4233 C   0  0  0  0  0  0  0  0  0  0  0  0
   -3.7761    2.7818    0.8479 C   0  0  0  0  0  0  0  0  0  0  0  0
   -2.9785    3.4969    1.7435 C   0  0  0  0  0  0  0  0  0  0  0  0
   -1.8139    2.9240    2.2307 C   0  0  0  0  0  0  0  0  0  0  0  0
   -1.4590    1.6401    1.8200 C   0  0  0  0  0  0  0  0  0  0  0  0
   -2.2669    0.9063    0.9139 C   0  0  0  0  0  0  0  0  0  0  0  0
    2.9212   -2.8560    2.6548 H   0  0  0  0  0  0  0  0  0  0  0  0
    2.0650   -2.3640    4.1218 H   0  0  0  0  0  0  0  0  0  0  0  0
    3.2135   -1.2340    3.3956 H   0  0  0  0  0  0  0  0  0  0  0  0
    3.8148   -1.1212    1.1772 H   0  0  0  0  0  0  0  0  0  0  0  0
    5.1713   -0.8530   -0.7517 H   0  0  0  0  0  0  0  0  0  0  0  0
    4.9768    3.1831   -1.2236 H   0  0  0  0  0  0  0  0  0  0  0  0
    3.5211    2.3248   -0.6520 H   0  0  0  0  0  0  0  0  0  0  0  0
    5.1291    1.9735    0.0812 H   0  0  0  0  0  0  0  0  0  0  0  0
    2.0588   -0.1079   -2.6119 H   0  0  0  0  0  0  0  0  0  0  0  0
   -0.1763   -0.3492   -1.6677 H   0  0  0  0  0  0  0  0  0  0  0  0
   -0.6906   -1.0310    1.8996 H   0  0  0  0  0  0  0  0  0  0  0  0
   -1.7382   -2.9157   -0.6614 H   0  0  0  0  0  0  0  0  0  0  0  0
   -3.3116   -3.9329   -2.2609 H   0  0  0  0  0  0  0  0  0  0  0  0
   -5.3226   -2.6631   -2.9890 H   0  0  0  0  0  0  0  0  0  0  0  0
   -5.7287   -0.3920   -2.1021 H   0  0  0  0  0  0  0  0  0  0  0  0
   -4.6871    3.2382    0.4664 H   0  0  0  0  0  0  0  0  0  0  0  0
   -3.2712    4.4970    2.0517 H   0  0  0  0  0  0  0  0  0  0  0  0
   -1.1820    3.4713    2.9250 H   0  0  0  0  0  0  0  0  0  0  0  0
   -0.5374    1.2151    2.2091 H   0  0  0  0  0  0  0  0  0  0  0  0
  1  2  1  0
  2  3  1  0
  3  4  2  0
  4  5  1  0
  5  6  1  0
  6  7  1  0
  7  8  1  0
  7  9  2  0
  7 10  2  0
  5 11  2  0
 11 12  1  0
 12 13  2  0
 13 14  1  0
 14 15  1  0
 15 16  1  0
 16 17  2  0
 17 18  1  0
 18 19  2  0
 19 20  1  0
 20 21  2  0
 21 22  1  0
 22 23  2  0
 23 24  1  0
 24 25  2  0
 25 26  1  0
 26 27  2  0
 27 28  1  0
 13  3  1  0
 28 15  2  0
 21 16  1  0
 28 23  1  0
  1 29  1  0
  1 30  1  0
  1 31  1  0
  4 32  1  0
  6 33  1  0
  8 34  1  0
  8 35  1  0
  8 36  1  0
 11 37  1  0
 12 38  1  0
 14 39  1  0
 17 40  1  0
 18 41  1  0
 19 42  1  0
 20 43  1  0
 24 44  1  0
 25 45  1  0
 26 46  1  0
 27 47  1  0
M  END
$$$$
