
     RDKit          3D

 31 33  0  0  0  0  0  0  0  0999 V2000
   -4.0608   -1.2342   -1.5672 C   0  0  0  0  0  0  0  0  0  0  0  0
   -3.3579   -0.1914   -0.7493 C   0  0  0  0  0  0  0  0  0  0  0  0
   -3.9934    1.0159   -0.4407 C   0  0  0  0  0  0  0  0  0  0  0  0
   -3.3215    2.0020    0.2807 C   0  0  0  0  0  0  0  0  0  0  0  0
   -2.0053    1.7923    0.6950 C   0  0  0  0  0  0  0  0  0  0  0  0
   -1.3456    0.5932    0.3896 C   0  0  0  0  0  0  0  0  0  0  0  0
    0.0432    0.3621    0.8338 C   0  0  0  0  0  0  0  0  0  0  0  0
    0.3174    0.4062    2.1512 C   0  0  0  0  0  0  0  0  0  0  0  0
    1.7280    0.1510    2.5339 C   0  0  0  0  0  0  0  0  0  0  0  0
    2.7104   -0.1121    1.7270 N   0  0  0  0  0  0  0  0  0  0  0  0
    2.3911   -0.1549    0.3918 C   0  0  0  0  0  0  0  0  0  0  0  0
    3.1669   -0.4028   -0.7273 C   0  0  0  0  0  0  0  0  0  0  0  0
    4.5807   -0.6951   -0.8023 C   0  0  0  0  0  0  0  0  0  0  0  0
    5.2423   -0.7305    0.3888 N   0  0  0  0  0  0  0  0  0  0  0  0
    5.1666   -0.9016   -1.8590 O   0  0  0  0  0  0  0  0  0  0  0  0
    2.2666   -0.3080   -1.8041 C   0  0  0  0  0  0  0  0  0  0  0  0
    1.0203   -0.0276   -1.4278 N   0  0  0  0  0  0  0  0  0  0  0  0
    1.0829    0.0736   -0.0723 N   0  0  0  0  0  0  0  0  0  0  0  0
   -2.0308   -0.3890   -0.3410 C   0  0  0  0  0  0  0  0  0  0  0  0
   -5.1426   -1.1981   -1.4010 H   0  0  0  0  0  0  0  0  0  0  0  0
   -3.7238   -2.2389   -1.2910 H   0  0  0  0  0  0  0  0  0  0  0  0
   -3.8608   -1.0729   -2.6309 H   0  0  0  0  0  0  0  0  0  0  0  0
   -5.0144    1.1984   -0.7688 H   0  0  0  0  0  0  0  0  0  0  0  0
   -3.8210    2.9396    0.5110 H   0  0  0  0  0  0  0  0  0  0  0  0
   -1.4960    2.5818    1.2426 H   0  0  0  0  0  0  0  0  0  0  0  0
   -0.4075    0.5996    2.9301 H   0  0  0  0  0  0  0  0  0  0  0  0
    1.9315    0.1956    3.6172 H   0  0  0  0  0  0  0  0  0  0  0  0
    4.7475   -0.5584    1.2586 H   0  0  0  0  0  0  0  0  0  0  0  0
    6.2306   -0.9298    0.3958 H   0  0  0  0  0  0  0  0  0  0  0  0
    2.4813   -0.4363   -2.8585 H   0  0  0  0  0  0  0  0  0  0  0  0
   -1.5258   -1.3170   -0.6058 H   0  0  0  0  0  0  0  0  0  0  0  0
  1  2  1  0
  2  3  2  0
  3  4  1  0
  4  5  2  0
  5  6  1  0
  6  7  1  0
  7  8  2  0
  8  9  1  0
  9 10  2  0
 10 11  1  0
 11 12  2  0
 12 13  1  0
 13 14  1  0
 13 15  2  0
 12 16  1  0
 16 17  2  0
 17 18  1  0
  6 19  2  0
 19  2  1  0
 18  7  1  0
 18 11  1  0
  1 20  1  0
  1 21  1  0
  1 22  1  0
  3 23  1  0
  4 24  1  0
  5 25  1  0
  8 26  1  0
  9 27  1  0
 14 28  1  0
 14 29  1  0
 16 30  1  0
 19 31  1  0
M  END
$$$$
