
     RDKit          3D

 52 54  0  0  0  0  0  0  0  0999 V2000
    4.1198   -2.5533   -0.3262 C   0  0  0  0  0  0  0  0  0  0  0  0
    4.6444   -1.4436    0.3956 O   0  0  0  0  0  0  0  0  0  0  0  0
    3.8766   -0.3007    0.2734 C   0  0  0  0  0  0  0  0  0  0  0  0
    4.3192    0.7994    0.9623 C   0  0  0  0  0  0  0  0  0  0  0  0
    3.5468    1.9233    0.8212 C   0  0  0  0  0  0  0  0  0  0  0  0
    3.9762    3.0477    1.5010 O   0  0  0  0  0  0  0  0  0  0  0  0
    3.1386    4.1811    1.2908 C   0  0  0  0  0  0  0  0  0  0  0  0
    2.4313    1.9764    0.0789 N   0  0  0  0  0  0  0  0  0  0  0  0
    2.0855    0.8348   -0.5252 C   0  0  0  0  0  0  0  0  0  0  0  0
    0.9615    0.9178   -1.3085 O   0  0  0  0  0  0  0  0  0  0  0  0
    0.1615   -0.2867   -1.3110 C   0  0  2  0  0  0  0  0  0  0  0  0
   -0.5171   -0.2962   -2.6746 C   0  0  0  0  0  0  0  0  0  0  0  0
   -0.5733    0.6094   -3.4930 O   0  0  0  0  0  0  0  0  0  0  0  0
   -1.0545   -1.4898   -3.0057 O   0  0  0  0  0  0  0  0  0  0  0  0
   -0.8608   -0.3251   -0.0988 C   0  0  0  0  0  0  0  0  0  0  0  0
   -0.0157   -0.2691    1.0966 O   0  0  0  0  0  0  0  0  0  0  0  0
   -0.6435   -0.4574    2.3591 C   0  0  0  0  0  0  0  0  0  0  0  0
   -1.6471   -1.6658   -0.0000 C   0  0  0  0  0  0  0  0  0  0  0  0
   -2.9781   -1.7239    0.4647 C   0  0  0  0  0  0  0  0  0  0  0  0
   -3.6598   -2.9385    0.5912 C   0  0  0  0  0  0  0  0  0  0  0  0
   -3.0196   -4.1332    0.2855 C   0  0  0  0  0  0  0  0  0  0  0  0
   -1.6923   -4.1143   -0.1264 C   0  0  0  0  0  0  0  0  0  0  0  0
   -1.0113   -2.8988   -0.2525 C   0  0  0  0  0  0  0  0  0  0  0  0
   -1.7280    0.9655   -0.1930 C   0  0  0  0  0  0  0  0  0  0  0  0
   -1.3560    2.1386    0.4933 C   0  0  0  0  0  0  0  0  0  0  0  0
   -2.1033    3.3140    0.3847 C   0  0  0  0  0  0  0  0  0  0  0  0
   -3.2311    3.3513   -0.4283 C   0  0  0  0  0  0  0  0  0  0  0  0
   -3.6043    2.2178   -1.1429 C   0  0  0  0  0  0  0  0  0  0  0  0
   -2.8562    1.0422   -1.0350 C   0  0  0  0  0  0  0  0  0  0  0  0
    2.7726   -0.3147   -0.4900 N   0  0  0  0  0  0  0  0  0  0  0  0
    4.0984   -2.3516   -1.4028 H   0  0  0  0  0  0  0  0  0  0  0  0
    4.7870   -3.4046   -0.1603 H   0  0  0  0  0  0  0  0  0  0  0  0
    3.1260   -2.8322    0.0415 H   0  0  0  0  0  0  0  0  0  0  0  0
    5.2127    0.7834    1.5678 H   0  0  0  0  0  0  0  0  0  0  0  0
    3.1237    4.4734    0.2351 H   0  0  0  0  0  0  0  0  0  0  0  0
    3.5587    5.0154    1.8609 H   0  0  0  0  0  0  0  0  0  0  0  0
    2.1247    3.9999    1.6644 H   0  0  0  0  0  0  0  0  0  0  0  0
    0.8216   -1.1597   -1.3150 H   0  0  0  0  0  0  0  0  0  0  0  0
   -1.4057   -1.3429   -3.9098 H   0  0  0  0  0  0  0  0  0  0  0  0
   -0.8207   -1.5200    2.5468 H   0  0  0  0  0  0  0  0  0  0  0  0
    0.0476   -0.1019    3.1290 H   0  0  0  0  0  0  0  0  0  0  0  0
   -1.5750    0.1065    2.4528 H   0  0  0  0  0  0  0  0  0  0  0  0
   -3.5080   -0.8211    0.7621 H   0  0  0  0  0  0  0  0  0  0  0  0
   -4.6887   -2.9476    0.9422 H   0  0  0  0  0  0  0  0  0  0  0  0
   -3.5469   -5.0777    0.3870 H   0  0  0  0  0  0  0  0  0  0  0  0
   -1.1773   -5.0474   -0.3407 H   0  0  0  0  0  0  0  0  0  0  0  0
    0.0365   -2.9437   -0.5371 H   0  0  0  0  0  0  0  0  0  0  0  0
   -0.4572    2.1563    1.1082 H   0  0  0  0  0  0  0  0  0  0  0  0
   -1.7909    4.2043    0.9241 H   0  0  0  0  0  0  0  0  0  0  0  0
   -3.8068    4.2682   -0.5197 H   0  0  0  0  0  0  0  0  0  0  0  0
   -4.4718    2.2504   -1.7970 H   0  0  0  0  0  0  0  0  0  0  0  0
   -3.1701    0.1842   -1.6270 H   0  0  0  0  0  0  0  0  0  0  0  0
  1  2  1  0
  2  3  1  0
  3  4  2  0
  4  5  1  0
  5  6  1  0
  6  7  1  0
  5  8  2  0
  8  9  1  0
  9 10  1  0
 10 11  1  0
 11 12  1  0
 12 13  2  0
 12 14  1  0
 11 15  1  0
 15 16  1  0
 16 17  1  0
 15 18  1  0
 18 19  2  0
 19 20  1  0
 20 21  2  0
 21 22  1  0
 22 23  2  0
 15 24  1  0
 24 25  2  0
 25 26  1  0
 26 27  2  0
 27 28  1  0
 28 29  2  0
  9 30  2  0
 30  3  1  0
 23 18  1  0
 29 24  1  0
  1 31  1  0
  1 32  1  0
  1 33  1  0
  4 34  1  0
  7 35  1  0
  7 36  1  0
  7 37  1  0
 11 38  1  6
 14 39  1  0
 17 40  1  0
 17 41  1  0
 17 42  1  0
 19 43  1  0
 20 44  1  0
 21 45  1  0
 22 46  1  0
 23 47  1  0
 25 48  1  0
 26 49  1  0
 27 50  1  0
 28 51  1  0
 29 52  1  0
M  END
$$$$
