
     RDKit          3D

 66 70  0  0  0  0  0  0  0  0999 V2000
    6.2055    2.4333   -2.7716 C   0  0  0  0  0  0  0  0  0  0  0  0
    7.3065    1.7602   -2.1769 O   0  0  0  0  0  0  0  0  0  0  0  0
    7.0420    0.5874   -1.5217 C   0  0  0  0  0  0  0  0  0  0  0  0
    8.1732   -0.0811   -1.0603 C   0  0  0  0  0  0  0  0  0  0  0  0
    8.0412   -1.2841   -0.3785 C   0  0  0  0  0  0  0  0  0  0  0  0
    6.7703   -1.8172   -0.1520 C   0  0  0  0  0  0  0  0  0  0  0  0
    5.6010   -1.1689   -0.5894 C   0  0  0  0  0  0  0  0  0  0  0  0
    4.3503   -1.7416   -0.3401 N   0  0  0  0  0  0  0  0  0  0  0  0
    4.1443   -2.2736    1.0336 C   0  0  0  0  0  0  0  0  0  0  0  0
    2.6546   -2.3408    1.4258 C   0  0  0  0  0  0  0  0  0  0  0  0
    1.9628   -1.0682    1.1765 N   0  0  0  0  0  0  0  0  0  0  0  0
    1.1574   -0.5234    2.1632 C   0  0  0  0  0  0  0  0  0  0  0  0
    0.9767   -1.0812    3.2446 O   0  0  0  0  0  0  0  0  0  0  0  0
    0.5290    0.8256    1.8591 C   0  0  0  0  0  0  0  0  0  0  0  0
   -0.4100    1.2911    2.9686 C   0  0  0  0  0  0  0  0  0  0  0  0
   -1.7245    0.6799    2.8933 N   0  0  0  0  0  0  0  0  0  0  0  0
   -2.1409   -0.3965    3.6259 C   0  0  0  0  0  0  0  0  0  0  0  0
   -3.3987   -0.6897    3.3852 N   0  0  0  0  0  0  0  0  0  0  0  0
   -3.8161    0.2351    2.4637 C   0  0  0  0  0  0  0  0  0  0  0  0
   -5.0778    0.3885    1.8758 C   0  0  0  0  0  0  0  0  0  0  0  0
   -5.2435    1.4042    0.9252 C   0  0  0  0  0  0  0  0  0  0  0  0
   -6.8469    1.6393    0.1847 S   0  0  0  0  0  6  0  0  0  0  0  0
   -7.8378    1.1833    1.1358 O   0  0  0  0  0  0  0  0  0  0  0  0
   -6.8815    2.9872   -0.3452 O   0  0  0  0  0  0  0  0  0  0  0  0
   -6.8455    0.5792   -1.1194 N   0  0  0  0  0  0  0  0  0  0  0  0
   -6.9497   -0.8728   -0.8878 C   0  0  0  0  0  0  0  0  0  0  0  0
   -6.5438   -1.4749   -2.2262 C   0  0  0  0  0  0  0  0  0  0  0  0
   -5.4513   -0.5291   -2.6900 C   0  0  0  0  0  0  0  0  0  0  0  0
   -5.9810    0.8421   -2.2858 C   0  0  0  0  0  0  0  0  0  0  0  0
   -4.1991    2.2806    0.6041 C   0  0  0  0  0  0  0  0  0  0  0  0
   -2.9392    2.1450    1.1977 C   0  0  0  0  0  0  0  0  0  0  0  0
   -2.7818    1.1052    2.1222 C   0  0  0  0  0  0  0  0  0  0  0  0
    2.2654   -0.4172   -0.1080 C   0  0  0  0  0  0  0  0  0  0  0  0
    3.1333   -1.2885   -1.0332 C   0  0  0  0  0  0  0  0  0  0  0  0
    5.7717    0.0429   -1.2840 C   0  0  0  0  0  0  0  0  0  0  0  0
    5.7016    1.7975   -3.5074 H   0  0  0  0  0  0  0  0  0  0  0  0
    6.5946    3.3091   -3.2999 H   0  0  0  0  0  0  0  0  0  0  0  0
    5.5044    2.7894   -2.0096 H   0  0  0  0  0  0  0  0  0  0  0  0
    9.1608    0.3361   -1.2389 H   0  0  0  0  0  0  0  0  0  0  0  0
    8.9237   -1.8125   -0.0285 H   0  0  0  0  0  0  0  0  0  0  0  0
    6.7072   -2.7745    0.3590 H   0  0  0  0  0  0  0  0  0  0  0  0
    4.5754   -3.2780    1.1106 H   0  0  0  0  0  0  0  0  0  0  0  0
    4.6500   -1.6243    1.7610 H   0  0  0  0  0  0  0  0  0  0  0  0
    2.5664   -2.6406    2.4750 H   0  0  0  0  0  0  0  0  0  0  0  0
    2.1402   -3.1034    0.8286 H   0  0  0  0  0  0  0  0  0  0  0  0
    1.3459    1.5509    1.7693 H   0  0  0  0  0  0  0  0  0  0  0  0
   -0.0053    0.7765    0.9051 H   0  0  0  0  0  0  0  0  0  0  0  0
   -0.5629    2.3742    2.8925 H   0  0  0  0  0  0  0  0  0  0  0  0
   -0.0049    1.0998    3.9689 H   0  0  0  0  0  0  0  0  0  0  0  0
   -1.4917   -0.9250    4.3141 H   0  0  0  0  0  0  0  0  0  0  0  0
   -5.8907   -0.2691    2.1647 H   0  0  0  0  0  0  0  0  0  0  0  0
   -7.9692   -1.1590   -0.6166 H   0  0  0  0  0  0  0  0  0  0  0  0
   -6.2567   -1.2031   -0.1100 H   0  0  0  0  0  0  0  0  0  0  0  0
   -6.2010   -2.5090   -2.1340 H   0  0  0  0  0  0  0  0  0  0  0  0
   -7.3870   -1.4502   -2.9271 H   0  0  0  0  0  0  0  0  0  0  0  0
   -5.2529   -0.6008   -3.7631 H   0  0  0  0  0  0  0  0  0  0  0  0
   -4.5184   -0.7437   -2.1544 H   0  0  0  0  0  0  0  0  0  0  0  0
   -5.1583    1.5284   -2.0739 H   0  0  0  0  0  0  0  0  0  0  0  0
   -6.5964    1.2712   -3.0839 H   0  0  0  0  0  0  0  0  0  0  0  0
   -4.3628    3.0902   -0.1061 H   0  0  0  0  0  0  0  0  0  0  0  0
   -2.1325    2.8283    0.9550 H   0  0  0  0  0  0  0  0  0  0  0  0
    1.3223   -0.1755   -0.6079 H   0  0  0  0  0  0  0  0  0  0  0  0
    2.7810    0.5233    0.1169 H   0  0  0  0  0  0  0  0  0  0  0  0
    3.3385   -0.7732   -1.9769 H   0  0  0  0  0  0  0  0  0  0  0  0
    2.5626   -2.1819   -1.3194 H   0  0  0  0  0  0  0  0  0  0  0  0
    4.8999    0.5877   -1.6194 H   0  0  0  0  0  0  0  0  0  0  0  0
  1  2  1  0
  2  3  1  0
  3  4  2  0
  4  5  1  0
  5  6  2  0
  6  7  1  0
  7  8  1  0
  8  9  1  0
  9 10  1  0
 10 11  1  0
 11 12  1  0
 12 13  2  0
 12 14  1  0
 14 15  1  0
 15 16  1  0
 16 17  1  0
 17 18  2  0
 18 19  1  0
 19 20  2  0
 20 21  1  0
 21 22  1  0
 22 23  2  0
 22 24  2  0
 22 25  1  0
 25 26  1  0
 26 27  1  0
 27 28  1  0
 28 29  1  0
 21 30  2  0
 30 31  1  0
 31 32  2  0
 11 33  1  0
 33 34  1  0
  7 35  2  0
 35  3  1  0
 34  8  1  0
 32 16  1  0
 32 19  1  0
 29 25  1  0
  1 36  1  0
  1 37  1  0
  1 38  1  0
  4 39  1  0
  5 40  1  0
  6 41  1  0
  9 42  1  0
  9 43  1  0
 10 44  1  0
 10 45  1  0
 14 46  1  0
 14 47  1  0
 15 48  1  0
 15 49  1  0
 17 50  1  0
 20 51  1  0
 26 52  1  0
 26 53  1  0
 27 54  1  0
 27 55  1  0
 28 56  1  0
 28 57  1  0
 29 58  1  0
 29 59  1  0
 30 60  1  0
 31 61  1  0
 33 62  1  0
 33 63  1  0
 34 64  1  0
 34 65  1  0
 35 66  1  0
M  END
$$$$
