
     RDKit          3D

 38 40  0  0  0  0  0  0  0  0999 V2000
    2.1655   -0.4828   -1.9159 O   0  0  0  0  0  0  0  0  0  0  0  0
    2.7253   -0.4488   -0.8294 C   0  0  0  0  0  0  0  0  0  0  0  0
    2.1376   -0.5084    0.4014 O   0  0  0  0  0  0  0  0  0  0  0  0
    0.7580   -0.3147    0.3032 C   0  0  0  0  0  0  0  0  0  0  0  0
   -0.1244   -1.2953    0.5193 C   0  0  0  0  0  0  0  0  0  0  0  0
   -1.4889   -1.1544    0.4387 O   0  0  0  0  0  0  0  0  0  0  0  0
   -2.0097    0.0929    0.1115 C   0  0  0  0  0  0  0  0  0  0  0  0
   -3.5099    0.1341    0.0031 C   0  0  0  0  0  0  0  0  0  0  0  0
   -4.2402    0.1517    1.6663 S   0  0  0  0  0  0  0  0  0  0  0  0
   -5.9629    0.1290    1.2420 C   0  0  0  0  0  0  0  0  0  0  0  0
   -6.3226    0.2672   -0.0464 N   0  0  0  0  0  0  0  0  0  0  0  0
   -7.6443    0.2503   -0.3038 C   0  0  0  0  0  0  0  0  0  0  0  0
   -8.6057    0.1037    0.6664 C   0  0  0  0  0  0  0  0  0  0  0  0
   -8.1330   -0.0282    1.9491 C   0  0  0  0  0  0  0  0  0  0  0  0
   -6.8247   -0.0182    2.2624 N   0  0  0  0  0  0  0  0  0  0  0  0
   -1.2346    1.1637   -0.1246 C   0  0  0  0  0  0  0  0  0  0  0  0
    0.2314    1.0395   -0.0070 C   0  0  0  0  0  0  0  0  0  0  0  0
    0.9628    2.0146   -0.1382 O   0  0  0  0  0  0  0  0  0  0  0  0
    4.2078   -0.3954   -0.6856 C   0  0  0  0  0  0  0  0  0  0  0  0
    4.8405   -0.2021    0.5526 C   0  0  0  0  0  0  0  0  0  0  0  0
    6.2374   -0.1541    0.6326 C   0  0  0  0  0  0  0  0  0  0  0  0
    7.0049   -0.2971   -0.5314 C   0  0  0  0  0  0  0  0  0  0  0  0
    8.4708   -0.2484   -0.4487 N   0  0  0  0  0  4  0  0  0  0  0  0
    9.1117   -0.3737   -1.5016 O   0  0  0  0  0  0  0  0  0  0  0  0
    8.9788   -0.0888    0.6702 O   0  0  0  0  0  1  0  0  0  0  0  0
    6.3843   -0.4850   -1.7729 C   0  0  0  0  0  0  0  0  0  0  0  0
    4.9881   -0.5316   -1.8450 C   0  0  0  0  0  0  0  0  0  0  0  0
    0.1470   -2.3110    0.7691 H   0  0  0  0  0  0  0  0  0  0  0  0
   -3.8560   -0.7437   -0.5541 H   0  0  0  0  0  0  0  0  0  0  0  0
   -3.8280    1.0289   -0.5438 H   0  0  0  0  0  0  0  0  0  0  0  0
   -7.9155    0.3627   -1.3497 H   0  0  0  0  0  0  0  0  0  0  0  0
   -9.6618    0.0933    0.4369 H   0  0  0  0  0  0  0  0  0  0  0  0
   -8.8099   -0.1489    2.7899 H   0  0  0  0  0  0  0  0  0  0  0  0
   -1.6236    2.1394   -0.3845 H   0  0  0  0  0  0  0  0  0  0  0  0
    4.2623   -0.0761    1.4659 H   0  0  0  0  0  0  0  0  0  0  0  0
    6.7066   -0.0008    1.6032 H   0  0  0  0  0  0  0  0  0  0  0  0
    6.9655   -0.5930   -2.6871 H   0  0  0  0  0  0  0  0  0  0  0  0
    4.5092   -0.6721   -2.8139 H   0  0  0  0  0  0  0  0  0  0  0  0
  1  2  2  0
  2  3  1  0
  3  4  1  0
  4  5  2  0
  5  6  1  0
  6  7  1  0
  7  8  1  0
  8  9  1  0
  9 10  1  0
 10 11  2  0
 11 12  1  0
 12 13  2  0
 13 14  1  0
 14 15  2  0
  7 16  2  0
 16 17  1  0
 17 18  2  0
  2 19  1  0
 19 20  2  0
 20 21  1  0
 21 22  2  0
 22 23  1  0
 23 24  2  0
 23 25  1  0
 22 26  1  0
 26 27  2  0
 17  4  1  0
 27 19  1  0
 15 10  1  0
  5 28  1  0
  8 29  1  0
  8 30  1  0
 12 31  1  0
 13 32  1  0
 14 33  1  0
 16 34  1  0
 20 35  1  0
 21 36  1  0
 26 37  1  0
 27 38  1  0
M  CHG  2  23   1  25  -1
M  END
$$$$
