
     RDKit          3D

 60 63  0  0  0  0  0  0  0  0999 V2000
    4.8968    3.1756    1.4981 C   0  0  0  0  0  0  0  0  0  0  0  0
    4.5309    2.2420    2.6544 C   0  0  0  0  0  0  0  0  0  0  0  0
    4.9564    2.8658    3.9840 C   0  0  0  0  0  0  0  0  0  0  0  0
    5.1789    0.8578    2.4905 C   0  0  0  0  0  0  0  0  0  0  0  0
    4.6811    0.1410    1.3310 N   0  0  0  0  0  0  0  0  0  0  0  0
    3.4738   -0.5255    1.3693 C   0  0  0  0  0  0  0  0  0  0  0  0
    2.7718   -0.6109    2.3691 O   0  0  0  0  0  0  0  0  0  0  0  0
    3.0157   -1.1320    0.0903 C   0  0  0  0  0  0  0  0  0  0  0  0
    3.9243   -1.6357   -0.8481 C   0  0  0  0  0  0  0  0  0  0  0  0
    3.4535   -2.2131   -2.0280 C   0  0  0  0  0  0  0  0  0  0  0  0
    2.0749   -2.2907   -2.2672 C   0  0  0  0  0  0  0  0  0  0  0  0
    1.5774   -2.9110   -3.5221 C   0  0  0  0  0  0  0  0  0  0  0  0
    2.3859   -3.3392   -4.3414 O   0  0  0  0  0  0  0  0  0  0  0  0
    0.1961   -2.9663   -3.6956 N   0  0  0  0  0  0  0  0  0  0  0  0
   -0.2933   -3.5710   -4.9219 C   0  0  0  0  0  0  0  0  0  0  0  0
   -0.6738   -2.4634   -2.7716 C   0  0  0  0  0  0  0  0  0  0  0  0
   -1.9701   -2.4711   -2.8772 N   0  0  0  0  0  0  0  0  0  0  0  0
   -2.3982   -1.8482   -1.7279 N   0  0  0  0  0  0  0  0  0  0  0  0
   -3.7948   -1.7238   -1.3711 C   0  0  0  0  0  0  0  0  0  0  0  0
   -4.3086   -0.2922   -1.5212 C   0  0  0  0  0  0  0  0  0  0  0  0
   -5.3799   -0.0432   -2.0723 O   0  0  0  0  0  0  0  0  0  0  0  0
   -3.5505    0.6714   -0.8873 N   0  0  0  0  0  0  0  0  0  0  0  0
   -4.0067    2.0342   -0.7543 C   0  0  0  0  0  0  0  0  0  0  0  0
   -4.7256    2.2347    0.5538 C   0  0  0  0  0  0  0  0  0  0  0  0
   -6.1141    2.0540    0.6337 C   0  0  0  0  0  0  0  0  0  0  0  0
   -6.7814    2.2155    1.8489 C   0  0  0  0  0  0  0  0  0  0  0  0
   -6.0668    2.5501    2.9981 C   0  0  0  0  0  0  0  0  0  0  0  0
   -4.6845    2.7190    2.9339 C   0  0  0  0  0  0  0  0  0  0  0  0
   -4.0152    2.5586    1.7188 C   0  0  0  0  0  0  0  0  0  0  0  0
   -1.3062   -1.4958   -0.9304 C   0  0  0  0  0  0  0  0  0  0  0  0
   -1.3803   -0.9184    0.1441 O   0  0  0  0  0  0  0  0  0  0  0  0
   -0.2001   -1.9041   -1.6383 N   0  0  0  0  0  0  0  0  0  0  0  0
    1.1586   -1.7960   -1.3318 C   0  0  0  0  0  0  0  0  0  0  0  0
    1.6346   -1.2231   -0.1475 C   0  0  0  0  0  0  0  0  0  0  0  0
    4.4405    4.1618    1.6372 H   0  0  0  0  0  0  0  0  0  0  0  0
    4.5406    2.7805    0.5415 H   0  0  0  0  0  0  0  0  0  0  0  0
    5.9813    3.3128    1.4265 H   0  0  0  0  0  0  0  0  0  0  0  0
    3.4394    2.1308    2.6664 H   0  0  0  0  0  0  0  0  0  0  0  0
    4.4742    3.8386    4.1280 H   0  0  0  0  0  0  0  0  0  0  0  0
    6.0404    3.0165    4.0245 H   0  0  0  0  0  0  0  0  0  0  0  0
    4.6706    2.2238    4.8241 H   0  0  0  0  0  0  0  0  0  0  0  0
    6.2647    0.9463    2.3728 H   0  0  0  0  0  0  0  0  0  0  0  0
    4.9871    0.2442    3.3786 H   0  0  0  0  0  0  0  0  0  0  0  0
    5.1007    0.3533    0.4374 H   0  0  0  0  0  0  0  0  0  0  0  0
    4.9952   -1.6158   -0.6608 H   0  0  0  0  0  0  0  0  0  0  0  0
    4.1608   -2.6116   -2.7540 H   0  0  0  0  0  0  0  0  0  0  0  0
   -1.3847   -3.5962   -4.9701 H   0  0  0  0  0  0  0  0  0  0  0  0
    0.0921   -4.5938   -4.9919 H   0  0  0  0  0  0  0  0  0  0  0  0
    0.0906   -2.9998   -5.7740 H   0  0  0  0  0  0  0  0  0  0  0  0
   -4.3851   -2.3879   -2.0112 H   0  0  0  0  0  0  0  0  0  0  0  0
   -3.9218   -2.0240   -0.3249 H   0  0  0  0  0  0  0  0  0  0  0  0
   -2.8390    0.3594   -0.2302 H   0  0  0  0  0  0  0  0  0  0  0  0
   -4.6519    2.3065   -1.5962 H   0  0  0  0  0  0  0  0  0  0  0  0
   -3.1241    2.6816   -0.8029 H   0  0  0  0  0  0  0  0  0  0  0  0
   -6.6801    1.7770   -0.2553 H   0  0  0  0  0  0  0  0  0  0  0  0
   -7.8584    2.0741    1.8983 H   0  0  0  0  0  0  0  0  0  0  0  0
   -6.5867    2.6734    3.9446 H   0  0  0  0  0  0  0  0  0  0  0  0
   -4.1250    2.9717    3.8312 H   0  0  0  0  0  0  0  0  0  0  0  0
   -2.9349    2.6842    1.6884 H   0  0  0  0  0  0  0  0  0  0  0  0
    0.9530   -0.8390    0.6093 H   0  0  0  0  0  0  0  0  0  0  0  0
  1  2  1  0
  2  3  1  0
  2  4  1  0
  4  5  1  0
  5  6  1  0
  6  7  2  0
  6  8  1  0
  8  9  2  0
  9 10  1  0
 10 11  2  0
 11 12  1  0
 12 13  2  0
 12 14  1  0
 14 15  1  0
 14 16  1  0
 16 17  2  0
 17 18  1  0
 18 19  1  0
 19 20  1  0
 20 21  2  0
 20 22  1  0
 22 23  1  0
 23 24  1  0
 24 25  2  0
 25 26  1  0
 26 27  2  0
 27 28  1  0
 28 29  2  0
 18 30  1  0
 30 31  2  0
 30 32  1  0
 32 33  1  0
 33 34  2  0
 34  8  1  0
 33 11  1  0
 32 16  1  0
 29 24  1  0
  1 35  1  0
  1 36  1  0
  1 37  1  0
  2 38  1  0
  3 39  1  0
  3 40  1  0
  3 41  1  0
  4 42  1  0
  4 43  1  0
  5 44  1  0
  9 45  1  0
 10 46  1  0
 15 47  1  0
 15 48  1  0
 15 49  1  0
 19 50  1  0
 19 51  1  0
 22 52  1  0
 23 53  1  0
 23 54  1  0
 25 55  1  0
 26 56  1  0
 27 57  1  0
 28 58  1  0
 29 59  1  0
 34 60  1  0
M  END
$$$$
