
     RDKit          3D

 55 60  0  0  0  0  0  0  0  0999 V2000
   -4.5431   -1.9923    2.7897 C   0  0  0  0  0  0  0  0  0  0  0  0
   -4.4756   -0.9932    1.7265 N   0  0  0  0  0  0  0  0  0  0  0  0
   -4.2603   -1.6442    0.4147 C   0  0  0  0  0  0  0  0  0  0  0  0
   -3.5778   -0.7405   -0.6354 C   0  0  0  0  0  0  0  0  0  0  0  0
   -2.2639   -0.3186   -0.1526 N   0  0  0  0  0  0  0  0  0  0  0  0
   -1.4195    0.3319   -1.0218 C   0  0  0  0  0  0  0  0  0  0  0  0
   -0.3002    0.8814   -0.5436 N   0  0  0  0  0  0  0  0  0  0  0  0
    0.5470    1.4787   -1.4085 C   0  0  0  0  0  0  0  0  0  0  0  0
    1.7421    2.0202   -0.7663 C   0  0  0  0  0  0  0  0  0  0  0  0
    2.6367    1.3707    0.0009 C   0  0  0  0  0  0  0  0  0  0  0  0
    2.7063   -0.0113    0.3357 C   0  0  0  0  0  0  0  0  0  0  0  0
    2.5341   -1.0427   -0.5657 C   0  0  0  0  0  0  0  0  0  0  0  0
    2.6275   -2.2239    0.1203 N   0  0  0  0  0  0  0  0  0  0  0  0
    2.8653   -1.9847    1.4537 C   0  0  0  0  0  0  0  0  0  0  0  0
    3.0211   -2.8877    2.5130 C   0  0  0  0  0  0  0  0  0  0  0  0
    3.2492   -2.3621    3.7873 C   0  0  0  0  0  0  0  0  0  0  0  0
    3.3172   -0.9870    3.9913 C   0  0  0  0  0  0  0  0  0  0  0  0
    3.1564   -0.0978    2.9216 C   0  0  0  0  0  0  0  0  0  0  0  0
    2.9290   -0.5987    1.6211 C   0  0  0  0  0  0  0  0  0  0  0  0
    3.6138    2.3864    0.4649 C   0  0  0  0  0  0  0  0  0  0  0  0
    4.6109    2.1999    1.1377 O   0  0  0  0  0  0  0  0  0  0  0  0
    3.2154    3.5812   -0.0204 N   0  0  0  0  0  0  0  0  0  0  0  0
    2.1180    3.4432   -0.7876 C   0  0  0  0  0  0  0  0  0  0  0  0
    1.5549    4.3291   -1.4014 O   0  0  0  0  0  0  0  0  0  0  0  0
    0.3112    1.5431   -2.7855 C   0  0  0  0  0  0  0  0  0  0  0  0
    1.1632    2.1185   -3.7676 C   0  0  0  0  0  0  0  0  0  0  0  0
    0.8076    2.1101   -5.1143 C   0  0  0  0  0  0  0  0  0  0  0  0
   -0.3913    1.5273   -5.4976 C   0  0  0  0  0  0  0  0  0  0  0  0
   -1.2214    0.9553   -4.5310 C   0  0  0  0  0  0  0  0  0  0  0  0
   -0.8886    0.9493   -3.1816 C   0  0  0  0  0  0  0  0  0  0  0  0
   -1.7290    0.3614   -2.3242 N   0  0  0  0  0  0  0  0  0  0  0  0
   -2.0848   -0.1600    1.2917 C   0  0  0  0  0  0  0  0  0  0  0  0
   -3.4459    0.0322    2.0021 C   0  0  0  0  0  0  0  0  0  0  0  0
   -3.5927   -2.5230    2.9186 H   0  0  0  0  0  0  0  0  0  0  0  0
   -5.3275   -2.7285    2.5783 H   0  0  0  0  0  0  0  0  0  0  0  0
   -4.8056   -1.5189    3.7424 H   0  0  0  0  0  0  0  0  0  0  0  0
   -3.6362   -2.5411    0.5330 H   0  0  0  0  0  0  0  0  0  0  0  0
   -5.2310   -1.9758    0.0268 H   0  0  0  0  0  0  0  0  0  0  0  0
   -4.2068    0.1353   -0.8422 H   0  0  0  0  0  0  0  0  0  0  0  0
   -3.4871   -1.3150   -1.5644 H   0  0  0  0  0  0  0  0  0  0  0  0
    2.3380   -1.0487   -1.6297 H   0  0  0  0  0  0  0  0  0  0  0  0
    2.5235   -3.1433   -0.2863 H   0  0  0  0  0  0  0  0  0  0  0  0
    2.9675   -3.9604    2.3572 H   0  0  0  0  0  0  0  0  0  0  0  0
    3.3762   -3.0369    4.6306 H   0  0  0  0  0  0  0  0  0  0  0  0
    3.5000   -0.5962    4.9893 H   0  0  0  0  0  0  0  0  0  0  0  0
    3.2175    0.9719    3.1009 H   0  0  0  0  0  0  0  0  0  0  0  0
    3.7076    4.4460    0.1273 H   0  0  0  0  0  0  0  0  0  0  0  0
    2.1052    2.5843   -3.4893 H   0  0  0  0  0  0  0  0  0  0  0  0
    1.4612    2.5601   -5.8565 H   0  0  0  0  0  0  0  0  0  0  0  0
   -0.6871    1.5142   -6.5435 H   0  0  0  0  0  0  0  0  0  0  0  0
   -2.1577    0.4961   -4.8415 H   0  0  0  0  0  0  0  0  0  0  0  0
   -1.5845   -1.0529    1.6861 H   0  0  0  0  0  0  0  0  0  0  0  0
   -1.4600    0.7038    1.5488 H   0  0  0  0  0  0  0  0  0  0  0  0
   -3.2826    0.1510    3.0805 H   0  0  0  0  0  0  0  0  0  0  0  0
   -3.8632    0.9917    1.6663 H   0  0  0  0  0  0  0  0  0  0  0  0
  1  2  1  0
  2  3  1  0
  3  4  1  0
  4  5  1  0
  5  6  1  0
  6  7  2  0
  7  8  1  0
  8  9  1  0
  9 10  2  0
 10 11  1  0
 11 12  2  0
 12 13  1  0
 13 14  1  0
 14 15  2  0
 15 16  1  0
 16 17  2  0
 17 18  1  0
 18 19  2  0
 10 20  1  0
 20 21  2  0
 20 22  1  0
 22 23  1  0
 23 24  2  0
  8 25  2  0
 25 26  1  0
 26 27  2  0
 27 28  1  0
 28 29  2  0
 29 30  1  0
 30 31  2  0
  5 32  1  0
 32 33  1  0
 33  2  1  0
 31  6  1  0
 23  9  1  0
 30 25  1  0
 19 11  1  0
 19 14  1  0
  1 34  1  0
  1 35  1  0
  1 36  1  0
  3 37  1  0
  3 38  1  0
  4 39  1  0
  4 40  1  0
 12 41  1  0
 13 42  1  0
 15 43  1  0
 16 44  1  0
 17 45  1  0
 18 46  1  0
 22 47  1  0
 26 48  1  0
 27 49  1  0
 28 50  1  0
 29 51  1  0
 32 52  1  0
 32 53  1  0
 33 54  1  0
 33 55  1  0
M  END
$$$$
