
     RDKit          3D

 46 48  0  0  0  0  0  0  0  0999 V2000
    5.6059    1.1834    1.1387 C   0  0  0  0  0  0  0  0  0  0  0  0
    5.5091   -0.0856    0.2859 C   0  0  0  0  0  0  0  0  0  0  0  0
    4.9975    0.2296   -1.1324 C   0  0  0  0  0  0  0  0  0  0  0  0
    3.5705   -0.2518   -1.4046 C   0  0  0  0  0  0  0  0  0  0  0  0
    2.6597   -0.0381   -0.1966 C   0  0  0  0  0  0  0  0  0  0  0  0
    1.2905   -0.4233   -0.5163 N   0  0  0  0  0  0  0  0  0  0  0  0
    0.2185    0.0714    0.1979 C   0  0  0  0  0  0  0  0  0  0  0  0
    0.3299    0.8985    1.0958 O   0  0  0  0  0  0  0  0  0  0  0  0
   -1.1076   -0.5380   -0.1977 C   0  0  0  0  0  0  0  0  0  0  0  0
   -1.4381   -0.3456   -1.6676 C   0  0  0  0  0  0  0  0  0  0  0  0
   -2.9454   -0.2917   -1.6899 C   0  0  0  0  0  0  0  0  0  0  0  0
   -3.5880   -0.4258   -2.7200 O   0  0  0  0  0  0  0  0  0  0  0  0
   -3.3925   -0.0364   -0.3875 N   0  0  0  0  0  0  0  0  0  0  0  0
   -4.7391    0.1781    0.0184 C   0  0  0  0  0  0  0  0  0  0  0  0
   -5.0311    0.6339    1.3172 C   0  0  0  0  0  0  0  0  0  0  0  0
   -6.3508    0.8454    1.7326 C   0  0  0  0  0  0  0  0  0  0  0  0
   -7.3936    0.6020    0.8527 C   0  0  0  0  0  0  0  0  0  0  0  0
   -8.6566    0.8032    1.2493 F   0  0  0  0  0  0  0  0  0  0  0  0
   -7.1397    0.1521   -0.4330 C   0  0  0  0  0  0  0  0  0  0  0  0
   -5.8187   -0.0583   -0.8464 C   0  0  0  0  0  0  0  0  0  0  0  0
   -2.2718    0.1336    0.5105 C   0  0  0  0  0  0  0  0  0  0  0  0
    3.1688   -0.7972    1.0407 C   0  0  0  0  0  0  0  0  0  0  0  0
    4.6548   -1.1562    0.9722 C   0  0  0  0  0  0  0  0  0  0  0  0
    4.6375    1.6804    1.2493 H   0  0  0  0  0  0  0  0  0  0  0  0
    6.2988    1.8996    0.6840 H   0  0  0  0  0  0  0  0  0  0  0  0
    5.9824    0.9491    2.1401 H   0  0  0  0  0  0  0  0  0  0  0  0
    6.5309   -0.4774    0.1952 H   0  0  0  0  0  0  0  0  0  0  0  0
    5.0597    1.3072   -1.3289 H   0  0  0  0  0  0  0  0  0  0  0  0
    5.6606   -0.2442   -1.8674 H   0  0  0  0  0  0  0  0  0  0  0  0
    3.5875   -1.3168   -1.6724 H   0  0  0  0  0  0  0  0  0  0  0  0
    3.1730    0.2721   -2.2828 H   0  0  0  0  0  0  0  0  0  0  0  0
    2.6449    1.0347    0.0362 H   0  0  0  0  0  0  0  0  0  0  0  0
    1.1596   -1.2651   -1.0635 H   0  0  0  0  0  0  0  0  0  0  0  0
   -1.0924   -1.6078    0.0486 H   0  0  0  0  0  0  0  0  0  0  0  0
   -1.0412    0.5905   -2.0741 H   0  0  0  0  0  0  0  0  0  0  0  0
   -1.0825   -1.1874   -2.2691 H   0  0  0  0  0  0  0  0  0  0  0  0
   -4.2452    0.8513    2.0344 H   0  0  0  0  0  0  0  0  0  0  0  0
   -6.5659    1.2015    2.7350 H   0  0  0  0  0  0  0  0  0  0  0  0
   -7.9651   -0.0358   -1.1123 H   0  0  0  0  0  0  0  0  0  0  0  0
   -5.6700   -0.4211   -1.8589 H   0  0  0  0  0  0  0  0  0  0  0  0
   -2.4570   -0.3568    1.4721 H   0  0  0  0  0  0  0  0  0  0  0  0
   -2.1187    1.2079    0.6669 H   0  0  0  0  0  0  0  0  0  0  0  0
    2.5999   -1.7235    1.1940 H   0  0  0  0  0  0  0  0  0  0  0  0
    2.9792   -0.1849    1.9317 H   0  0  0  0  0  0  0  0  0  0  0  0
    4.7629   -2.0970    0.4161 H   0  0  0  0  0  0  0  0  0  0  0  0
    5.0291   -1.3594    1.9828 H   0  0  0  0  0  0  0  0  0  0  0  0
  1  2  1  0
  2  3  1  0
  3  4  1  0
  4  5  1  0
  5  6  1  0
  6  7  1  0
  7  8  2  0
  7  9  1  0
  9 10  1  0
 10 11  1  0
 11 12  2  0
 11 13  1  0
 13 14  1  0
 14 15  2  0
 15 16  1  0
 16 17  2  0
 17 18  1  0
 17 19  1  0
 19 20  2  0
 13 21  1  0
  5 22  1  0
 22 23  1  0
 23  2  1  0
 21  9  1  0
 20 14  1  0
  1 24  1  0
  1 25  1  0
  1 26  1  0
  2 27  1  0
  3 28  1  0
  3 29  1  0
  4 30  1  0
  4 31  1  0
  5 32  1  0
  6 33  1  0
  9 34  1  0
 10 35  1  0
 10 36  1  0
 15 37  1  0
 16 38  1  0
 19 39  1  0
 20 40  1  0
 21 41  1  0
 21 42  1  0
 22 43  1  0
 22 44  1  0
 23 45  1  0
 23 46  1  0
M  END
$$$$
