
     RDKit          3D

 54 57  0  0  0  0  0  0  0  0999 V2000
    1.8917   -1.7133    0.0778 C   0  0  0  0  0  0  0  0  0  0  0  0
    1.7102   -0.1755    0.2187 C   0  0  2  0  0  0  0  0  0  0  0  0
    0.9836    0.1554    1.5408 C   0  0  0  0  0  0  0  0  0  0  0  0
   -0.4938   -0.2998    1.5655 C   0  0  2  0  0  0  0  0  0  0  0  0
   -0.5549   -1.7102    1.7060 O   0  0  0  0  0  0  0  0  0  0  0  0
   -1.3054    0.1821    0.3261 C   0  0  1  0  0  0  0  0  0  0  0  0
   -0.5560   -0.1156   -1.0192 C   0  0  1  0  0  0  0  0  0  0  0  0
   -1.2981    0.5049   -2.2178 C   0  0  0  0  0  0  0  0  0  0  0  0
   -2.7622    0.0860   -2.2760 C   0  0  0  0  0  0  0  0  0  0  0  0
   -3.4412    0.3871   -0.9648 C   0  0  0  0  0  0  0  0  0  0  0  0
   -4.4956    1.2209   -0.9204 C   0  0  0  0  0  0  0  0  0  0  0  0
   -5.1463    1.5871    0.3535 C   0  0  0  0  0  0  0  0  0  0  0  0
   -6.1037    2.3497    0.3851 O   0  0  0  0  0  0  0  0  0  0  0  0
   -4.5896    1.0047    1.5884 C   0  0  0  0  0  0  0  0  0  0  0  0
   -3.5403    0.1732    1.5461 C   0  0  0  0  0  0  0  0  0  0  0  0
   -2.8169   -0.2678    0.2773 C   0  0  2  0  0  0  0  0  0  0  0  0
   -3.0225   -1.7957    0.1726 C   0  0  0  0  0  0  0  0  0  0  0  0
    0.8738    0.4406   -0.9264 C   0  0  2  0  0  0  0  0  0  0  0  0
    1.7830    0.3090   -2.1439 C   0  0  0  0  0  0  0  0  0  0  0  0
    3.2060    0.5142   -1.5882 C   0  0  0  0  0  0  0  0  0  0  0  0
    3.0809    0.5413   -0.0366 C   0  0  1  0  0  0  0  0  0  0  0  0
    3.0345    1.9290    0.3132 O   0  0  0  0  0  0  0  0  0  0  0  0
    4.2938   -0.1455    0.6363 C   0  0  0  0  0  0  0  0  0  0  0  0
    4.9355   -1.0588    0.1076 O   0  0  0  0  0  0  0  0  0  0  0  0
    4.6802    0.3327    2.0302 C   0  0  0  0  0  0  0  0  0  0  0  0
    5.5215   -0.5995    2.6921 O   0  0  0  0  0  0  0  0  0  0  0  0
    2.3778   -2.1263    0.9692 H   0  0  0  0  0  0  0  0  0  0  0  0
    0.9509   -2.2507   -0.0519 H   0  0  0  0  0  0  0  0  0  0  0  0
    2.5110   -1.9873   -0.7824 H   0  0  0  0  0  0  0  0  0  0  0  0
    1.5241   -0.3010    2.3784 H   0  0  0  0  0  0  0  0  0  0  0  0
    0.9820    1.2374    1.7131 H   0  0  0  0  0  0  0  0  0  0  0  0
   -0.9440    0.1223    2.4711 H   0  0  0  0  0  0  0  0  0  0  0  0
   -0.1012   -1.9560    2.5313 H   0  0  0  0  0  0  0  0  0  0  0  0
   -1.3198    1.2820    0.4174 H   0  0  0  0  0  0  0  0  0  0  0  0
   -0.5176   -1.1969   -1.1858 H   0  0  0  0  0  0  0  0  0  0  0  0
   -0.8118    0.2084   -3.1546 H   0  0  0  0  0  0  0  0  0  0  0  0
   -1.2374    1.6002   -2.1646 H   0  0  0  0  0  0  0  0  0  0  0  0
   -3.2486    0.6108   -3.1073 H   0  0  0  0  0  0  0  0  0  0  0  0
   -2.8419   -0.9834   -2.5020 H   0  0  0  0  0  0  0  0  0  0  0  0
   -4.9166    1.6846   -1.8051 H   0  0  0  0  0  0  0  0  0  0  0  0
   -5.0835    1.2747    2.5137 H   0  0  0  0  0  0  0  0  0  0  0  0
   -3.1970   -0.2537    2.4860 H   0  0  0  0  0  0  0  0  0  0  0  0
   -4.0592   -2.0363   -0.0983 H   0  0  0  0  0  0  0  0  0  0  0  0
   -2.3798   -2.2571   -0.5830 H   0  0  0  0  0  0  0  0  0  0  0  0
   -2.8306   -2.3085    1.1212 H   0  0  0  0  0  0  0  0  0  0  0  0
    0.7697    1.5219   -0.7390 H   0  0  0  0  0  0  0  0  0  0  0  0
    1.5495    1.0540   -2.9116 H   0  0  0  0  0  0  0  0  0  0  0  0
    1.6931   -0.6805   -2.6063 H   0  0  0  0  0  0  0  0  0  0  0  0
    3.8485   -0.2929   -1.9559 H   0  0  0  0  0  0  0  0  0  0  0  0
    3.6216    1.4548   -1.9693 H   0  0  0  0  0  0  0  0  0  0  0  0
    2.7550    2.0379    1.2356 H   0  0  0  0  0  0  0  0  0  0  0  0
    3.7855    0.4628    2.6420 H   0  0  0  0  0  0  0  0  0  0  0  0
    5.2107    1.2847    1.9444 H   0  0  0  0  0  0  0  0  0  0  0  0
    6.0414   -1.0421    1.9900 H   0  0  0  0  0  0  0  0  0  0  0  0
  2  1  1  6
  2  3  1  0
  3  4  1  0
  4  5  1  0
  4  6  1  0
  6  7  1  0
  7  8  1  0
  8  9  1  0
  9 10  1  0
 10 11  2  0
 11 12  1  0
 12 13  2  0
 12 14  1  0
 14 15  2  0
 15 16  1  0
 16 17  1  6
  7 18  1  0
 18 19  1  0
 19 20  1  0
 20 21  1  0
 21 22  1  1
 21 23  1  0
 23 24  2  0
 23 25  1  0
 25 26  1  0
 18  2  1  0
 21  2  1  0
 16  6  1  0
 16 10  1  0
  1 27  1  0
  1 28  1  0
  1 29  1  0
  3 30  1  0
  3 31  1  0
  4 32  1  1
  5 33  1  0
  6 34  1  1
  7 35  1  6
  8 36  1  0
  8 37  1  0
  9 38  1  0
  9 39  1  0
 11 40  1  0
 14 41  1  0
 15 42  1  0
 17 43  1  0
 17 44  1  0
 17 45  1  0
 18 46  1  1
 19 47  1  0
 19 48  1  0
 20 49  1  0
 20 50  1  0
 22 51  1  0
 25 52  1  0
 25 53  1  0
 26 54  1  0
M  END
$$$$
