
     RDKit          3D

 18 18  0  0  0  0  0  0  0  0999 V2000
    3.2441    0.1234   -1.3496 N   0  0  0  0  0  0  0  0  0  0  0  0
    2.9466   -0.5567   -0.1989 C   0  0  0  0  0  0  0  0  0  0  0  0
    3.8591   -1.1330    0.3884 O   0  0  0  0  0  0  0  0  0  0  0  0
    1.5520   -0.5392    0.2143 C   0  0  0  0  0  0  0  0  0  0  0  0
    0.4760    0.1694   -0.2933 C   0  0  0  0  0  0  0  0  0  0  0  0
   -0.7367   -0.1017    0.4116 C   0  0  0  0  0  0  0  0  0  0  0  0
   -2.2520    0.6187    0.0161 S   0  0  0  0  0  6  0  0  0  0  0  0
   -3.2527    0.5742    1.3605 N   0  0  0  0  0  0  0  0  0  0  0  0
   -2.8317   -0.2565   -0.9723 O   0  0  0  0  0  0  0  0  0  0  0  0
   -1.9534    2.0080   -0.2334 O   0  0  0  0  0  0  0  0  0  0  0  0
   -0.5591   -1.0083    1.4305 C   0  0  0  0  0  0  0  0  0  0  0  0
    1.0681   -1.5178    1.5439 S   0  0  0  0  0  0  0  0  0  0  0  0
    4.1950    0.0402   -1.6834 H   0  0  0  0  0  0  0  0  0  0  0  0
    2.5452    0.4830   -1.9800 H   0  0  0  0  0  0  0  0  0  0  0  0
    0.5380    0.8638   -1.1224 H   0  0  0  0  0  0  0  0  0  0  0  0
   -4.1232    0.1001    1.1133 H   0  0  0  0  0  0  0  0  0  0  0  0
   -3.4151    1.5281    1.6883 H   0  0  0  0  0  0  0  0  0  0  0  0
   -1.3002   -1.3957    2.1172 H   0  0  0  0  0  0  0  0  0  0  0  0
  1  2  1  0
  2  3  2  0
  2  4  1  0
  4  5  2  0
  5  6  1  0
  6  7  1  0
  7  8  1  0
  7  9  2  0
  7 10  2  0
  6 11  2  0
 11 12  1  0
 12  4  1  0
  1 13  1  0
  1 14  1  0
  5 15  1  0
  8 16  1  0
  8 17  1  0
 11 18  1  0
M  END
$$$$
