
     RDKit          3D

 58 61  0  0  0  0  0  0  0  0999 V2000
   -3.2684    4.6304    2.3721 C   0  0  0  0  0  0  0  0  0  0  0  0
   -2.5934    3.5773    1.5447 C   0  0  0  0  0  0  0  0  0  0  0  0
   -3.3466    2.6745    0.7874 C   0  0  0  0  0  0  0  0  0  0  0  0
   -2.7152    1.7126   -0.0052 C   0  0  0  0  0  0  0  0  0  0  0  0
   -1.3169    1.6361   -0.0590 C   0  0  0  0  0  0  0  0  0  0  0  0
   -0.6258    0.6042   -0.9159 C   0  0  0  0  0  0  0  0  0  0  0  0
   -0.8630   -0.7572   -0.4525 N   0  0  0  0  0  0  0  0  0  0  0  0
   -0.2196   -1.3979    0.5975 C   0  0  0  0  0  0  0  0  0  0  0  0
    0.7839   -0.7500    1.5100 C   0  0  0  0  0  0  0  0  0  0  0  0
    2.0306   -0.3576    0.8213 N   0  0  0  0  0  0  0  0  0  0  0  0
    2.7672   -1.5516    0.3796 C   0  0  0  0  0  0  0  0  0  0  0  0
    2.8588    0.4443    1.7442 C   0  0  0  0  0  0  0  0  0  0  0  0
    4.0347    1.1252    1.0739 C   0  0  0  0  0  0  0  0  0  0  0  0
    3.8529    1.9118   -0.0740 C   0  0  0  0  0  0  0  0  0  0  0  0
    4.9358    2.5586   -0.6712 C   0  0  0  0  0  0  0  0  0  0  0  0
    6.2113    2.4333   -0.1248 C   0  0  0  0  0  0  0  0  0  0  0  0
    6.4046    1.6623    1.0193 C   0  0  0  0  0  0  0  0  0  0  0  0
    5.3224    1.0140    1.6179 C   0  0  0  0  0  0  0  0  0  0  0  0
   -0.6152   -2.6587    0.6920 N   0  0  0  0  0  0  0  0  0  0  0  0
   -1.5239   -2.8208   -0.3023 C   0  0  0  0  0  0  0  0  0  0  0  0
   -1.7074   -1.6801   -1.0216 C   0  0  0  0  0  0  0  0  0  0  0  0
   -2.6218   -1.6009   -2.1112 C   0  0  0  0  0  0  0  0  0  0  0  0
   -2.8271   -0.5685   -2.7423 O   0  0  0  0  0  0  0  0  0  0  0  0
   -3.2700   -2.8121   -2.3731 N   0  0  0  0  0  0  0  0  0  0  0  0
   -4.2293   -2.8518   -3.4598 C   0  0  0  0  0  0  0  0  0  0  0  0
   -3.1176   -4.0008   -1.6332 C   0  0  0  0  0  0  0  0  0  0  0  0
   -3.7719   -5.0103   -1.9108 O   0  0  0  0  0  0  0  0  0  0  0  0
   -2.2048   -3.9812   -0.5809 N   0  0  0  0  0  0  0  0  0  0  0  0
   -1.9825   -5.1666    0.2266 C   0  0  0  0  0  0  0  0  0  0  0  0
   -0.5665    2.5636    0.6778 C   0  0  0  0  0  0  0  0  0  0  0  0
   -1.1981    3.5239    1.4715 C   0  0  0  0  0  0  0  0  0  0  0  0
   -4.2815    4.3229    2.6514 H   0  0  0  0  0  0  0  0  0  0  0  0
   -3.3284    5.5671    1.8101 H   0  0  0  0  0  0  0  0  0  0  0  0
   -2.7146    4.8065    3.2999 H   0  0  0  0  0  0  0  0  0  0  0  0
   -4.4338    2.7147    0.8052 H   0  0  0  0  0  0  0  0  0  0  0  0
   -3.3296    1.0304   -0.5894 H   0  0  0  0  0  0  0  0  0  0  0  0
   -0.9579    0.6978   -1.9533 H   0  0  0  0  0  0  0  0  0  0  0  0
    0.4564    0.7624   -0.9421 H   0  0  0  0  0  0  0  0  0  0  0  0
    0.3029    0.1274    1.9573 H   0  0  0  0  0  0  0  0  0  0  0  0
    1.0029   -1.4323    2.3426 H   0  0  0  0  0  0  0  0  0  0  0  0
    3.0363   -2.2054    1.2175 H   0  0  0  0  0  0  0  0  0  0  0  0
    2.1803   -2.1356   -0.3377 H   0  0  0  0  0  0  0  0  0  0  0  0
    3.6866   -1.2766   -0.1486 H   0  0  0  0  0  0  0  0  0  0  0  0
    2.2559    1.2519    2.1806 H   0  0  0  0  0  0  0  0  0  0  0  0
    3.2021   -0.1735    2.5848 H   0  0  0  0  0  0  0  0  0  0  0  0
    2.8643    2.0124   -0.5142 H   0  0  0  0  0  0  0  0  0  0  0  0
    4.7837    3.1595   -1.5638 H   0  0  0  0  0  0  0  0  0  0  0  0
    7.0542    2.9370   -0.5903 H   0  0  0  0  0  0  0  0  0  0  0  0
    7.3990    1.5669    1.4473 H   0  0  0  0  0  0  0  0  0  0  0  0
    5.4935    0.4186    2.5118 H   0  0  0  0  0  0  0  0  0  0  0  0
   -5.2310   -2.9842   -3.0368 H   0  0  0  0  0  0  0  0  0  0  0  0
   -4.2162   -1.9415   -4.0648 H   0  0  0  0  0  0  0  0  0  0  0  0
   -4.0110   -3.7078   -4.1072 H   0  0  0  0  0  0  0  0  0  0  0  0
   -0.9206   -5.4303    0.1929 H   0  0  0  0  0  0  0  0  0  0  0  0
   -2.2763   -4.9548    1.2594 H   0  0  0  0  0  0  0  0  0  0  0  0
   -2.5628   -6.0197   -0.1337 H   0  0  0  0  0  0  0  0  0  0  0  0
    0.5209    2.5470    0.6414 H   0  0  0  0  0  0  0  0  0  0  0  0
   -0.5926    4.2332    2.0320 H   0  0  0  0  0  0  0  0  0  0  0  0
  1  2  1  0
  2  3  2  0
  3  4  1  0
  4  5  2  0
  5  6  1  0
  6  7  1  0
  7  8  1  0
  8  9  1  0
  9 10  1  0
 10 11  1  0
 10 12  1  0
 12 13  1  0
 13 14  2  0
 14 15  1  0
 15 16  2  0
 16 17  1  0
 17 18  2  0
  8 19  2  0
 19 20  1  0
 20 21  2  0
 21 22  1  0
 22 23  2  0
 22 24  1  0
 24 25  1  0
 24 26  1  0
 26 27  2  0
 26 28  1  0
 28 29  1  0
  5 30  1  0
 30 31  2  0
 31  2  1  0
 21  7  1  0
 18 13  1  0
 28 20  1  0
  1 32  1  0
  1 33  1  0
  1 34  1  0
  3 35  1  0
  4 36  1  0
  6 37  1  0
  6 38  1  0
  9 39  1  0
  9 40  1  0
 11 41  1  0
 11 42  1  0
 11 43  1  0
 12 44  1  0
 12 45  1  0
 14 46  1  0
 15 47  1  0
 16 48  1  0
 17 49  1  0
 18 50  1  0
 25 51  1  0
 25 52  1  0
 25 53  1  0
 29 54  1  0
 29 55  1  0
 29 56  1  0
 30 57  1  0
 31 58  1  0
M  END
$$$$
