
     RDKit          3D

 31 33  0  0  0  0  0  0  0  0999 V2000
    4.9981    0.6272    0.0432 C   0  0  0  0  0  0  0  0  0  0  0  0
    3.6059    0.1352    0.3074 C   0  0  0  0  0  0  0  0  0  0  0  0
    2.5534    1.0415    0.4713 C   0  0  0  0  0  0  0  0  0  0  0  0
    1.2505    0.5845    0.6829 C   0  0  0  0  0  0  0  0  0  0  0  0
    0.9730   -0.7894    0.7207 C   0  0  0  0  0  0  0  0  0  0  0  0
   -0.4310   -1.2880    0.9525 C   0  0  0  0  0  0  0  0  0  0  0  0
   -1.3167   -0.9521   -0.1484 N   0  0  0  0  0  0  0  0  0  0  0  0
   -1.3099   -1.5643   -1.3728 C   0  0  0  0  0  0  0  0  0  0  0  0
   -2.2541   -1.0975   -2.1567 N   0  0  0  0  0  0  0  0  0  0  0  0
   -2.8965   -0.1391   -1.4122 C   0  0  0  0  0  0  0  0  0  0  0  0
   -3.9818    0.6784   -1.7608 C   0  0  0  0  0  0  0  0  0  0  0  0
   -4.4719    1.5895   -0.8179 C   0  0  0  0  0  0  0  0  0  0  0  0
   -3.8932    1.6849    0.4487 C   0  0  0  0  0  0  0  0  0  0  0  0
   -2.8098    0.8780    0.8163 C   0  0  0  0  0  0  0  0  0  0  0  0
   -2.3334   -0.0263   -0.1416 C   0  0  0  0  0  0  0  0  0  0  0  0
    2.0282   -1.6949    0.5433 C   0  0  0  0  0  0  0  0  0  0  0  0
    3.3310   -1.2360    0.3329 C   0  0  0  0  0  0  0  0  0  0  0  0
    5.7415   -0.0759    0.4335 H   0  0  0  0  0  0  0  0  0  0  0  0
    5.1547    0.7468   -1.0332 H   0  0  0  0  0  0  0  0  0  0  0  0
    5.1723    1.5897    0.5357 H   0  0  0  0  0  0  0  0  0  0  0  0
    2.7403    2.1125    0.4316 H   0  0  0  0  0  0  0  0  0  0  0  0
    0.4521    1.3139    0.8058 H   0  0  0  0  0  0  0  0  0  0  0  0
   -0.8315   -0.8660    1.8801 H   0  0  0  0  0  0  0  0  0  0  0  0
   -0.4565   -2.3791    1.0602 H   0  0  0  0  0  0  0  0  0  0  0  0
   -0.5992   -2.3366   -1.6372 H   0  0  0  0  0  0  0  0  0  0  0  0
   -4.4254    0.5969   -2.7468 H   0  0  0  0  0  0  0  0  0  0  0  0
   -5.3125    2.2280   -1.0786 H   0  0  0  0  0  0  0  0  0  0  0  0
   -4.2918    2.4012    1.1645 H   0  0  0  0  0  0  0  0  0  0  0  0
   -2.3664    0.9622    1.8023 H   0  0  0  0  0  0  0  0  0  0  0  0
    1.8482   -2.7677    0.5620 H   0  0  0  0  0  0  0  0  0  0  0  0
    4.1322   -1.9575    0.1872 H   0  0  0  0  0  0  0  0  0  0  0  0
  1  2  1  0
  2  3  2  0
  3  4  1  0
  4  5  2  0
  5  6  1  0
  6  7  1  0
  7  8  1  0
  8  9  2  0
  9 10  1  0
 10 11  2  0
 11 12  1  0
 12 13  2  0
 13 14  1  0
 14 15  2  0
  5 16  1  0
 16 17  2  0
 17  2  1  0
 15  7  1  0
 15 10  1  0
  1 18  1  0
  1 19  1  0
  1 20  1  0
  3 21  1  0
  4 22  1  0
  6 23  1  0
  6 24  1  0
  8 25  1  0
 11 26  1  0
 12 27  1  0
 13 28  1  0
 14 29  1  0
 16 30  1  0
 17 31  1  0
M  END
$$$$
