
     RDKit          3D

 67 69  0  0  0  0  0  0  0  0999 V2000
  -10.0267    0.6342   -0.7111 C   0  0  0  0  0  0  0  0  0  0  0  0
   -9.7799    0.4261    0.7608 C   0  0  0  0  0  0  0  0  0  0  0  0
   -8.4006    0.4892    1.1337 N   0  0  0  0  0  0  0  0  0  0  0  0
   -7.4038   -0.3890    0.6123 C   0  0  0  0  0  0  0  0  0  0  0  0
   -7.7270   -1.2684   -0.2159 O   0  0  0  0  0  0  0  0  0  0  0  0
   -6.0076   -0.2635    1.0436 C   0  0  1  0  0  0  0  0  0  0  0  0
   -5.1785   -1.1925    0.4316 O   0  0  0  0  0  0  0  0  0  0  0  0
   -3.8797   -0.7646    0.6324 C   0  0  1  0  0  0  0  0  0  0  0  0
   -3.0211   -1.1277   -0.4793 N   0  0  0  0  0  0  0  0  0  0  0  0
   -3.3563   -1.4765   -1.7317 C   0  0  0  0  0  0  0  0  0  0  0  0
   -2.2315   -1.7377   -2.4363 N   0  0  0  0  0  0  0  0  0  0  0  0
   -1.1551   -1.5614   -1.6493 C   0  0  0  0  0  0  0  0  0  0  0  0
    0.1998   -1.6828   -1.8370 C   0  0  0  0  0  0  0  0  0  0  0  0
    0.7656   -2.0686   -3.0738 N   0  0  0  0  0  0  0  0  0  0  0  0
    1.0119   -1.4221   -0.8079 N   0  0  0  0  0  0  0  0  0  0  0  0
    0.5480   -1.0452    0.4040 C   0  0  0  0  0  0  0  0  0  0  0  0
    1.3868   -0.7592    1.5115 N   0  0  0  0  0  0  0  0  0  0  0  0
    2.8186   -0.8399    1.4735 C   0  0  0  0  0  0  0  0  0  0  0  0
    3.3583    0.0882    0.4321 C   0  0  0  0  0  0  0  0  0  0  0  0
    4.8508    0.0522    0.3798 C   0  0  0  0  0  0  0  0  0  0  0  0
    5.4511   -0.8708   -0.4410 C   0  0  0  0  0  0  0  0  0  0  0  0
    6.8497   -0.9255   -0.5087 C   0  0  0  0  0  0  0  0  0  0  0  0
    7.6390   -0.0714    0.2317 C   0  0  0  0  0  0  0  0  0  0  0  0
    9.1203   -0.1367    0.1555 C   0  0  0  0  0  0  0  0  0  0  0  0
    9.6418    0.7620   -0.9572 C   0  0  0  0  0  0  0  0  0  0  0  0
    9.2161    2.1608   -0.6659 C   0  0  0  0  0  0  0  0  0  0  0  0
    9.8802    2.7846    0.2067 O   0  0  0  0  0  0  0  0  0  0  0  0
    8.1416    2.7544   -1.3194 O   0  0  0  0  0  0  0  0  0  0  0  0
    6.9964    0.8395    1.0419 C   0  0  0  0  0  0  0  0  0  0  0  0
    5.6217    0.9179    1.1303 C   0  0  0  0  0  0  0  0  0  0  0  0
   -0.7821   -0.9386    0.5460 N   0  0  0  0  0  0  0  0  0  0  0  0
   -1.6714   -1.1767   -0.4188 C   0  0  0  0  0  0  0  0  0  0  0  0
   -3.9013    0.7205    0.8344 C   0  0  2  0  0  0  0  0  0  0  0  0
   -3.6040    0.9639    2.1920 O   0  0  0  0  0  0  0  0  0  0  0  0
   -5.3789    1.0453    0.5746 C   0  0  2  0  0  0  0  0  0  0  0  0
   -5.8109    2.1001    1.3770 O   0  0  0  0  0  0  0  0  0  0  0  0
    0.6844    0.0000    0.0000 Cl  0  0  0  0  0  0  0  0  0  0  0  0
   -9.1285    1.0162   -1.2396 H   0  0  0  0  0  0  0  0  0  0  0  0
  -10.3273   -0.3328   -1.1690 H   0  0  0  0  0  0  0  0  0  0  0  0
  -10.8587    1.3749   -0.8970 H   0  0  0  0  0  0  0  0  0  0  0  0
  -10.3228    1.2480    1.2876 H   0  0  0  0  0  0  0  0  0  0  0  0
  -10.2763   -0.5098    1.1286 H   0  0  0  0  0  0  0  0  0  0  0  0
   -8.0650    1.2090    1.8273 H   0  0  0  0  0  0  0  0  0  0  0  0
   -5.9032   -0.2661    2.1498 H   0  0  0  0  0  0  0  0  0  0  0  0
   -3.4569   -1.2976    1.5313 H   0  0  0  0  0  0  0  0  0  0  0  0
   -4.3799   -1.5279   -2.0806 H   0  0  0  0  0  0  0  0  0  0  0  0
    1.5203   -2.7595   -3.1831 H   0  0  0  0  0  0  0  0  0  0  0  0
    0.3906   -1.6191   -3.9511 H   0  0  0  0  0  0  0  0  0  0  0  0
    0.8884   -0.4679    2.4150 H   0  0  0  0  0  0  0  0  0  0  0  0
    3.1515   -1.8903    1.2500 H   0  0  0  0  0  0  0  0  0  0  0  0
    3.2186   -0.6316    2.4884 H   0  0  0  0  0  0  0  0  0  0  0  0
    3.0094    1.1338    0.6889 H   0  0  0  0  0  0  0  0  0  0  0  0
    3.0113   -0.2172   -0.5584 H   0  0  0  0  0  0  0  0  0  0  0  0
    4.8934   -1.5575   -1.0386 H   0  0  0  0  0  0  0  0  0  0  0  0
    7.3332   -1.6555   -1.1574 H   0  0  0  0  0  0  0  0  0  0  0  0
    9.3904   -1.1703   -0.1351 H   0  0  0  0  0  0  0  0  0  0  0  0
    9.6035    0.1728    1.0977 H   0  0  0  0  0  0  0  0  0  0  0  0
    9.2668    0.4032   -1.9368 H   0  0  0  0  0  0  0  0  0  0  0  0
   10.7383    0.6724   -0.9549 H   0  0  0  0  0  0  0  0  0  0  0  0
    7.5481    3.3638   -0.7696 H   0  0  0  0  0  0  0  0  0  0  0  0
    7.5832    1.5294    1.6418 H   0  0  0  0  0  0  0  0  0  0  0  0
    5.1077    1.6223    1.7579 H   0  0  0  0  0  0  0  0  0  0  0  0
   -3.2349    1.2710    0.1667 H   0  0  0  0  0  0  0  0  0  0  0  0
   -3.1314    1.8342    2.2859 H   0  0  0  0  0  0  0  0  0  0  0  0
   -5.5626    1.2297   -0.4939 H   0  0  0  0  0  0  0  0  0  0  0  0
   -6.1887    2.8021    0.7768 H   0  0  0  0  0  0  0  0  0  0  0  0
   -0.6844    0.0000    0.0000 H   0  0  0  0  0  0  0  0  0  0  0  0
  1  2  1  0
  2  3  1  0
  3  4  1  0
  4  5  2  0
  4  6  1  0
  6  7  1  0
  7  8  1  0
  8  9  1  0
  9 10  1  0
 10 11  2  0
 11 12  1  0
 12 13  2  0
 13 14  1  0
 13 15  1  0
 15 16  2  0
 16 17  1  0
 17 18  1  0
 18 19  1  0
 19 20  1  0
 20 21  2  0
 21 22  1  0
 22 23  2  0
 23 24  1  0
 24 25  1  0
 25 26  1  0
 26 27  2  0
 26 28  1  0
 23 29  1  0
 29 30  2  0
 16 31  1  0
 31 32  2  0
  8 33  1  0
 33 34  1  0
 33 35  1  0
 35 36  1  0
 35  6  1  0
 32  9  1  0
 32 12  1  0
 30 20  1  0
  1 38  1  0
  1 39  1  0
  1 40  1  0
  2 41  1  0
  2 42  1  0
  3 43  1  0
  6 44  1  1
  8 45  1  1
 10 46  1  0
 14 47  1  0
 14 48  1  0
 17 49  1  0
 18 50  1  0
 18 51  1  0
 19 52  1  0
 19 53  1  0
 21 54  1  0
 22 55  1  0
 24 56  1  0
 24 57  1  0
 25 58  1  0
 25 59  1  0
 28 60  1  0
 29 61  1  0
 30 62  1  0
 33 63  1  6
 34 64  1  0
 35 65  1  6
 36 66  1  0
 37 67  1  0
M  END
$$$$
