
     RDKit          3D

 44 46  0  0  0  0  0  0  0  0999 V2000
    4.0220   -2.3743   -2.3368 O   0  0  0  0  0  0  0  0  0  0  0  0
    3.5838   -1.9666   -1.2544 N   0  0  0  0  0  4  0  0  0  0  0  0
    2.8572   -2.5972   -0.4781 O   0  0  0  0  0  1  0  0  0  0  0  0
    4.0595   -0.6743   -0.8059 C   0  0  0  0  0  0  0  0  0  0  0  0
    5.4187   -0.5844   -0.4730 C   0  0  0  0  0  0  0  0  0  0  0  0
    5.9228    0.6319   -0.0214 C   0  0  0  0  0  0  0  0  0  0  0  0
    7.5850    0.7636    0.3971 Cl  0  0  0  0  0  0  0  0  0  0  0  0
    5.0905    1.7468    0.0931 C   0  0  0  0  0  0  0  0  0  0  0  0
    3.7369    1.6501   -0.2464 C   0  0  0  0  0  0  0  0  0  0  0  0
    3.2109    0.4280   -0.6883 C   0  0  0  0  0  0  0  0  0  0  0  0
    1.5127    0.3493   -1.1868 S   0  0  0  0  0  6  0  0  0  0  0  0
    0.9795    1.6950   -1.1566 O   0  0  0  0  0  0  0  0  0  0  0  0
    1.4704   -0.4379   -2.3969 O   0  0  0  0  0  0  0  0  0  0  0  0
    0.7966   -0.5118    0.0759 N   0  0  0  0  0  0  0  0  0  0  0  0
   -0.4562   -1.2364   -0.3178 C   0  0  0  0  0  0  0  0  0  0  0  0
   -1.2346   -1.7175    0.9208 C   0  0  0  0  0  0  0  0  0  0  0  0
   -1.6344   -0.6377    1.8381 N   0  0  0  0  0  0  0  0  0  0  0  0
   -3.0709   -0.3407    1.8670 C   0  0  0  0  0  0  0  0  0  0  0  0
   -3.6948    0.1595    0.5800 C   0  0  0  0  0  0  0  0  0  0  0  0
   -4.2532   -0.7379   -0.3435 C   0  0  0  0  0  0  0  0  0  0  0  0
   -4.8198   -0.2771   -1.5335 C   0  0  0  0  0  0  0  0  0  0  0  0
   -4.8430    1.0871   -1.8128 C   0  0  0  0  0  0  0  0  0  0  0  0
   -4.3069    1.9917   -0.8997 C   0  0  0  0  0  0  0  0  0  0  0  0
   -3.7412    1.5317    0.2910 C   0  0  0  0  0  0  0  0  0  0  0  0
   -0.7722    0.5479    1.7236 C   0  0  0  0  0  0  0  0  0  0  0  0
    0.6875    0.1785    1.3992 C   0  0  0  0  0  0  0  0  0  0  0  0
    6.0726   -1.4493   -0.5665 H   0  0  0  0  0  0  0  0  0  0  0  0
    5.4922    2.6983    0.4368 H   0  0  0  0  0  0  0  0  0  0  0  0
    3.1072    2.5358   -0.1714 H   0  0  0  0  0  0  0  0  0  0  0  0
   -0.1760   -2.1080   -0.9196 H   0  0  0  0  0  0  0  0  0  0  0  0
   -1.0915   -0.5845   -0.9283 H   0  0  0  0  0  0  0  0  0  0  0  0
   -2.0845   -2.3368    0.6158 H   0  0  0  0  0  0  0  0  0  0  0  0
   -0.5815   -2.3927    1.4897 H   0  0  0  0  0  0  0  0  0  0  0  0
   -3.2711    0.3886    2.6636 H   0  0  0  0  0  0  0  0  0  0  0  0
   -3.6100   -1.2414    2.1910 H   0  0  0  0  0  0  0  0  0  0  0  0
   -4.2557   -1.8062   -0.1403 H   0  0  0  0  0  0  0  0  0  0  0  0
   -5.2445   -0.9833   -2.2424 H   0  0  0  0  0  0  0  0  0  0  0  0
   -5.2815    1.4456   -2.7403 H   0  0  0  0  0  0  0  0  0  0  0  0
   -4.3277    3.0570   -1.1149 H   0  0  0  0  0  0  0  0  0  0  0  0
   -3.3324    2.2547    0.9932 H   0  0  0  0  0  0  0  0  0  0  0  0
   -0.7989    1.0999    2.6699 H   0  0  0  0  0  0  0  0  0  0  0  0
   -1.1206    1.2261    0.9380 H   0  0  0  0  0  0  0  0  0  0  0  0
    1.3024    1.0834    1.4268 H   0  0  0  0  0  0  0  0  0  0  0  0
    1.0947   -0.4930    2.1650 H   0  0  0  0  0  0  0  0  0  0  0  0
  1  2  2  0
  2  3  1  0
  2  4  1  0
  4  5  2  0
  5  6  1  0
  6  7  1  0
  6  8  2  0
  8  9  1  0
  9 10  2  0
 10 11  1  0
 11 12  2  0
 11 13  2  0
 11 14  1  0
 14 15  1  0
 15 16  1  0
 16 17  1  0
 17 18  1  0
 18 19  1  0
 19 20  2  0
 20 21  1  0
 21 22  2  0
 22 23  1  0
 23 24  2  0
 17 25  1  0
 25 26  1  0
 10  4  1  0
 26 14  1  0
 24 19  1  0
  5 27  1  0
  8 28  1  0
  9 29  1  0
 15 30  1  0
 15 31  1  0
 16 32  1  0
 16 33  1  0
 18 34  1  0
 18 35  1  0
 20 36  1  0
 21 37  1  0
 22 38  1  0
 23 39  1  0
 24 40  1  0
 25 41  1  0
 25 42  1  0
 26 43  1  0
 26 44  1  0
M  CHG  2   2   1   3  -1
M  END
$$$$
