
     RDKit          3D

 32 34  0  0  0  0  0  0  0  0999 V2000
   -1.2129   -0.0731    1.8609 O   0  0  0  0  0  0  0  0  0  0  0  0
   -1.2606    0.4069    0.5084 C   0  0  0  0  0  0  0  0  0  0  0  0
   -0.5057   -0.5685   -0.4144 C   0  0  0  0  0  0  0  0  0  0  0  0
    0.9614   -0.5427   -0.1289 C   0  0  0  0  0  0  0  0  0  0  0  0
    1.5190   -0.5084    1.0656 N   0  0  0  0  0  0  0  0  0  0  0  0
    2.8743   -0.4953    0.8382 C   0  0  0  0  0  0  0  0  0  0  0  0
    3.9374   -0.4591    1.7514 C   0  0  0  0  0  0  0  0  0  0  0  0
    5.2477   -0.4514    1.2559 C   0  0  0  0  0  0  0  0  0  0  0  0
    5.4930   -0.4792   -0.1195 C   0  0  0  0  0  0  0  0  0  0  0  0
    4.4439   -0.5157   -1.0458 C   0  0  0  0  0  0  0  0  0  0  0  0
    3.1486   -0.5226   -0.5244 C   0  0  0  0  0  0  0  0  0  0  0  0
    1.9131   -0.5548   -1.1183 N   0  0  0  0  0  0  0  0  0  0  0  0
   -2.7062    0.5620    0.0696 C   0  0  0  0  0  0  0  0  0  0  0  0
   -3.7147   -0.2249    0.6575 C   0  0  0  0  0  0  0  0  0  0  0  0
   -5.0475   -0.1133    0.2551 C   0  0  0  0  0  0  0  0  0  0  0  0
   -5.3994    0.7836   -0.7483 C   0  0  0  0  0  0  0  0  0  0  0  0
   -4.4169    1.5669   -1.3511 C   0  0  0  0  0  0  0  0  0  0  0  0
   -3.0807    1.4565   -0.9491 C   0  0  0  0  0  0  0  0  0  0  0  0
   -1.9237    2.4473   -1.7695 Cl  0  0  0  0  0  0  0  0  0  0  0  0
   -0.2599   -0.2180    2.0492 H   0  0  0  0  0  0  0  0  0  0  0  0
   -0.7763    1.3901    0.5290 H   0  0  0  0  0  0  0  0  0  0  0  0
   -0.6775   -0.3231   -1.4689 H   0  0  0  0  0  0  0  0  0  0  0  0
   -0.8644   -1.5931   -0.2536 H   0  0  0  0  0  0  0  0  0  0  0  0
    3.7402   -0.4376    2.8172 H   0  0  0  0  0  0  0  0  0  0  0  0
    6.0820   -0.4232    1.9528 H   0  0  0  0  0  0  0  0  0  0  0  0
    6.5206   -0.4722   -0.4779 H   0  0  0  0  0  0  0  0  0  0  0  0
    4.6362   -0.5372   -2.1128 H   0  0  0  0  0  0  0  0  0  0  0  0
    1.7366   -0.5806   -2.1122 H   0  0  0  0  0  0  0  0  0  0  0  0
   -3.4630   -0.9307    1.4485 H   0  0  0  0  0  0  0  0  0  0  0  0
   -5.8088   -0.7262    0.7317 H   0  0  0  0  0  0  0  0  0  0  0  0
   -6.4367    0.8735   -1.0599 H   0  0  0  0  0  0  0  0  0  0  0  0
   -4.6990    2.2640   -2.1362 H   0  0  0  0  0  0  0  0  0  0  0  0
  1  2  1  0
  2  3  1  0
  3  4  1  0
  4  5  2  0
  5  6  1  0
  6  7  2  0
  7  8  1  0
  8  9  2  0
  9 10  1  0
 10 11  2  0
 11 12  1  0
  2 13  1  0
 13 14  2  0
 14 15  1  0
 15 16  2  0
 16 17  1  0
 17 18  2  0
 18 19  1  0
 12  4  1  0
 18 13  1  0
 11  6  1  0
  1 20  1  0
  2 21  1  0
  3 22  1  0
  3 23  1  0
  7 24  1  0
  8 25  1  0
  9 26  1  0
 10 27  1  0
 12 28  1  0
 14 29  1  0
 15 30  1  0
 16 31  1  0
 17 32  1  0
M  END
$$$$
