
     RDKit          3D

 24 22  0  0  0  0  0  0  0  0999 V2000
   -1.4310   -1.2722   -0.2773 C   0  0  0  0  0  0  0  0  0  0  0  0
   -1.3774    0.2052   -0.5368 C   0  0  0  0  0  0  0  0  0  0  0  0
   -2.6962    0.7385   -0.4432 N   0  0  0  0  0  0  0  0  0  0  0  0
   -0.4682    0.9398    0.3927 C   0  0  0  0  0  0  0  0  0  0  0  0
    0.9370    0.4722    0.3150 C   0  0  0  0  0  0  0  0  0  0  0  0
    1.4803   -0.5071   -0.4694 C   0  0  0  0  0  0  0  0  0  0  0  0
    2.7991   -0.5919   -0.2078 N   0  0  0  0  0  0  0  0  0  0  0  0
    3.0743    0.3335    0.7377 C   0  0  0  0  0  0  0  0  0  0  0  0
    1.9254    0.9888    1.0591 N   0  0  0  0  0  0  0  0  0  0  0  0
    0.6869    0.0000    0.0000 Cl  0  0  0  0  0  0  0  0  0  0  0  0
    0.6879    0.0000    0.0000 Cl  0  0  0  0  0  0  0  0  0  0  0  0
   -0.6862   -1.6172    0.4694 H   0  0  0  0  0  0  0  0  0  0  0  0
   -1.3098   -1.8641   -1.2006 H   0  0  0  0  0  0  0  0  0  0  0  0
   -2.4286   -1.5836    0.1467 H   0  0  0  0  0  0  0  0  0  0  0  0
   -1.0032    0.3489   -1.5677 H   0  0  0  0  0  0  0  0  0  0  0  0
   -3.0783    0.8138    0.5046 H   0  0  0  0  0  0  0  0  0  0  0  0
   -2.9297    1.4902   -1.0971 H   0  0  0  0  0  0  0  0  0  0  0  0
   -0.8424    0.8925    1.4350 H   0  0  0  0  0  0  0  0  0  0  0  0
   -0.4619    2.0081    0.0815 H   0  0  0  0  0  0  0  0  0  0  0  0
    0.9766   -1.1344   -1.1925 H   0  0  0  0  0  0  0  0  0  0  0  0
    3.5053   -1.2390   -0.6362 H   0  0  0  0  0  0  0  0  0  0  0  0
    4.0149    0.5779    1.2122 H   0  0  0  0  0  0  0  0  0  0  0  0
   -0.6869    0.0000    0.0000 H   0  0  0  0  0  0  0  0  0  0  0  0
   -0.6879    0.0000    0.0000 H   0  0  0  0  0  0  0  0  0  0  0  0
  1  2  1  0
  2  3  1  0
  2  4  1  0
  4  5  1  0
  5  6  2  0
  6  7  1  0
  7  8  1  0
  8  9  2  0
  9  5  1  0
  1 12  1  0
  1 13  1  0
  1 14  1  0
  2 15  1  0
  3 16  1  0
  3 17  1  0
  4 18  1  0
  4 19  1  0
  6 20  1  0
  7 21  1  0
  8 22  1  0
 10 23  1  0
 11 24  1  0
M  END
$$$$
