
     RDKit          3D

 80 84  0  0  0  0  0  0  0  0999 V2000
    1.6839   -0.3611    1.6632 C   0  0  0  0  0  0  0  0  0  0  0  0
    1.2355   -1.2249    0.5068 C   0  0  0  0  0  0  0  0  0  0  0  0
    2.0333   -1.3326   -0.6625 C   0  0  0  0  0  0  0  0  0  0  0  0
    3.2861   -0.6692   -0.7029 N   0  0  0  0  0  0  0  0  0  0  0  0
    4.2645   -0.7556   -1.6785 C   0  0  0  0  0  0  0  0  0  0  0  0
    4.2500   -1.4542   -2.6842 O   0  0  0  0  0  0  0  0  0  0  0  0
    5.4824    0.0597   -1.4072 C   0  0  0  0  0  0  0  0  0  0  0  0
    6.7275   -0.4610   -1.7650 C   0  0  0  0  0  0  0  0  0  0  0  0
    7.8986    0.2596   -1.5047 C   0  0  0  0  0  0  0  0  0  0  0  0
    7.8571    1.5219   -0.8900 C   0  0  0  0  0  0  0  0  0  0  0  0
    9.1264    2.3351   -0.5807 C   0  0  0  0  0  0  0  0  0  0  0  0
    9.1004    3.6555   -1.3792 C   0  0  0  0  0  0  0  0  0  0  0  0
    9.1884    2.6538    0.9295 C   0  0  0  0  0  0  0  0  0  0  0  0
   10.4390    1.6044   -0.9434 C   0  0  0  0  0  0  0  0  0  0  0  0
    6.5873    2.0413   -0.5668 C   0  0  0  0  0  0  0  0  0  0  0  0
    5.4118    1.3251   -0.8222 C   0  0  0  0  0  0  0  0  0  0  0  0
    1.5651   -2.0919   -1.7419 C   0  0  0  0  0  0  0  0  0  0  0  0
    0.3432   -2.7605   -1.6770 C   0  0  0  0  0  0  0  0  0  0  0  0
   -0.4232   -2.6938   -0.5207 C   0  0  0  0  0  0  0  0  0  0  0  0
    0.0148   -1.9439    0.5803 C   0  0  0  0  0  0  0  0  0  0  0  0
   -0.8395   -1.9589    1.7861 C   0  0  0  0  0  0  0  0  0  0  0  0
   -0.4746   -2.7361    2.8185 C   0  0  0  0  0  0  0  0  0  0  0  0
   -1.2157   -2.7656    3.9786 N   0  0  0  0  0  0  0  0  0  0  0  0
   -0.7781   -3.5882    5.0907 C   0  0  0  0  0  0  0  0  0  0  0  0
   -2.3458   -1.9741    4.0952 C   0  0  0  0  0  0  0  0  0  0  0  0
   -3.0698   -1.8766    5.0800 O   0  0  0  0  0  0  0  0  0  0  0  0
   -2.7168   -1.1467    2.8351 C   0  0  0  0  0  0  0  0  0  0  0  0
   -3.8779   -0.4050    2.9776 N   0  0  0  0  0  0  0  0  0  0  0  0
   -4.7105    0.1458    1.9882 C   0  0  0  0  0  0  0  0  0  0  0  0
   -4.4888    0.0019    0.6120 C   0  0  0  0  0  0  0  0  0  0  0  0
   -5.3538    0.5743   -0.3264 C   0  0  0  0  0  0  0  0  0  0  0  0
   -6.4484    1.3199    0.1071 C   0  0  0  0  0  0  0  0  0  0  0  0
   -7.3858    1.8954   -0.8788 C   0  0  0  0  0  0  0  0  0  0  0  0
   -7.4469    3.1179   -0.9761 O   0  0  0  0  0  0  0  0  0  0  0  0
   -8.1352    1.0153   -1.6480 N   0  0  0  0  0  0  0  0  0  0  0  0
   -8.2533   -0.4267   -1.3998 C   0  0  0  0  0  0  0  0  0  0  0  0
   -9.5724   -0.9771   -1.9494 C   0  0  0  0  0  0  0  0  0  0  0  0
   -9.7548   -0.7379   -3.3503 O   0  0  0  0  0  0  0  0  0  0  0  0
   -9.1588    0.4829   -3.8195 C   0  0  0  0  0  0  0  0  0  0  0  0
   -8.9622    1.5403   -2.7294 C   0  0  0  0  0  0  0  0  0  0  0  0
   -6.6602    1.5344    1.4682 C   0  0  0  0  0  0  0  0  0  0  0  0
   -5.7946    0.9461    2.3974 C   0  0  0  0  0  0  0  0  0  0  0  0
   -1.9637   -1.1749    1.7712 N   0  0  0  0  0  0  0  0  0  0  0  0
    2.5618   -0.8042    2.1444 H   0  0  0  0  0  0  0  0  0  0  0  0
    0.9187   -0.2265    2.4298 H   0  0  0  0  0  0  0  0  0  0  0  0
    1.9234    0.6464    1.3105 H   0  0  0  0  0  0  0  0  0  0  0  0
    3.5400   -0.1514    0.1251 H   0  0  0  0  0  0  0  0  0  0  0  0
    6.7932   -1.4353   -2.2454 H   0  0  0  0  0  0  0  0  0  0  0  0
    8.8385   -0.1989   -1.8002 H   0  0  0  0  0  0  0  0  0  0  0  0
    9.0313    3.4646   -2.4566 H   0  0  0  0  0  0  0  0  0  0  0  0
    8.2501    4.2882   -1.1036 H   0  0  0  0  0  0  0  0  0  0  0  0
   10.0083    4.2436   -1.2009 H   0  0  0  0  0  0  0  0  0  0  0  0
    9.1576    1.7359    1.5288 H   0  0  0  0  0  0  0  0  0  0  0  0
   10.1117    3.1891    1.1816 H   0  0  0  0  0  0  0  0  0  0  0  0
    8.3539    3.2855    1.2546 H   0  0  0  0  0  0  0  0  0  0  0  0
   10.5379    0.6578   -0.3984 H   0  0  0  0  0  0  0  0  0  0  0  0
   10.4978    1.3898   -2.0168 H   0  0  0  0  0  0  0  0  0  0  0  0
   11.3133    2.2164   -0.6908 H   0  0  0  0  0  0  0  0  0  0  0  0
    6.4976    3.0273   -0.1156 H   0  0  0  0  0  0  0  0  0  0  0  0
    4.4558    1.7836   -0.5864 H   0  0  0  0  0  0  0  0  0  0  0  0
    2.1303   -2.1798   -2.6644 H   0  0  0  0  0  0  0  0  0  0  0  0
   -0.0028   -3.3384   -2.5302 H   0  0  0  0  0  0  0  0  0  0  0  0
   -1.3703   -3.2278   -0.4789 H   0  0  0  0  0  0  0  0  0  0  0  0
    0.4171   -3.3567    2.7861 H   0  0  0  0  0  0  0  0  0  0  0  0
   -1.4925   -3.5585    5.9173 H   0  0  0  0  0  0  0  0  0  0  0  0
   -0.6724   -4.6247    4.7521 H   0  0  0  0  0  0  0  0  0  0  0  0
    0.1885   -3.2161    5.4467 H   0  0  0  0  0  0  0  0  0  0  0  0
   -4.3052   -0.4873    3.8983 H   0  0  0  0  0  0  0  0  0  0  0  0
   -3.6477   -0.5731    0.2349 H   0  0  0  0  0  0  0  0  0  0  0  0
   -5.1644    0.4398   -1.3889 H   0  0  0  0  0  0  0  0  0  0  0  0
   -8.1884   -0.6262   -0.3271 H   0  0  0  0  0  0  0  0  0  0  0  0
   -7.4074   -0.9052   -1.9020 H   0  0  0  0  0  0  0  0  0  0  0  0
   -9.6251   -2.0579   -1.7887 H   0  0  0  0  0  0  0  0  0  0  0  0
  -10.4201   -0.5267   -1.4207 H   0  0  0  0  0  0  0  0  0  0  0  0
   -8.1946    0.2197   -4.2704 H   0  0  0  0  0  0  0  0  0  0  0  0
   -9.7958    0.8737   -4.6192 H   0  0  0  0  0  0  0  0  0  0  0  0
   -8.5055    2.4446   -3.1511 H   0  0  0  0  0  0  0  0  0  0  0  0
   -9.9259    1.8163   -2.2888 H   0  0  0  0  0  0  0  0  0  0  0  0
   -7.4950    2.1438    1.8044 H   0  0  0  0  0  0  0  0  0  0  0  0
   -5.9781    1.1148    3.4579 H   0  0  0  0  0  0  0  0  0  0  0  0
  1  2  1  0
  2  3  2  0
  3  4  1  0
  4  5  1  0
  5  6  2  0
  5  7  1  0
  7  8  2  0
  8  9  1  0
  9 10  2  0
 10 11  1  0
 11 12  1  0
 11 13  1  0
 11 14  1  0
 10 15  1  0
 15 16  2  0
  3 17  1  0
 17 18  2  0
 18 19  1  0
 19 20  2  0
 20 21  1  0
 21 22  2  0
 22 23  1  0
 23 24  1  0
 23 25  1  0
 25 26  2  0
 25 27  1  0
 27 28  1  0
 28 29  1  0
 29 30  2  0
 30 31  1  0
 31 32  2  0
 32 33  1  0
 33 34  2  0
 33 35  1  0
 35 36  1  0
 36 37  1  0
 37 38  1  0
 38 39  1  0
 39 40  1  0
 32 41  1  0
 41 42  2  0
 27 43  2  0
 20  2  1  0
 43 21  1  0
 16  7  1  0
 42 29  1  0
 40 35  1  0
  1 44  1  0
  1 45  1  0
  1 46  1  0
  4 47  1  0
  8 48  1  0
  9 49  1  0
 12 50  1  0
 12 51  1  0
 12 52  1  0
 13 53  1  0
 13 54  1  0
 13 55  1  0
 14 56  1  0
 14 57  1  0
 14 58  1  0
 15 59  1  0
 16 60  1  0
 17 61  1  0
 18 62  1  0
 19 63  1  0
 22 64  1  0
 24 65  1  0
 24 66  1  0
 24 67  1  0
 28 68  1  0
 30 69  1  0
 31 70  1  0
 36 71  1  0
 36 72  1  0
 37 73  1  0
 37 74  1  0
 39 75  1  0
 39 76  1  0
 40 77  1  0
 40 78  1  0
 41 79  1  0
 42 80  1  0
M  END
$$$$
