
     RDKit          3D

 41 43  0  0  0  0  0  0  0  0999 V2000
   -5.9620    1.8013   -0.3333 C   0  0  0  0  0  0  0  0  0  0  0  0
   -5.2836    1.1004    0.8363 C   0  0  0  0  0  0  0  0  0  0  0  0
   -3.9790    0.4584    0.4445 C   0  0  0  0  0  0  0  0  0  0  0  0
   -2.7880    1.0087    0.7474 C   0  0  0  0  0  0  0  0  0  0  0  0
   -1.5751    0.2546    0.3057 C   0  0  0  0  0  0  0  0  0  0  0  0
   -0.2134    0.8822    0.6368 C   0  0  0  0  0  0  0  0  0  0  0  0
   -0.1774    1.9461    1.2336 O   0  0  0  0  0  0  0  0  0  0  0  0
    0.8284    0.1023    0.1825 N   0  0  0  0  0  0  0  0  0  0  0  0
    2.2134    0.3346    0.2912 C   0  0  0  0  0  0  0  0  0  0  0  0
    2.7314    1.4697    0.9203 C   0  0  0  0  0  0  0  0  0  0  0  0
    4.1123    1.6694    1.0107 C   0  0  0  0  0  0  0  0  0  0  0  0
    5.0035    0.7431    0.4765 C   0  0  0  0  0  0  0  0  0  0  0  0
    6.3235    1.0608    0.6341 O   0  0  0  0  0  0  0  0  0  0  0  0
    7.2754    0.1465    0.1058 C   0  0  0  0  0  0  0  0  0  0  0  0
    4.4986   -0.3933   -0.1535 C   0  0  0  0  0  0  0  0  0  0  0  0
    3.1082   -0.6110   -0.2538 C   0  0  0  0  0  0  0  0  0  0  0  0
    2.6295   -1.8597   -0.9474 C   0  0  0  0  0  0  0  0  0  0  0  0
   -1.5788   -0.8855   -0.3338 N   0  0  0  0  0  0  0  0  0  0  0  0
   -2.8121   -1.4100   -0.6068 C   0  0  0  0  0  0  0  0  0  0  0  0
   -3.1808   -2.5714   -1.2448 C   0  0  0  0  0  0  0  0  0  0  0  0
   -4.5812   -2.5728   -1.2193 C   0  0  0  0  0  0  0  0  0  0  0  0
   -5.0890   -1.5001   -0.6141 N   0  0  0  0  0  0  0  0  0  0  0  0
   -4.0062   -0.7707   -0.2345 N   0  0  0  0  0  0  0  0  0  0  0  0
   -6.2162    1.0993   -1.1337 H   0  0  0  0  0  0  0  0  0  0  0  0
   -6.8894    2.2775    0.0010 H   0  0  0  0  0  0  0  0  0  0  0  0
   -5.3168    2.5794   -0.7552 H   0  0  0  0  0  0  0  0  0  0  0  0
   -5.9602    0.3518    1.2661 H   0  0  0  0  0  0  0  0  0  0  0  0
   -5.1136    1.8385    1.6306 H   0  0  0  0  0  0  0  0  0  0  0  0
   -2.6678    1.9460    1.2756 H   0  0  0  0  0  0  0  0  0  0  0  0
    0.5197   -0.7445   -0.2881 H   0  0  0  0  0  0  0  0  0  0  0  0
    2.0884    2.2276    1.3560 H   0  0  0  0  0  0  0  0  0  0  0  0
    4.4918    2.5606    1.5051 H   0  0  0  0  0  0  0  0  0  0  0  0
    7.1737    0.0545   -0.9806 H   0  0  0  0  0  0  0  0  0  0  0  0
    8.2730    0.5451    0.3139 H   0  0  0  0  0  0  0  0  0  0  0  0
    7.1985   -0.8301    0.5951 H   0  0  0  0  0  0  0  0  0  0  0  0
    5.1699   -1.1326   -0.5792 H   0  0  0  0  0  0  0  0  0  0  0  0
    2.0195   -1.6001   -1.8187 H   0  0  0  0  0  0  0  0  0  0  0  0
    3.4651   -2.4714   -1.3040 H   0  0  0  0  0  0  0  0  0  0  0  0
    2.0441   -2.4765   -0.2579 H   0  0  0  0  0  0  0  0  0  0  0  0
   -2.5181   -3.3120   -1.6664 H   0  0  0  0  0  0  0  0  0  0  0  0
   -5.2593   -3.3167   -1.6184 H   0  0  0  0  0  0  0  0  0  0  0  0
  1  2  1  0
  2  3  1  0
  3  4  2  0
  4  5  1  0
  5  6  1  0
  6  7  2  0
  6  8  1  0
  8  9  1  0
  9 10  2  0
 10 11  1  0
 11 12  2  0
 12 13  1  0
 13 14  1  0
 12 15  1  0
 15 16  2  0
 16 17  1  0
  5 18  2  0
 18 19  1  0
 19 20  2  0
 20 21  1  0
 21 22  2  0
 22 23  1  0
 23  3  1  0
 16  9  1  0
 23 19  1  0
  1 24  1  0
  1 25  1  0
  1 26  1  0
  2 27  1  0
  2 28  1  0
  4 29  1  0
  8 30  1  0
 10 31  1  0
 11 32  1  0
 14 33  1  0
 14 34  1  0
 14 35  1  0
 15 36  1  0
 17 37  1  0
 17 38  1  0
 17 39  1  0
 20 40  1  0
 21 41  1  0
M  END
$$$$
