
     RDKit          3D

 52 54  0  0  0  0  0  0  0  0999 V2000
   10.1630   -0.0722    1.0382 N   0  0  0  0  0  0  0  0  0  0  0  0
    8.7898   -0.1317    1.1251 C   0  0  0  0  0  0  0  0  0  0  0  0
    8.2355    0.1839    2.2903 N   0  0  0  0  0  0  0  0  0  0  0  0
    6.8989    0.1194    2.3604 C   0  0  0  0  0  0  0  0  0  0  0  0
    6.3078    0.4724    3.6030 N   0  0  0  0  0  0  0  0  0  0  0  0
    6.0874   -0.2627    1.2976 C   0  0  0  0  0  0  0  0  0  0  0  0
    4.7222   -0.3230    1.3862 N   0  0  0  0  0  0  0  0  0  0  0  0
    4.0664   -0.7267    0.2724 C   0  0  0  0  0  0  0  0  0  0  0  0
    2.5565   -0.7900    0.2940 C   0  0  0  0  0  0  0  0  0  0  0  0
    1.9990    0.3682   -0.3998 N   0  0  0  0  0  0  0  0  0  0  0  0
    0.6114    0.5392   -0.4547 C   0  0  0  0  0  0  0  0  0  0  0  0
   -0.3090   -0.5077   -0.3265 C   0  0  0  0  0  0  0  0  0  0  0  0
   -1.6872   -0.2875   -0.4643 C   0  0  0  0  0  0  0  0  0  0  0  0
   -2.1692    0.9915   -0.7567 C   0  0  0  0  0  0  0  0  0  0  0  0
   -3.6215    1.2766   -0.9198 C   0  0  0  0  0  0  0  0  0  0  0  0
   -3.9967    2.2213   -1.6039 O   0  0  0  0  0  0  0  0  0  0  0  0
   -4.4890    0.4463   -0.2485 N   0  0  0  0  0  0  0  0  0  0  0  0
   -5.9351    0.6676   -0.2618 C   0  0  0  0  0  0  0  0  0  0  0  0
   -6.5860    0.2638   -1.5960 C   0  0  0  0  0  0  0  0  0  0  0  0
   -6.1632   -1.1004   -2.1506 C   0  0  0  0  0  0  0  0  0  0  0  0
   -6.6441   -2.2491   -1.3107 C   0  0  0  0  0  0  0  0  0  0  0  0
   -7.7136   -2.3268   -0.7303 O   0  0  0  0  0  0  0  0  0  0  0  0
   -5.7546   -3.2570   -1.2547 O   0  0  0  0  0  0  0  0  0  0  0  0
   -6.5437   -0.0632    0.9336 C   0  0  0  0  0  0  0  0  0  0  0  0
   -5.9634   -0.8837    1.6325 O   0  0  0  0  0  0  0  0  0  0  0  0
   -7.8246    0.2730    1.1724 O   0  0  0  0  0  0  0  0  0  0  0  0
   -1.2598    2.0336   -0.9458 C   0  0  0  0  0  0  0  0  0  0  0  0
    0.1130    1.8030   -0.8047 C   0  0  0  0  0  0  0  0  0  0  0  0
    4.7687   -1.0356   -0.8788 C   0  0  0  0  0  0  0  0  0  0  0  0
    6.1205   -0.9802   -0.9521 N   0  0  0  0  0  0  0  0  0  0  0  0
    6.7962   -0.5889    0.1345 C   0  0  0  0  0  0  0  0  0  0  0  0
    8.1208   -0.5343    0.0510 N   0  0  0  0  0  0  0  0  0  0  0  0
   10.5783   -0.1462    1.9567 H   0  0  0  0  0  0  0  0  0  0  0  0
   10.5049   -0.6887    0.3146 H   0  0  0  0  0  0  0  0  0  0  0  0
    5.7182   -0.3052    3.8954 H   0  0  0  0  0  0  0  0  0  0  0  0
    5.6628    1.2413    3.4274 H   0  0  0  0  0  0  0  0  0  0  0  0
    2.2155   -0.8083    1.3363 H   0  0  0  0  0  0  0  0  0  0  0  0
    2.2464   -1.7274   -0.1824 H   0  0  0  0  0  0  0  0  0  0  0  0
    2.4605    1.2335   -0.1189 H   0  0  0  0  0  0  0  0  0  0  0  0
    0.0186   -1.5234   -0.1271 H   0  0  0  0  0  0  0  0  0  0  0  0
   -2.3598   -1.1361   -0.3754 H   0  0  0  0  0  0  0  0  0  0  0  0
   -4.1363   -0.1863    0.4630 H   0  0  0  0  0  0  0  0  0  0  0  0
   -6.0969    1.7392   -0.0888 H   0  0  0  0  0  0  0  0  0  0  0  0
   -6.3203    1.0156   -2.3501 H   0  0  0  0  0  0  0  0  0  0  0  0
   -7.6783    0.2993   -1.5008 H   0  0  0  0  0  0  0  0  0  0  0  0
   -5.0738   -1.1499   -2.2518 H   0  0  0  0  0  0  0  0  0  0  0  0
   -6.5857   -1.2362   -3.1527 H   0  0  0  0  0  0  0  0  0  0  0  0
   -6.1869   -3.9272   -0.6842 H   0  0  0  0  0  0  0  0  0  0  0  0
   -8.1119   -0.3294    1.8903 H   0  0  0  0  0  0  0  0  0  0  0  0
   -1.6127    3.0283   -1.2112 H   0  0  0  0  0  0  0  0  0  0  0  0
    0.7969    2.6311   -0.9787 H   0  0  0  0  0  0  0  0  0  0  0  0
    4.2640   -1.3343   -1.7929 H   0  0  0  0  0  0  0  0  0  0  0  0
  1  2  1  0
  2  3  2  0
  3  4  1  0
  4  5  1  0
  4  6  2  0
  6  7  1  0
  7  8  2  0
  8  9  1  0
  9 10  1  0
 10 11  1  0
 11 12  2  0
 12 13  1  0
 13 14  2  0
 14 15  1  0
 15 16  2  0
 15 17  1  0
 17 18  1  0
 18 19  1  0
 19 20  1  0
 20 21  1  0
 21 22  2  0
 21 23  1  0
 18 24  1  0
 24 25  2  0
 24 26  1  0
 14 27  1  0
 27 28  2  0
  8 29  1  0
 29 30  2  0
 30 31  1  0
 31 32  2  0
 32  2  1  0
 31  6  1  0
 28 11  1  0
  1 33  1  0
  1 34  1  0
  5 35  1  0
  5 36  1  0
  9 37  1  0
  9 38  1  0
 10 39  1  0
 12 40  1  0
 13 41  1  0
 17 42  1  0
 18 43  1  0
 19 44  1  0
 19 45  1  0
 20 46  1  0
 20 47  1  0
 23 48  1  0
 26 49  1  0
 27 50  1  0
 28 51  1  0
 29 52  1  0
M  END
$$$$
