
     RDKit          3D

 50 52  0  0  0  0  0  0  0  0999 V2000
   -7.8867    0.3933   -2.4293 C   0  0  0  0  0  0  0  0  0  0  0  0
   -6.4814    0.6047   -2.4018 O   0  0  0  0  0  0  0  0  0  0  0  0
   -5.8124    0.2164   -1.2734 C   0  0  0  0  0  0  0  0  0  0  0  0
   -6.3868   -0.3672   -0.1454 C   0  0  0  0  0  0  0  0  0  0  0  0
   -5.5915   -0.7179    0.9514 C   0  0  0  0  0  0  0  0  0  0  0  0
   -4.2143   -0.4873    0.9251 C   0  0  0  0  0  0  0  0  0  0  0  0
   -3.3437   -0.7906    1.9482 O   0  0  0  0  0  0  0  0  0  0  0  0
   -3.9028   -1.3832    3.1149 C   0  0  0  0  0  0  0  0  0  0  0  0
   -3.6274    0.0992   -0.2158 C   0  0  0  0  0  0  0  0  0  0  0  0
   -2.2288    0.3081   -0.1736 N   0  0  0  0  0  0  0  0  0  0  0  0
   -1.4103    0.8028   -1.1667 C   0  0  0  0  0  0  0  0  0  0  0  0
   -1.7405    1.0987   -2.3084 O   0  0  0  0  0  0  0  0  0  0  0  0
    0.0293    0.9408   -0.7928 C   0  0  0  0  0  0  0  0  0  0  0  0
    0.9936    0.8140   -1.8044 C   0  0  0  0  0  0  0  0  0  0  0  0
    2.3527    0.9416   -1.5086 C   0  0  0  0  0  0  0  0  0  0  0  0
    2.7467    1.1896   -0.1919 C   0  0  0  0  0  0  0  0  0  0  0  0
    4.4759    1.3713    0.1986 S   0  0  0  0  0  6  0  0  0  0  0  0
    4.5555    2.3552    1.2600 O   0  0  0  0  0  0  0  0  0  0  0  0
    5.1843    1.5556   -1.0488 O   0  0  0  0  0  0  0  0  0  0  0  0
    4.9268   -0.2136    0.8917 C   0  0  0  0  0  0  0  0  0  0  0  0
    4.9384   -1.3592   -0.1256 C   0  0  0  0  0  0  0  0  0  0  0  0
    6.2445   -1.2833   -0.9099 C   0  0  0  0  0  0  0  0  0  0  0  0
    7.4564   -0.6972    0.2578 S   0  0  0  0  0  6  0  0  0  0  0  0
    8.1385    0.4535   -0.2876 O   0  0  0  0  0  0  0  0  0  0  0  0
    8.1728   -1.8452    0.7756 O   0  0  0  0  0  0  0  0  0  0  0  0
    6.3168   -0.1581    1.5169 C   0  0  0  0  0  0  0  0  0  0  0  0
    1.7956    1.3553    0.8202 C   0  0  0  0  0  0  0  0  0  0  0  0
    0.4361    1.2310    0.5183 C   0  0  0  0  0  0  0  0  0  0  0  0
   -4.4329    0.4477   -1.3023 C   0  0  0  0  0  0  0  0  0  0  0  0
   -8.1269   -0.6726   -2.3578 H   0  0  0  0  0  0  0  0  0  0  0  0
   -8.3873    0.9656   -1.6413 H   0  0  0  0  0  0  0  0  0  0  0  0
   -8.2607    0.7549   -3.3920 H   0  0  0  0  0  0  0  0  0  0  0  0
   -7.4525   -0.5625   -0.0852 H   0  0  0  0  0  0  0  0  0  0  0  0
   -6.0832   -1.1676    1.8073 H   0  0  0  0  0  0  0  0  0  0  0  0
   -4.6200   -0.7094    3.5950 H   0  0  0  0  0  0  0  0  0  0  0  0
   -3.0869   -1.5586    3.8227 H   0  0  0  0  0  0  0  0  0  0  0  0
   -4.3582   -2.3523    2.8860 H   0  0  0  0  0  0  0  0  0  0  0  0
   -1.8113   -0.0171    0.6909 H   0  0  0  0  0  0  0  0  0  0  0  0
    0.6822    0.6254   -2.8315 H   0  0  0  0  0  0  0  0  0  0  0  0
    3.0832    0.8590   -2.3112 H   0  0  0  0  0  0  0  0  0  0  0  0
    4.1871   -0.4024    1.6785 H   0  0  0  0  0  0  0  0  0  0  0  0
    4.9136   -2.3103    0.4218 H   0  0  0  0  0  0  0  0  0  0  0  0
    4.0765   -1.3539   -0.7978 H   0  0  0  0  0  0  0  0  0  0  0  0
    6.5495   -2.2621   -1.2881 H   0  0  0  0  0  0  0  0  0  0  0  0
    6.1913   -0.5802   -1.7428 H   0  0  0  0  0  0  0  0  0  0  0  0
    6.6181    0.8279    1.8767 H   0  0  0  0  0  0  0  0  0  0  0  0
    6.3892   -0.8788    2.3380 H   0  0  0  0  0  0  0  0  0  0  0  0
    2.0980    1.6068    1.8353 H   0  0  0  0  0  0  0  0  0  0  0  0
   -0.2923    1.4040    1.3070 H   0  0  0  0  0  0  0  0  0  0  0  0
   -4.0137    0.9080   -2.1917 H   0  0  0  0  0  0  0  0  0  0  0  0
  1  2  1  0
  2  3  1  0
  3  4  2  0
  4  5  1  0
  5  6  2  0
  6  7  1  0
  7  8  1  0
  6  9  1  0
  9 10  1  0
 10 11  1  0
 11 12  2  0
 11 13  1  0
 13 14  2  0
 14 15  1  0
 15 16  2  0
 16 17  1  0
 17 18  2  0
 17 19  2  0
 17 20  1  0
 20 21  1  0
 21 22  1  0
 22 23  1  0
 23 24  2  0
 23 25  2  0
 23 26  1  0
 16 27  1  0
 27 28  2  0
  9 29  2  0
 29  3  1  0
 28 13  1  0
 26 20  1  0
  1 30  1  0
  1 31  1  0
  1 32  1  0
  4 33  1  0
  5 34  1  0
  8 35  1  0
  8 36  1  0
  8 37  1  0
 10 38  1  0
 14 39  1  0
 15 40  1  0
 20 41  1  0
 21 42  1  0
 21 43  1  0
 22 44  1  0
 22 45  1  0
 26 46  1  0
 26 47  1  0
 27 48  1  0
 28 49  1  0
 29 50  1  0
M  END
$$$$
