
     RDKit          3D

 44 45  0  0  0  0  0  0  0  0999 V2000
   -8.0175   -2.8341   -1.4627 C   0  0  0  0  0  0  0  0  0  0  0  0
   -6.9357   -2.4265   -0.4734 C   0  0  0  0  0  0  0  0  0  0  0  0
   -5.7781   -1.6464   -1.1148 C   0  0  0  0  0  0  0  0  0  0  0  0
   -6.2226   -0.2957   -1.6777 C   0  0  0  0  0  0  0  0  0  0  0  0
   -4.7230   -1.4480   -0.1237 N   0  0  0  0  0  0  0  0  0  0  0  0
   -3.4061   -1.2531   -0.4982 C   0  0  0  0  0  0  0  0  0  0  0  0
   -3.0166   -1.3486   -1.6587 O   0  0  0  0  0  0  0  0  0  0  0  0
   -2.4634   -0.9429    0.6802 C   0  0  0  0  0  0  0  0  0  0  0  0
   -1.2872   -0.1999    0.4088 O   0  0  0  0  0  0  0  0  0  0  0  0
   -0.3884   -0.8700   -0.4790 C   0  0  0  0  0  0  0  0  0  0  0  0
    0.9867   -0.3693   -0.1764 C   0  0  0  0  0  0  0  0  0  0  0  0
    1.9079   -1.0430    0.4871 N   0  0  0  0  0  0  0  0  0  0  0  0
    3.0848   -0.3335    0.6127 N   0  0  0  0  0  0  0  0  0  0  0  0
    3.0052    0.8528    0.0384 C   0  0  0  0  0  0  0  0  0  0  0  0
    4.1103    1.8027    0.0323 C   0  0  0  0  0  0  0  0  0  0  0  0
    4.0507    2.9062   -0.5031 O   0  0  0  0  0  0  0  0  0  0  0  0
    5.2264    1.3080    0.6972 N   0  0  0  0  0  0  0  0  0  0  0  0
    6.4748    1.9267    0.8985 C   0  0  0  0  0  0  0  0  0  0  0  0
    7.4365    1.1940    1.6098 C   0  0  0  0  0  0  0  0  0  0  0  0
    8.7037    1.7272    1.8583 C   0  0  0  0  0  0  0  0  0  0  0  0
    9.0218    3.0015    1.3968 C   0  0  0  0  0  0  0  0  0  0  0  0
    8.0703    3.7328    0.6898 C   0  0  0  0  0  0  0  0  0  0  0  0
    8.4676    5.3091    0.1202 Cl  0  0  0  0  0  0  0  0  0  0  0  0
    6.8016    3.2037    0.4383 C   0  0  0  0  0  0  0  0  0  0  0  0
    1.5038    1.1850   -0.7082 S   0  0  0  0  0  0  0  0  0  0  0  0
   -7.5931   -3.3989   -2.2986 H   0  0  0  0  0  0  0  0  0  0  0  0
   -8.7588   -3.4692   -0.9669 H   0  0  0  0  0  0  0  0  0  0  0  0
   -8.5446   -1.9635   -1.8627 H   0  0  0  0  0  0  0  0  0  0  0  0
   -6.5375   -3.3358   -0.0048 H   0  0  0  0  0  0  0  0  0  0  0  0
   -7.3872   -1.8373    0.3347 H   0  0  0  0  0  0  0  0  0  0  0  0
   -5.3576   -2.2416   -1.9347 H   0  0  0  0  0  0  0  0  0  0  0  0
   -5.3711    0.2595   -2.0862 H   0  0  0  0  0  0  0  0  0  0  0  0
   -6.9505   -0.4174   -2.4851 H   0  0  0  0  0  0  0  0  0  0  0  0
   -6.6747    0.3267   -0.8974 H   0  0  0  0  0  0  0  0  0  0  0  0
   -5.0052   -1.1512    0.8022 H   0  0  0  0  0  0  0  0  0  0  0  0
   -3.0256   -0.3619    1.4195 H   0  0  0  0  0  0  0  0  0  0  0  0
   -2.1944   -1.8932    1.1568 H   0  0  0  0  0  0  0  0  0  0  0  0
   -0.6550   -0.6452   -1.5163 H   0  0  0  0  0  0  0  0  0  0  0  0
   -0.4187   -1.9551   -0.3256 H   0  0  0  0  0  0  0  0  0  0  0  0
    5.1068    0.3742    1.0828 H   0  0  0  0  0  0  0  0  0  0  0  0
    7.2129    0.1956    1.9798 H   0  0  0  0  0  0  0  0  0  0  0  0
    9.4401    1.1481    2.4100 H   0  0  0  0  0  0  0  0  0  0  0  0
   10.0072    3.4178    1.5884 H   0  0  0  0  0  0  0  0  0  0  0  0
    6.0935    3.8093   -0.1167 H   0  0  0  0  0  0  0  0  0  0  0  0
  1  2  1  0
  2  3  1  0
  3  4  1  0
  3  5  1  0
  5  6  1  0
  6  7  2  0
  6  8  1  0
  8  9  1  0
  9 10  1  0
 10 11  1  0
 11 12  2  0
 12 13  1  0
 13 14  2  0
 14 15  1  0
 15 16  2  0
 15 17  1  0
 17 18  1  0
 18 19  2  0
 19 20  1  0
 20 21  2  0
 21 22  1  0
 22 23  1  0
 22 24  2  0
 14 25  1  0
 25 11  1  0
 24 18  1  0
  1 26  1  0
  1 27  1  0
  1 28  1  0
  2 29  1  0
  2 30  1  0
  3 31  1  0
  4 32  1  0
  4 33  1  0
  4 34  1  0
  5 35  1  0
  8 36  1  0
  8 37  1  0
 10 38  1  0
 10 39  1  0
 17 40  1  0
 19 41  1  0
 20 42  1  0
 21 43  1  0
 24 44  1  0
M  END
$$$$
