
     RDKit          3D

 71 74  0  0  0  0  0  0  0  0999 V2000
   -4.8564   -1.9681    3.3460 C   0  0  0  0  0  0  0  0  0  0  0  0
   -4.0379   -1.9533    2.1056 C   0  0  0  0  0  0  0  0  0  0  0  0
   -3.6087   -3.1117    1.5071 N   0  0  0  0  0  0  0  0  0  0  0  0
   -2.8590   -2.8185    0.3945 C   0  0  0  0  0  0  0  0  0  0  0  0
   -2.2721   -3.8857   -0.4562 C   0  0  0  0  0  0  0  0  0  0  0  0
   -2.8057   -1.4353    0.2869 C   0  0  0  0  0  0  0  0  0  0  0  0
   -1.9481   -0.5467   -0.9295 S   0  0  0  0  0  6  0  0  0  0  0  0
   -2.5868   -0.9490   -2.1642 O   0  0  0  0  0  0  0  0  0  0  0  0
   -1.9160    0.8340   -0.5031 O   0  0  0  0  0  0  0  0  0  0  0  0
   -0.3352   -1.1057   -0.9489 N   0  0  0  0  0  0  0  0  0  0  0  0
    0.4341   -0.8149    0.2812 C   0  0  0  0  0  0  0  0  0  0  0  0
    1.6822   -1.6908    0.2981 C   0  0  0  0  0  0  0  0  0  0  0  0
    2.4562   -1.6398   -1.0292 C   0  0  0  0  0  0  0  0  0  0  0  0
    3.9442   -1.4146   -0.7990 C   0  0  0  0  0  0  0  0  0  0  0  0
    4.7732   -2.2689   -1.1036 O   0  0  0  0  0  0  0  0  0  0  0  0
    4.2796   -0.2096   -0.2176 N   0  0  0  0  0  0  0  0  0  0  0  0
    5.6681    0.1792   -0.0070 C   0  0  0  0  0  0  0  0  0  0  0  0
    5.7648    1.1844    1.1462 C   0  0  0  0  0  0  0  0  0  0  0  0
    7.1986    1.6582    1.3652 C   0  0  0  0  0  0  0  0  0  0  0  0
    7.8074    2.2242    0.0854 C   0  0  0  0  0  0  0  0  0  0  0  0
    7.7054    1.2369   -1.0740 C   0  0  0  0  0  0  0  0  0  0  0  0
    6.2707    0.7626   -1.2920 C   0  0  0  0  0  0  0  0  0  0  0  0
    1.8802   -0.6085   -2.0021 C   0  0  0  0  0  0  0  0  0  0  0  0
    0.3837   -0.8132   -2.2156 C   0  0  0  0  0  0  0  0  0  0  0  0
   -3.5773   -0.8823    1.3499 C   0  0  0  0  0  0  0  0  0  0  0  0
   -3.8227    0.5195    1.6652 C   0  0  0  0  0  0  0  0  0  0  0  0
   -3.3476    1.0052    2.6914 O   0  0  0  0  0  0  0  0  0  0  0  0
   -4.6297    1.2429    0.7814 N   0  0  0  0  0  0  0  0  0  0  0  0
   -4.9299    2.6257    1.1368 C   0  0  0  0  0  0  0  0  0  0  0  0
   -5.1255    3.5075   -0.0937 C   0  0  0  0  0  0  0  0  0  0  0  0
   -6.1391    2.9009   -1.0584 C   0  0  0  0  0  0  0  0  0  0  0  0
   -5.7279    1.4794   -1.4270 C   0  0  0  0  0  0  0  0  0  0  0  0
   -5.5387    0.6180   -0.1813 C   0  0  0  0  0  0  0  0  0  0  0  0
   -4.2949   -1.5308    4.1772 H   0  0  0  0  0  0  0  0  0  0  0  0
   -5.7723   -1.3865    3.2038 H   0  0  0  0  0  0  0  0  0  0  0  0
   -5.1434   -2.9860    3.6281 H   0  0  0  0  0  0  0  0  0  0  0  0
   -3.8112   -4.0458    1.8410 H   0  0  0  0  0  0  0  0  0  0  0  0
   -1.1825   -3.7922   -0.4982 H   0  0  0  0  0  0  0  0  0  0  0  0
   -2.5047   -4.8833   -0.0679 H   0  0  0  0  0  0  0  0  0  0  0  0
   -2.6671   -3.8222   -1.4753 H   0  0  0  0  0  0  0  0  0  0  0  0
    0.7029    0.2479    0.3224 H   0  0  0  0  0  0  0  0  0  0  0  0
   -0.1598   -1.0415    1.1734 H   0  0  0  0  0  0  0  0  0  0  0  0
    1.3820   -2.7326    0.4774 H   0  0  0  0  0  0  0  0  0  0  0  0
    2.3072   -1.4086    1.1544 H   0  0  0  0  0  0  0  0  0  0  0  0
    2.3680   -2.6278   -1.5040 H   0  0  0  0  0  0  0  0  0  0  0  0
    3.5729    0.5076   -0.1282 H   0  0  0  0  0  0  0  0  0  0  0  0
    6.2316   -0.7234    0.2641 H   0  0  0  0  0  0  0  0  0  0  0  0
    5.1238    2.0516    0.9384 H   0  0  0  0  0  0  0  0  0  0  0  0
    5.3833    0.7321    2.0699 H   0  0  0  0  0  0  0  0  0  0  0  0
    7.8103    0.8193    1.7189 H   0  0  0  0  0  0  0  0  0  0  0  0
    7.2202    2.4203    2.1523 H   0  0  0  0  0  0  0  0  0  0  0  0
    8.8605    2.4761    0.2622 H   0  0  0  0  0  0  0  0  0  0  0  0
    7.2959    3.1580   -0.1825 H   0  0  0  0  0  0  0  0  0  0  0  0
    8.0832    1.7055   -1.9898 H   0  0  0  0  0  0  0  0  0  0  0  0
    8.3477    0.3718   -0.8707 H   0  0  0  0  0  0  0  0  0  0  0  0
    6.2534    0.0145   -2.0936 H   0  0  0  0  0  0  0  0  0  0  0  0
    5.6563    1.6045   -1.6400 H   0  0  0  0  0  0  0  0  0  0  0  0
    2.4005   -0.6622   -2.9664 H   0  0  0  0  0  0  0  0  0  0  0  0
    2.0475    0.4118   -1.6340 H   0  0  0  0  0  0  0  0  0  0  0  0
    0.2227   -1.6637   -2.8884 H   0  0  0  0  0  0  0  0  0  0  0  0
   -0.0233    0.0792   -2.7034 H   0  0  0  0  0  0  0  0  0  0  0  0
   -5.8399    2.6136    1.7492 H   0  0  0  0  0  0  0  0  0  0  0  0
   -4.1283    3.0468    1.7532 H   0  0  0  0  0  0  0  0  0  0  0  0
   -4.1640    3.6266   -0.6120 H   0  0  0  0  0  0  0  0  0  0  0  0
   -5.4536    4.5070    0.2140 H   0  0  0  0  0  0  0  0  0  0  0  0
   -6.2104    3.5166   -1.9635 H   0  0  0  0  0  0  0  0  0  0  0  0
   -7.1334    2.8887   -0.5934 H   0  0  0  0  0  0  0  0  0  0  0  0
   -4.7880    1.5122   -1.9945 H   0  0  0  0  0  0  0  0  0  0  0  0
   -6.4849    1.0293   -2.0788 H   0  0  0  0  0  0  0  0  0  0  0  0
   -6.4991    0.4760    0.3319 H   0  0  0  0  0  0  0  0  0  0  0  0
   -5.1931   -0.3721   -0.4854 H   0  0  0  0  0  0  0  0  0  0  0  0
  1  2  1  0
  2  3  1  0
  3  4  1  0
  4  5  1  0
  4  6  2  0
  6  7  1  0
  7  8  2  0
  7  9  2  0
  7 10  1  0
 10 11  1  0
 11 12  1  0
 12 13  1  0
 13 14  1  0
 14 15  2  0
 14 16  1  0
 16 17  1  0
 17 18  1  0
 18 19  1  0
 19 20  1  0
 20 21  1  0
 21 22  1  0
 13 23  1  0
 23 24  1  0
  6 25  1  0
 25 26  1  0
 26 27  2  0
 26 28  1  0
 28 29  1  0
 29 30  1  0
 30 31  1  0
 31 32  1  0
 32 33  1  0
 25  2  2  0
 33 28  1  0
 24 10  1  0
 22 17  1  0
  1 34  1  0
  1 35  1  0
  1 36  1  0
  3 37  1  0
  5 38  1  0
  5 39  1  0
  5 40  1  0
 11 41  1  0
 11 42  1  0
 12 43  1  0
 12 44  1  0
 13 45  1  0
 16 46  1  0
 17 47  1  0
 18 48  1  0
 18 49  1  0
 19 50  1  0
 19 51  1  0
 20 52  1  0
 20 53  1  0
 21 54  1  0
 21 55  1  0
 22 56  1  0
 22 57  1  0
 23 58  1  0
 23 59  1  0
 24 60  1  0
 24 61  1  0
 29 62  1  0
 29 63  1  0
 30 64  1  0
 30 65  1  0
 31 66  1  0
 31 67  1  0
 32 68  1  0
 32 69  1  0
 33 70  1  0
 33 71  1  0
M  END
$$$$
