
     RDKit          3D

 51 52  0  0  0  0  0  0  0  0999 V2000
    5.7127   -1.2767   -3.4280 C   0  0  0  0  0  0  0  0  0  0  0  0
    4.8519   -1.8102   -2.4294 O   0  0  0  0  0  0  0  0  0  0  0  0
    5.4195   -1.6632   -1.1204 C   0  0  0  0  0  0  0  0  0  0  0  0
    4.4432   -2.2413   -0.0948 C   0  0  0  0  0  0  0  0  0  0  0  0
    3.1860   -1.5103   -0.0732 N   0  0  0  0  0  0  0  0  0  0  0  0
    3.0782   -0.3062    0.5902 C   0  0  0  0  0  0  0  0  0  0  0  0
    3.9772    0.1477    1.2895 O   0  0  0  0  0  0  0  0  0  0  0  0
    1.7404    0.3965    0.3685 C   0  0  0  0  0  0  0  0  0  0  0  0
    0.5841   -0.4170    0.9759 C   0  0  0  0  0  0  0  0  0  0  0  0
    0.1841    0.1104    2.3491 C   0  0  0  0  0  0  0  0  0  0  0  0
   -0.2590    1.5199    2.2636 N   0  0  0  0  0  0  0  0  0  0  0  0
   -1.8510    1.8980    2.7129 S   0  0  0  0  0  6  0  0  0  0  0  0
   -2.0006    3.3379    2.6775 O   0  0  0  0  0  0  0  0  0  0  0  0
   -2.1841    1.1386    3.8994 O   0  0  0  0  0  0  0  0  0  0  0  0
   -2.8131    1.2339    1.3667 C   0  0  0  0  0  0  0  0  0  0  0  0
   -3.1464    2.0502    0.2852 C   0  0  0  0  0  0  0  0  0  0  0  0
   -3.9153    1.5341   -0.7614 C   0  0  0  0  0  0  0  0  0  0  0  0
   -4.3658    0.2094   -0.7250 C   0  0  0  0  0  0  0  0  0  0  0  0
   -5.1192   -0.3868   -1.7022 O   0  0  0  0  0  0  0  0  0  0  0  0
   -5.5437    0.4251   -2.7894 C   0  0  0  0  0  0  0  0  0  0  0  0
   -4.0465   -0.6060    0.3785 C   0  0  0  0  0  0  0  0  0  0  0  0
   -4.5393   -2.0257    0.4531 C   0  0  0  0  0  0  0  0  0  0  0  0
   -3.2791   -0.0816    1.4299 C   0  0  0  0  0  0  0  0  0  0  0  0
    0.3612    2.3394    1.2004 C   0  0  0  0  0  0  0  0  0  0  0  0
    1.7678    1.8372    0.9031 C   0  0  0  0  0  0  0  0  0  0  0  0
    5.8690   -0.2058   -3.2663 H   0  0  0  0  0  0  0  0  0  0  0  0
    6.6721   -1.8029   -3.4279 H   0  0  0  0  0  0  0  0  0  0  0  0
    5.2372   -1.4170   -4.4024 H   0  0  0  0  0  0  0  0  0  0  0  0
    6.3659   -2.2135   -1.0748 H   0  0  0  0  0  0  0  0  0  0  0  0
    5.6104   -0.6025   -0.9223 H   0  0  0  0  0  0  0  0  0  0  0  0
    4.8881   -2.2184    0.9054 H   0  0  0  0  0  0  0  0  0  0  0  0
    4.1932   -3.2763   -0.3495 H   0  0  0  0  0  0  0  0  0  0  0  0
    2.5713   -1.6765   -0.8608 H   0  0  0  0  0  0  0  0  0  0  0  0
    1.5898    0.4400   -0.7193 H   0  0  0  0  0  0  0  0  0  0  0  0
    0.8311   -1.4811    1.0583 H   0  0  0  0  0  0  0  0  0  0  0  0
   -0.2804   -0.3523    0.3026 H   0  0  0  0  0  0  0  0  0  0  0  0
   -0.5983   -0.5307    2.7658 H   0  0  0  0  0  0  0  0  0  0  0  0
    1.0297    0.0557    3.0449 H   0  0  0  0  0  0  0  0  0  0  0  0
   -2.8179    3.0868    0.2501 H   0  0  0  0  0  0  0  0  0  0  0  0
   -4.1509    2.1953   -1.5892 H   0  0  0  0  0  0  0  0  0  0  0  0
   -6.1612   -0.1940   -3.4472 H   0  0  0  0  0  0  0  0  0  0  0  0
   -4.6879    0.7794   -3.3732 H   0  0  0  0  0  0  0  0  0  0  0  0
   -6.1611    1.2604   -2.4427 H   0  0  0  0  0  0  0  0  0  0  0  0
   -5.6331   -2.0443    0.4938 H   0  0  0  0  0  0  0  0  0  0  0  0
   -4.1967   -2.5937   -0.4179 H   0  0  0  0  0  0  0  0  0  0  0  0
   -4.1624   -2.5353    1.3463 H   0  0  0  0  0  0  0  0  0  0  0  0
   -3.0516   -0.6980    2.2975 H   0  0  0  0  0  0  0  0  0  0  0  0
    0.4222    3.3795    1.5379 H   0  0  0  0  0  0  0  0  0  0  0  0
   -0.2414    2.3072    0.2873 H   0  0  0  0  0  0  0  0  0  0  0  0
    2.2509    2.4895    0.1655 H   0  0  0  0  0  0  0  0  0  0  0  0
    2.3688    1.9109    1.8184 H   0  0  0  0  0  0  0  0  0  0  0  0
  1  2  1  0
  2  3  1  0
  3  4  1  0
  4  5  1  0
  5  6  1  0
  6  7  2  0
  6  8  1  0
  8  9  1  0
  9 10  1  0
 10 11  1  0
 11 12  1  0
 12 13  2  0
 12 14  2  0
 12 15  1  0
 15 16  2  0
 16 17  1  0
 17 18  2  0
 18 19  1  0
 19 20  1  0
 18 21  1  0
 21 22  1  0
 21 23  2  0
 11 24  1  0
 24 25  1  0
 25  8  1  0
 23 15  1  0
  1 26  1  0
  1 27  1  0
  1 28  1  0
  3 29  1  0
  3 30  1  0
  4 31  1  0
  4 32  1  0
  5 33  1  0
  8 34  1  0
  9 35  1  0
  9 36  1  0
 10 37  1  0
 10 38  1  0
 16 39  1  0
 17 40  1  0
 20 41  1  0
 20 42  1  0
 20 43  1  0
 22 44  1  0
 22 45  1  0
 22 46  1  0
 23 47  1  0
 24 48  1  0
 24 49  1  0
 25 50  1  0
 25 51  1  0
M  END
$$$$
