
     RDKit          3D

 54 55  0  0  0  0  0  0  0  0999 V2000
    3.3238   -1.1334    0.8832 C   0  0  0  0  0  0  0  0  0  0  0  0
    2.3306    0.0252    1.0569 C   0  0  0  0  0  0  0  0  0  0  0  0
    2.9560    1.1343    1.9069 C   0  0  0  0  0  0  0  0  0  0  0  0
    1.6557    0.4943   -0.1693 N   0  0  0  0  0  0  0  0  0  0  0  0
    0.8432   -0.5574   -0.8031 C   0  0  0  0  0  0  0  0  0  0  0  0
   -0.4373   -0.0501   -1.5126 C   0  0  0  0  0  0  0  0  0  0  0  0
   -1.7774   -0.1029   -0.6921 C   0  0  0  0  0  0  0  0  0  0  0  0
   -2.8906    0.6123   -1.5601 C   0  0  0  0  0  0  0  0  0  0  0  0
   -2.9280    0.3016   -2.9006 N   0  0  0  0  0  0  0  0  0  0  0  0
   -3.7923    1.3278   -1.1241 O   0  0  0  0  0  0  0  0  0  0  0  0
   -2.3327   -1.5402   -0.4490 C   0  0  0  0  0  0  0  0  0  0  0  0
   -3.5634   -1.6939    0.2291 C   0  0  0  0  0  0  0  0  0  0  0  0
   -4.1216   -2.9536    0.4542 C   0  0  0  0  0  0  0  0  0  0  0  0
   -3.4699   -4.0930   -0.0021 C   0  0  0  0  0  0  0  0  0  0  0  0
   -2.2659   -3.9701   -0.6886 C   0  0  0  0  0  0  0  0  0  0  0  0
   -1.7058   -2.7082   -0.9163 C   0  0  0  0  0  0  0  0  0  0  0  0
   -1.5471    0.7197    0.6007 C   0  0  0  0  0  0  0  0  0  0  0  0
   -1.4081    0.1209    1.8578 C   0  0  0  0  0  0  0  0  0  0  0  0
   -1.1653    0.9155    2.9775 C   0  0  0  0  0  0  0  0  0  0  0  0
   -1.0484    2.2888    2.8266 C   0  0  0  0  0  0  0  0  0  0  0  0
   -1.1717    2.8117    1.5542 C   0  0  0  0  0  0  0  0  0  0  0  0
   -1.4048    2.0653    0.4536 N   0  0  0  0  0  0  0  0  0  0  0  0
    2.3615    1.3437   -1.1491 C   0  0  0  0  0  0  0  0  0  0  0  0
    3.7930    0.9463   -1.5105 C   0  0  0  0  0  0  0  0  0  0  0  0
    2.2923    2.8256   -0.7611 C   0  0  0  0  0  0  0  0  0  0  0  0
    3.5798   -1.5537    1.8630 H   0  0  0  0  0  0  0  0  0  0  0  0
    2.9023   -1.9505    0.2899 H   0  0  0  0  0  0  0  0  0  0  0  0
    4.2614   -0.8207    0.4191 H   0  0  0  0  0  0  0  0  0  0  0  0
    1.5311   -0.3748    1.6956 H   0  0  0  0  0  0  0  0  0  0  0  0
    2.2445    1.9489    2.0775 H   0  0  0  0  0  0  0  0  0  0  0  0
    3.8635    1.5441    1.4563 H   0  0  0  0  0  0  0  0  0  0  0  0
    3.2350    0.7435    2.8924 H   0  0  0  0  0  0  0  0  0  0  0  0
    1.4633   -1.0906   -1.5361 H   0  0  0  0  0  0  0  0  0  0  0  0
    0.5537   -1.3114   -0.0631 H   0  0  0  0  0  0  0  0  0  0  0  0
   -0.2873    0.9777   -1.8691 H   0  0  0  0  0  0  0  0  0  0  0  0
   -0.5438   -0.6395   -2.4330 H   0  0  0  0  0  0  0  0  0  0  0  0
   -3.7479    0.6637   -3.3723 H   0  0  0  0  0  0  0  0  0  0  0  0
   -2.6193   -0.6133   -3.1990 H   0  0  0  0  0  0  0  0  0  0  0  0
   -4.1050   -0.8178    0.5905 H   0  0  0  0  0  0  0  0  0  0  0  0
   -5.0679   -3.0395    0.9825 H   0  0  0  0  0  0  0  0  0  0  0  0
   -3.9027   -5.0747    0.1711 H   0  0  0  0  0  0  0  0  0  0  0  0
   -1.7600   -4.8610   -1.0534 H   0  0  0  0  0  0  0  0  0  0  0  0
   -0.7730   -2.6778   -1.4707 H   0  0  0  0  0  0  0  0  0  0  0  0
   -1.4701   -0.9546    1.9857 H   0  0  0  0  0  0  0  0  0  0  0  0
   -1.0614    0.4603    3.9578 H   0  0  0  0  0  0  0  0  0  0  0  0
   -0.8586    2.9347    3.6753 H   0  0  0  0  0  0  0  0  0  0  0  0
   -1.0814    3.8786    1.3746 H   0  0  0  0  0  0  0  0  0  0  0  0
    1.8140    1.2942   -2.0992 H   0  0  0  0  0  0  0  0  0  0  0  0
    4.4940    1.1161   -0.6894 H   0  0  0  0  0  0  0  0  0  0  0  0
    3.8469   -0.1031   -1.8173 H   0  0  0  0  0  0  0  0  0  0  0  0
    4.1468    1.5448   -2.3582 H   0  0  0  0  0  0  0  0  0  0  0  0
    1.2692    3.1178   -0.5027 H   0  0  0  0  0  0  0  0  0  0  0  0
    2.9454    3.0778    0.0770 H   0  0  0  0  0  0  0  0  0  0  0  0
    2.6015    3.4508   -1.6068 H   0  0  0  0  0  0  0  0  0  0  0  0
  1  2  1  0
  2  3  1  0
  2  4  1  0
  4  5  1  0
  5  6  1  0
  6  7  1  0
  7  8  1  0
  8  9  1  0
  8 10  2  0
  7 11  1  0
 11 12  2  0
 12 13  1  0
 13 14  2  0
 14 15  1  0
 15 16  2  0
  7 17  1  0
 17 18  2  0
 18 19  1  0
 19 20  2  0
 20 21  1  0
 21 22  2  0
  4 23  1  0
 23 24  1  0
 23 25  1  0
 16 11  1  0
 22 17  1  0
  1 26  1  0
  1 27  1  0
  1 28  1  0
  2 29  1  0
  3 30  1  0
  3 31  1  0
  3 32  1  0
  5 33  1  0
  5 34  1  0
  6 35  1  0
  6 36  1  0
  9 37  1  0
  9 38  1  0
 12 39  1  0
 13 40  1  0
 14 41  1  0
 15 42  1  0
 16 43  1  0
 18 44  1  0
 19 45  1  0
 20 46  1  0
 21 47  1  0
 23 48  1  0
 24 49  1  0
 24 50  1  0
 24 51  1  0
 25 52  1  0
 25 53  1  0
 25 54  1  0
M  END
$$$$
