
     RDKit          3D

 65 68  0  0  0  0  0  0  0  0999 V2000
    5.5274    1.4147    3.1460 C   0  0  0  0  0  0  0  0  0  0  0  0
    5.6685    1.1336    1.7597 O   0  0  0  0  0  0  0  0  0  0  0  0
    5.7737   -0.2709    1.5106 C   0  0  0  0  0  0  0  0  0  0  0  0
    5.8239   -0.5345    0.0063 C   0  0  0  0  0  0  0  0  0  0  0  0
    4.4940   -0.6114   -0.5970 N   0  0  0  0  0  0  0  0  0  0  0  0
    3.8378    0.4273   -1.2225 C   0  0  0  0  0  0  0  0  0  0  0  0
    4.3839    1.8070   -1.3395 C   0  0  0  0  0  0  0  0  0  0  0  0
    2.6468   -0.0716   -1.7086 C   0  0  0  0  0  0  0  0  0  0  0  0
    2.5555   -1.4501   -1.3693 C   0  0  0  0  0  0  0  0  0  0  0  0
    1.4999   -2.4053   -1.7184 C   0  0  0  0  0  0  0  0  0  0  0  0
    1.7714   -3.5433   -2.1017 O   0  0  0  0  0  0  0  0  0  0  0  0
    0.1856   -1.9914   -1.5817 N   0  0  0  0  0  0  0  0  0  0  0  0
   -0.9037   -2.8749   -1.9557 C   0  0  0  0  0  0  0  0  0  0  0  0
   -2.1716   -2.0644   -1.7244 C   0  0  0  0  0  0  0  0  0  0  0  0
   -1.7756   -1.1715   -0.5446 C   0  0  0  0  0  0  0  0  0  0  0  0
   -2.7015   -0.0555   -0.2709 N   0  0  0  0  0  0  0  0  0  0  0  0
   -2.7814    0.9820   -1.2104 C   0  0  0  0  0  0  0  0  0  0  0  0
   -2.1706    0.9591   -2.2745 O   0  0  0  0  0  0  0  0  0  0  0  0
   -3.6488    2.1661   -0.9304 C   0  0  0  0  0  0  0  0  0  0  0  0
   -3.7185    3.3110   -1.9229 C   0  0  0  0  0  0  0  0  0  0  0  0
   -4.8923    2.3937   -1.7643 C   0  0  0  0  0  0  0  0  0  0  0  0
   -3.4883   -0.1583    0.9820 C   0  0  0  0  0  0  0  0  0  0  0  0
   -2.9781    0.7710    2.0915 C   0  0  0  0  0  0  0  0  0  0  0  0
   -4.0953    1.1281    3.0650 C   0  0  0  0  0  0  0  0  0  0  0  0
   -4.9243   -0.0091    3.2815 O   0  0  0  0  0  0  0  0  0  0  0  0
   -5.7053   -0.3656    2.1387 C   0  0  0  0  0  0  0  0  0  0  0  0
   -5.0069   -0.0793    0.8087 C   0  0  0  0  0  0  0  0  0  0  0  0
   -0.3052   -0.8241   -0.8533 C   0  0  0  0  0  0  0  0  0  0  0  0
    3.7274   -1.7615   -0.6837 C   0  0  0  0  0  0  0  0  0  0  0  0
    4.1611   -3.0798   -0.1319 C   0  0  0  0  0  0  0  0  0  0  0  0
    5.4641    2.4992    3.2725 H   0  0  0  0  0  0  0  0  0  0  0  0
    6.3952    1.0467    3.7027 H   0  0  0  0  0  0  0  0  0  0  0  0
    4.6093    0.9636    3.5357 H   0  0  0  0  0  0  0  0  0  0  0  0
    6.7083   -0.6229    1.9640 H   0  0  0  0  0  0  0  0  0  0  0  0
    4.9343   -0.7956    1.9815 H   0  0  0  0  0  0  0  0  0  0  0  0
    6.3174   -1.4920   -0.1948 H   0  0  0  0  0  0  0  0  0  0  0  0
    6.3925    0.2402   -0.5179 H   0  0  0  0  0  0  0  0  0  0  0  0
    5.3035    1.8117   -1.9322 H   0  0  0  0  0  0  0  0  0  0  0  0
    4.5934    2.2335   -0.3556 H   0  0  0  0  0  0  0  0  0  0  0  0
    3.6652    2.4662   -1.8372 H   0  0  0  0  0  0  0  0  0  0  0  0
    1.9276    0.4971   -2.2845 H   0  0  0  0  0  0  0  0  0  0  0  0
   -0.8708   -3.7534   -1.3008 H   0  0  0  0  0  0  0  0  0  0  0  0
   -0.7928   -3.2054   -2.9930 H   0  0  0  0  0  0  0  0  0  0  0  0
   -2.4069   -1.4796   -2.6193 H   0  0  0  0  0  0  0  0  0  0  0  0
   -3.0370   -2.6967   -1.5043 H   0  0  0  0  0  0  0  0  0  0  0  0
   -1.7437   -1.8143    0.3463 H   0  0  0  0  0  0  0  0  0  0  0  0
   -3.6743    2.4941    0.0997 H   0  0  0  0  0  0  0  0  0  0  0  0
   -3.7999    4.3181   -1.5318 H   0  0  0  0  0  0  0  0  0  0  0  0
   -3.1433    3.2420   -2.8397 H   0  0  0  0  0  0  0  0  0  0  0  0
   -5.7754    2.7806   -1.2700 H   0  0  0  0  0  0  0  0  0  0  0  0
   -5.1016    1.7023   -2.5735 H   0  0  0  0  0  0  0  0  0  0  0  0
   -3.3279   -1.1790    1.3571 H   0  0  0  0  0  0  0  0  0  0  0  0
   -2.5083    1.6829    1.7115 H   0  0  0  0  0  0  0  0  0  0  0  0
   -2.1839    0.2397    2.6332 H   0  0  0  0  0  0  0  0  0  0  0  0
   -4.7025    1.9635    2.6955 H   0  0  0  0  0  0  0  0  0  0  0  0
   -3.6707    1.4331    4.0266 H   0  0  0  0  0  0  0  0  0  0  0  0
   -6.6642    0.1619    2.1885 H   0  0  0  0  0  0  0  0  0  0  0  0
   -5.9219   -1.4354    2.2242 H   0  0  0  0  0  0  0  0  0  0  0  0
   -5.3175    0.9171    0.4892 H   0  0  0  0  0  0  0  0  0  0  0  0
   -5.3608   -0.7717    0.0361 H   0  0  0  0  0  0  0  0  0  0  0  0
    0.2708   -0.6654    0.0639 H   0  0  0  0  0  0  0  0  0  0  0  0
   -0.1843    0.0474   -1.4970 H   0  0  0  0  0  0  0  0  0  0  0  0
    4.6874   -2.9662    0.8203 H   0  0  0  0  0  0  0  0  0  0  0  0
    4.8257   -3.5842   -0.8404 H   0  0  0  0  0  0  0  0  0  0  0  0
    3.3036   -3.7327    0.0593 H   0  0  0  0  0  0  0  0  0  0  0  0
  1  2  1  0
  2  3  1  0
  3  4  1  0
  4  5  1  0
  5  6  1  0
  6  7  1  0
  6  8  2  0
  8  9  1  0
  9 10  1  0
 10 11  2  0
 10 12  1  0
 12 13  1  0
 13 14  1  0
 14 15  1  0
 15 16  1  0
 16 17  1  0
 17 18  2  0
 17 19  1  0
 19 20  1  0
 20 21  1  0
 16 22  1  0
 22 23  1  0
 23 24  1  0
 24 25  1  0
 25 26  1  0
 26 27  1  0
 15 28  1  0
  9 29  2  0
 29 30  1  0
 29  5  1  0
 28 12  1  0
 21 19  1  0
 27 22  1  0
  1 31  1  0
  1 32  1  0
  1 33  1  0
  3 34  1  0
  3 35  1  0
  4 36  1  0
  4 37  1  0
  7 38  1  0
  7 39  1  0
  7 40  1  0
  8 41  1  0
 13 42  1  0
 13 43  1  0
 14 44  1  0
 14 45  1  0
 15 46  1  0
 19 47  1  0
 20 48  1  0
 20 49  1  0
 21 50  1  0
 21 51  1  0
 22 52  1  0
 23 53  1  0
 23 54  1  0
 24 55  1  0
 24 56  1  0
 26 57  1  0
 26 58  1  0
 27 59  1  0
 27 60  1  0
 28 61  1  0
 28 62  1  0
 30 63  1  0
 30 64  1  0
 30 65  1  0
M  END
$$$$
