
     RDKit          3D

 45 48  0  0  0  0  0  0  0  0999 V2000
   -1.8846   -2.0958    3.1420 C   0  0  0  0  0  0  0  0  0  0  0  0
   -2.2381   -2.4698    1.7080 C   0  0  0  0  0  0  0  0  0  0  0  0
   -2.5249   -1.2850    0.8844 N   0  0  0  0  0  0  0  0  0  0  0  0
   -3.8873   -0.9785    0.7249 C   0  0  0  0  0  0  0  0  0  0  0  0
   -4.7848   -1.5902    1.3093 O   0  0  0  0  0  0  0  0  0  0  0  0
   -4.3211    0.0216   -0.2672 C   0  0  0  0  0  0  0  0  0  0  0  0
   -5.4210   -0.2737   -1.0853 C   0  0  0  0  0  0  0  0  0  0  0  0
   -5.8878    0.6699   -2.0033 C   0  0  0  0  0  0  0  0  0  0  0  0
   -5.2697    1.9158   -2.0961 C   0  0  0  0  0  0  0  0  0  0  0  0
   -4.1887    2.2190   -1.2677 C   0  0  0  0  0  0  0  0  0  0  0  0
   -3.7152    1.2653   -0.3634 C   0  0  0  0  0  0  0  0  0  0  0  0
   -2.6921    1.6204    0.4693 O   0  0  0  0  0  0  0  0  0  0  0  0
   -1.5375    0.9138    0.2367 C   0  0  0  0  0  0  0  0  0  0  0  0
   -0.4310    1.7018   -0.1115 C   0  0  0  0  0  0  0  0  0  0  0  0
    0.8161    1.1184   -0.3057 C   0  0  0  0  0  0  0  0  0  0  0  0
    0.9526   -0.2594   -0.1401 C   0  0  0  0  0  0  0  0  0  0  0  0
    2.2588   -0.9345   -0.3538 C   0  0  0  0  0  0  0  0  0  0  0  0
    2.2982   -2.0689   -0.8107 O   0  0  0  0  0  0  0  0  0  0  0  0
    3.3728   -0.2212    0.0249 N   0  0  0  0  0  0  0  0  0  0  0  0
    4.6739   -0.8477    0.0086 C   0  0  0  0  0  0  0  0  0  0  0  0
    5.6978    0.1998    0.2209 C   0  0  0  0  0  0  0  0  0  0  0  0
    6.6335    0.7932   -0.6015 C   0  0  0  0  0  0  0  0  0  0  0  0
    7.3221    1.7383    0.1941 C   0  0  0  0  0  0  0  0  0  0  0  0
    6.7640    1.6610    1.4483 C   0  0  0  0  0  0  0  0  0  0  0  0
    5.7724    0.7324    1.4755 O   0  0  0  0  0  0  0  0  0  0  0  0
   -0.1569   -1.0418    0.2180 C   0  0  0  0  0  0  0  0  0  0  0  0
   -1.4267   -0.4737    0.4291 C   0  0  0  0  0  0  0  0  0  0  0  0
   -2.7027   -1.5461    3.6155 H   0  0  0  0  0  0  0  0  0  0  0  0
   -1.6958   -2.9991    3.7326 H   0  0  0  0  0  0  0  0  0  0  0  0
   -0.9896   -1.4662    3.1872 H   0  0  0  0  0  0  0  0  0  0  0  0
   -1.4521   -3.0809    1.2578 H   0  0  0  0  0  0  0  0  0  0  0  0
   -3.1139   -3.1280    1.7304 H   0  0  0  0  0  0  0  0  0  0  0  0
   -5.9182   -1.2399   -1.0027 H   0  0  0  0  0  0  0  0  0  0  0  0
   -6.7389    0.4346   -2.6369 H   0  0  0  0  0  0  0  0  0  0  0  0
   -5.6368    2.6554   -2.8034 H   0  0  0  0  0  0  0  0  0  0  0  0
   -3.7185    3.1967   -1.3265 H   0  0  0  0  0  0  0  0  0  0  0  0
   -0.5521    2.7735   -0.2318 H   0  0  0  0  0  0  0  0  0  0  0  0
    1.6580    1.7383   -0.6053 H   0  0  0  0  0  0  0  0  0  0  0  0
    3.2591    0.5570    0.6600 H   0  0  0  0  0  0  0  0  0  0  0  0
    4.8193   -1.3637   -0.9466 H   0  0  0  0  0  0  0  0  0  0  0  0
    4.7079   -1.5927    0.8109 H   0  0  0  0  0  0  0  0  0  0  0  0
    6.7959    0.5775   -1.6495 H   0  0  0  0  0  0  0  0  0  0  0  0
    8.1273    2.3934   -0.1102 H   0  0  0  0  0  0  0  0  0  0  0  0
    6.9482    2.1700    2.3827 H   0  0  0  0  0  0  0  0  0  0  0  0
    0.0079   -2.1104    0.3022 H   0  0  0  0  0  0  0  0  0  0  0  0
  1  2  1  0
  2  3  1  0
  3  4  1  0
  4  5  2  0
  4  6  1  0
  6  7  2  0
  7  8  1  0
  8  9  2  0
  9 10  1  0
 10 11  2  0
 11 12  1  0
 12 13  1  0
 13 14  2  0
 14 15  1  0
 15 16  2  0
 16 17  1  0
 17 18  2  0
 17 19  1  0
 19 20  1  0
 20 21  1  0
 21 22  2  0
 22 23  1  0
 23 24  2  0
 24 25  1  0
 16 26  1  0
 26 27  2  0
 27  3  1  0
 11  6  1  0
 27 13  1  0
 25 21  1  0
  1 28  1  0
  1 29  1  0
  1 30  1  0
  2 31  1  0
  2 32  1  0
  7 33  1  0
  8 34  1  0
  9 35  1  0
 10 36  1  0
 14 37  1  0
 15 38  1  0
 19 39  1  0
 20 40  1  0
 20 41  1  0
 22 42  1  0
 23 43  1  0
 24 44  1  0
 26 45  1  0
M  END
$$$$
