
     RDKit          3D

 41 43  0  0  0  0  0  0  0  0999 V2000
    5.8753   -0.1449   -1.2007 C   0  0  0  0  0  0  0  0  0  0  0  0
    5.2480   -0.9265   -0.0462 C   0  0  0  0  0  0  0  0  0  0  0  0
    6.2016   -0.9712    1.1455 C   0  0  0  0  0  0  0  0  0  0  0  0
    3.8985   -0.3187    0.3536 C   0  0  0  0  0  0  0  0  0  0  0  0
    3.7430    0.2416    1.4344 O   0  0  0  0  0  0  0  0  0  0  0  0
    2.9441   -0.4971   -0.6247 N   0  0  0  0  0  0  0  0  0  0  0  0
    1.6287   -0.1112   -0.5828 C   0  0  0  0  0  0  0  0  0  0  0  0
    0.8109   -0.4083   -1.5664 N   0  0  0  0  0  0  0  0  0  0  0  0
   -0.4497    0.0817   -1.2762 C   0  0  0  0  0  0  0  0  0  0  0  0
   -0.5820    0.7212   -0.0581 C   0  0  0  0  0  0  0  0  0  0  0  0
   -1.7499    1.2943    0.5489 C   0  0  0  0  0  0  0  0  0  0  0  0
   -1.8616    2.4872    1.2341 C   0  0  0  0  0  0  0  0  0  0  0  0
   -3.2316    2.6339    1.5492 C   0  0  0  0  0  0  0  0  0  0  0  0
   -3.8599    3.7868    2.2753 C   0  0  0  0  0  0  0  0  0  0  0  0
   -3.5901    4.9748    1.6424 F   0  0  0  0  0  0  0  0  0  0  0  0
   -5.2181    3.6932    2.3461 F   0  0  0  0  0  0  0  0  0  0  0  0
   -3.9361    1.5818    1.1111 N   0  0  0  0  0  0  0  0  0  0  0  0
   -3.0303    0.7603    0.5230 N   0  0  0  0  0  0  0  0  0  0  0  0
   -3.4602   -0.4914    0.0320 C   0  0  0  0  0  0  0  0  0  0  0  0
   -2.9403   -1.6848    0.5499 C   0  0  0  0  0  0  0  0  0  0  0  0
   -1.8384   -1.7483    1.8821 Cl  0  0  0  0  0  0  0  0  0  0  0  0
   -3.3798   -2.9134    0.0431 C   0  0  0  0  0  0  0  0  0  0  0  0
   -4.3482   -2.9624   -0.9564 C   0  0  0  0  0  0  0  0  0  0  0  0
   -4.8841   -1.7801   -1.4542 C   0  0  0  0  0  0  0  0  0  0  0  0
   -4.4454   -0.5433   -0.9676 C   0  0  0  0  0  0  0  0  0  0  0  0
   -5.0887    0.8596   -1.7398 Cl  0  0  0  0  0  0  0  0  0  0  0  0
    0.9552    0.7703    0.7062 S   0  0  0  0  0  0  0  0  0  0  0  0
    5.2526   -0.1840   -2.1008 H   0  0  0  0  0  0  0  0  0  0  0  0
    6.8569   -0.5553   -1.4618 H   0  0  0  0  0  0  0  0  0  0  0  0
    6.0014    0.9131   -0.9365 H   0  0  0  0  0  0  0  0  0  0  0  0
    5.0660   -1.9591   -0.3697 H   0  0  0  0  0  0  0  0  0  0  0  0
    7.1320   -1.4786    0.8756 H   0  0  0  0  0  0  0  0  0  0  0  0
    6.4508    0.0346    1.4980 H   0  0  0  0  0  0  0  0  0  0  0  0
    5.7493   -1.5143    1.9845 H   0  0  0  0  0  0  0  0  0  0  0  0
    3.1693   -1.0258   -1.4574 H   0  0  0  0  0  0  0  0  0  0  0  0
   -1.2392   -0.0612   -2.0014 H   0  0  0  0  0  0  0  0  0  0  0  0
   -1.0660    3.1850    1.4485 H   0  0  0  0  0  0  0  0  0  0  0  0
   -3.4669    3.8530    3.2975 H   0  0  0  0  0  0  0  0  0  0  0  0
   -2.9807   -3.8427    0.4417 H   0  0  0  0  0  0  0  0  0  0  0  0
   -4.6924   -3.9205   -1.3399 H   0  0  0  0  0  0  0  0  0  0  0  0
   -5.6441   -1.8290   -2.2295 H   0  0  0  0  0  0  0  0  0  0  0  0
  1  2  1  0
  2  3  1  0
  2  4  1  0
  4  5  2  0
  4  6  1  0
  6  7  1  0
  7  8  2  0
  8  9  1  0
  9 10  2  0
 10 11  1  0
 11 12  2  0
 12 13  1  0
 13 14  1  0
 14 15  1  0
 14 16  1  0
 13 17  2  0
 17 18  1  0
 18 19  1  0
 19 20  2  0
 20 21  1  0
 20 22  1  0
 22 23  2  0
 23 24  1  0
 24 25  2  0
 25 26  1  0
 10 27  1  0
 27  7  1  0
 18 11  1  0
 25 19  1  0
  1 28  1  0
  1 29  1  0
  1 30  1  0
  2 31  1  0
  3 32  1  0
  3 33  1  0
  3 34  1  0
  6 35  1  0
  9 36  1  0
 12 37  1  0
 14 38  1  0
 22 39  1  0
 23 40  1  0
 24 41  1  0
M  END
$$$$
