
     RDKit          3D

 48 51  0  0  0  0  0  0  0  0999 V2000
    2.4362    1.4567   -1.9680 O   0  0  0  0  0  0  0  0  0  0  0  0
    2.7324    0.7513   -1.0098 C   0  0  0  0  0  0  0  0  0  0  0  0
    4.1122    0.6449   -0.5202 C   0  0  0  0  0  0  0  0  0  0  0  0
    5.1453    1.3598   -1.1341 C   0  0  0  0  0  0  0  0  0  0  0  0
    6.4313    1.2369   -0.6287 C   0  0  0  0  0  0  0  0  0  0  0  0
    7.4320    1.9782   -1.1849 O   0  0  0  0  0  0  0  0  0  0  0  0
    6.6936    0.3901    0.4462 C   0  0  0  0  0  0  0  0  0  0  0  0
    7.9709    0.2095    0.8907 O   0  0  0  0  0  0  0  0  0  0  0  0
    5.6655   -0.3085    1.0664 C   0  0  0  0  0  0  0  0  0  0  0  0
    4.3638   -0.1802    0.5780 C   0  0  0  0  0  0  0  0  0  0  0  0
    3.3923   -0.9027    1.2258 O   0  0  0  0  0  0  0  0  0  0  0  0
    2.0985   -0.8057    0.7748 C   0  0  0  0  0  0  0  0  0  0  0  0
    1.1503   -1.5598    1.4626 C   0  0  0  0  0  0  0  0  0  0  0  0
   -0.1942   -1.5225    1.0749 C   0  0  0  0  0  0  0  0  0  0  0  0
   -1.0788   -2.3075    1.7594 O   0  0  0  0  0  0  0  0  0  0  0  0
   -0.6316   -0.7361   -0.0016 C   0  0  0  0  0  0  0  0  0  0  0  0
   -2.0831   -0.5895   -0.4401 C   0  0  2  0  0  0  0  0  0  0  0  0
   -2.5251    0.6963    0.0322 O   0  0  0  0  0  0  0  0  0  0  0  0
   -3.7601    1.1188   -0.5729 C   0  0  2  0  0  0  0  0  0  0  0  0
   -4.0901    2.5306   -0.0661 C   0  0  0  0  0  0  0  0  0  0  0  0
   -4.3712    2.5344    1.3349 O   0  0  0  0  0  0  0  0  0  0  0  0
   -4.8930    0.1268   -0.2718 C   0  0  1  0  0  0  0  0  0  0  0  0
   -6.0764    0.4593   -1.0103 O   0  0  0  0  0  0  0  0  0  0  0  0
   -4.4634   -1.2920   -0.6512 C   0  0  2  0  0  0  0  0  0  0  0  0
   -5.4786   -2.2231   -0.2348 O   0  0  0  0  0  0  0  0  0  0  0  0
   -3.1201   -1.6473   -0.0045 C   0  0  1  0  0  0  0  0  0  0  0  0
   -2.7779   -2.9778   -0.4195 O   0  0  0  0  0  0  0  0  0  0  0  0
    0.3527    0.0068   -0.6928 C   0  0  0  0  0  0  0  0  0  0  0  0
   -0.0500    0.7586   -1.7730 O   0  0  0  0  0  0  0  0  0  0  0  0
    1.7020   -0.0250   -0.3041 C   0  0  0  0  0  0  0  0  0  0  0  0
    4.9466    2.0132   -1.9794 H   0  0  0  0  0  0  0  0  0  0  0  0
    7.9844    2.2974   -0.4473 H   0  0  0  0  0  0  0  0  0  0  0  0
    8.5483    0.2666    0.1065 H   0  0  0  0  0  0  0  0  0  0  0  0
    5.8788   -0.9588    1.9096 H   0  0  0  0  0  0  0  0  0  0  0  0
    1.4737   -2.1813    2.2934 H   0  0  0  0  0  0  0  0  0  0  0  0
   -0.6948   -2.5433    2.6231 H   0  0  0  0  0  0  0  0  0  0  0  0
   -2.0721   -0.5899   -1.5400 H   0  0  0  0  0  0  0  0  0  0  0  0
   -3.6049    1.1944   -1.6574 H   0  0  0  0  0  0  0  0  0  0  0  0
   -3.2336    3.1934   -0.2291 H   0  0  0  0  0  0  0  0  0  0  0  0
   -4.9601    2.9390   -0.5899 H   0  0  0  0  0  0  0  0  0  0  0  0
   -4.5065    3.4628    1.5882 H   0  0  0  0  0  0  0  0  0  0  0  0
   -5.1581    0.1446    0.7923 H   0  0  0  0  0  0  0  0  0  0  0  0
   -6.6824   -0.2935   -0.8559 H   0  0  0  0  0  0  0  0  0  0  0  0
   -4.4058   -1.3952   -1.7423 H   0  0  0  0  0  0  0  0  0  0  0  0
   -5.0558   -3.1011   -0.3268 H   0  0  0  0  0  0  0  0  0  0  0  0
   -3.2685   -1.6574    1.0819 H   0  0  0  0  0  0  0  0  0  0  0  0
   -2.0056   -3.2154    0.1324 H   0  0  0  0  0  0  0  0  0  0  0  0
    0.7306    1.2434   -2.1262 H   0  0  0  0  0  0  0  0  0  0  0  0
  1  2  2  0
  2  3  1  0
  3  4  2  0
  4  5  1  0
  5  6  1  0
  5  7  2  0
  7  8  1  0
  7  9  1  0
  9 10  2  0
 10 11  1  0
 11 12  1  0
 12 13  2  0
 13 14  1  0
 14 15  1  0
 14 16  2  0
 16 17  1  0
 17 18  1  0
 18 19  1  0
 19 20  1  0
 20 21  1  0
 19 22  1  0
 22 23  1  0
 22 24  1  0
 24 25  1  0
 24 26  1  0
 26 27  1  0
 16 28  1  0
 28 29  1  0
 28 30  2  0
 30  2  1  0
 10  3  1  0
 30 12  1  0
 26 17  1  0
  4 31  1  0
  6 32  1  0
  8 33  1  0
  9 34  1  0
 13 35  1  0
 15 36  1  0
 17 37  1  6
 19 38  1  6
 20 39  1  0
 20 40  1  0
 21 41  1  0
 22 42  1  1
 23 43  1  0
 24 44  1  6
 25 45  1  0
 26 46  1  1
 27 47  1  0
 29 48  1  0
M  END
$$$$
