
     RDKit          3D

 39 41  0  0  0  0  0  0  0  0999 V2000
    3.5680    0.0429    3.6152 C   0  0  0  0  0  0  0  0  0  0  0  0
    3.7220   -0.5143    2.3159 O   0  0  0  0  0  0  0  0  0  0  0  0
    2.6635   -0.3957    1.4599 C   0  0  0  0  0  0  0  0  0  0  0  0
    2.8790   -0.9318    0.1885 C   0  0  0  0  0  0  0  0  0  0  0  0
    1.8801   -0.8809   -0.7863 C   0  0  0  0  0  0  0  0  0  0  0  0
    0.6418   -0.3073   -0.4924 C   0  0  0  0  0  0  0  0  0  0  0  0
   -0.3613   -0.2303   -1.5345 N   0  0  0  0  0  0  0  0  0  0  0  0
   -1.6856   -0.5044   -1.0890 C   0  0  0  0  0  0  0  0  0  0  0  0
   -2.5887    0.3214   -1.1031 O   0  0  0  0  0  0  0  0  0  0  0  0
   -1.9492   -1.8816   -0.5797 C   0  0  0  0  0  0  0  0  0  0  0  0
   -3.0497   -2.0756    0.2584 C   0  0  0  0  0  0  0  0  0  0  0  0
   -3.2877   -3.3501    0.7366 C   0  0  0  0  0  0  0  0  0  0  0  0
   -2.5159   -4.4151    0.4363 N   0  0  0  0  0  0  0  0  0  0  0  0
   -1.4674   -4.2056   -0.3873 C   0  0  0  0  0  0  0  0  0  0  0  0
   -1.1454   -2.9708   -0.9202 C   0  0  0  0  0  0  0  0  0  0  0  0
   -0.1264    1.0522   -2.6424 S   0  0  0  0  0  6  0  0  0  0  0  0
   -1.1488    0.9506   -3.6669 O   0  0  0  0  0  0  0  0  0  0  0  0
    1.2692    1.0954   -3.0357 O   0  0  0  0  0  0  0  0  0  0  0  0
   -0.4714    2.6036   -1.8239 C   0  0  0  0  0  0  0  0  0  0  0  0
   -1.6441    3.3240   -1.6837 C   0  0  0  0  0  0  0  0  0  0  0  0
   -1.4637    4.5237   -0.9378 C   0  0  0  0  0  0  0  0  0  0  0  0
   -0.1571    4.6843   -0.5347 C   0  0  0  0  0  0  0  0  0  0  0  0
    0.8382    3.3936   -1.0537 S   0  0  0  0  0  0  0  0  0  0  0  0
    0.4334    0.2559    0.7732 C   0  0  0  0  0  0  0  0  0  0  0  0
    1.4374    0.2032    1.7477 C   0  0  0  0  0  0  0  0  0  0  0  0
    4.4984   -0.1284    4.1650 H   0  0  0  0  0  0  0  0  0  0  0  0
    2.7605   -0.4533    4.1637 H   0  0  0  0  0  0  0  0  0  0  0  0
    3.4053    1.1246    3.5641 H   0  0  0  0  0  0  0  0  0  0  0  0
    3.8397   -1.3833   -0.0495 H   0  0  0  0  0  0  0  0  0  0  0  0
    2.0833   -1.2852   -1.7753 H   0  0  0  0  0  0  0  0  0  0  0  0
   -3.7079   -1.2574    0.5328 H   0  0  0  0  0  0  0  0  0  0  0  0
   -4.1292   -3.5570    1.3923 H   0  0  0  0  0  0  0  0  0  0  0  0
   -0.8768   -5.0884   -0.6181 H   0  0  0  0  0  0  0  0  0  0  0  0
   -0.3007   -2.8818   -1.5932 H   0  0  0  0  0  0  0  0  0  0  0  0
   -2.5869    2.9892   -2.1027 H   0  0  0  0  0  0  0  0  0  0  0  0
   -2.2510    5.2333   -0.7130 H   0  0  0  0  0  0  0  0  0  0  0  0
    0.2649    5.5001    0.0367 H   0  0  0  0  0  0  0  0  0  0  0  0
   -0.5020    0.7531    1.0206 H   0  0  0  0  0  0  0  0  0  0  0  0
    1.2322    0.6471    2.7165 H   0  0  0  0  0  0  0  0  0  0  0  0
  1  2  1  0
  2  3  1  0
  3  4  2  0
  4  5  1  0
  5  6  2  0
  6  7  1  0
  7  8  1  0
  8  9  2  0
  8 10  1  0
 10 11  2  0
 11 12  1  0
 12 13  2  0
 13 14  1  0
 14 15  2  0
  7 16  1  0
 16 17  2  0
 16 18  2  0
 16 19  1  0
 19 20  2  0
 20 21  1  0
 21 22  2  0
 22 23  1  0
  6 24  1  0
 24 25  2  0
 25  3  1  0
 15 10  1  0
 23 19  1  0
  1 26  1  0
  1 27  1  0
  1 28  1  0
  4 29  1  0
  5 30  1  0
 11 31  1  0
 12 32  1  0
 14 33  1  0
 15 34  1  0
 20 35  1  0
 21 36  1  0
 22 37  1  0
 24 38  1  0
 25 39  1  0
M  END
$$$$
