
     RDKit          3D

 43 45  0  0  0  0  0  0  0  0999 V2000
   -0.5191   -3.1578   -1.7084 O   0  0  0  0  0  0  0  0  0  0  0  0
   -0.9569   -2.0125   -1.7280 C   0  0  0  0  0  0  0  0  0  0  0  0
   -2.2887   -1.7068   -1.5574 N   0  0  0  0  0  0  0  0  0  0  0  0
   -3.2441   -2.7336   -1.1906 C   0  0  0  0  0  0  0  0  0  0  0  0
   -3.3711   -2.8491    0.3106 C   0  0  0  0  0  0  0  0  0  0  0  0
   -2.6063   -3.7784    1.0125 C   0  0  0  0  0  0  0  0  0  0  0  0
   -2.7231   -3.8355    2.3980 C   0  0  0  0  0  0  0  0  0  0  0  0
   -3.5901   -2.9634    3.0447 C   0  0  0  0  0  0  0  0  0  0  0  0
   -4.3017   -2.0583    2.2759 C   0  0  0  0  0  0  0  0  0  0  0  0
   -4.2072   -1.9744    0.9304 N   0  0  0  0  0  0  0  0  0  0  0  0
   -0.0283   -0.8602   -1.9016 C   0  0  0  0  0  0  0  0  0  0  0  0
    1.3213   -1.0379   -1.5689 C   0  0  0  0  0  0  0  0  0  0  0  0
    2.2292    0.0147   -1.7126 C   0  0  0  0  0  0  0  0  0  0  0  0
    1.7918    1.2477   -2.1955 C   0  0  0  0  0  0  0  0  0  0  0  0
    2.7194    2.3195   -2.2976 N   0  0  0  0  0  0  0  0  0  0  0  0
    2.5347    3.6699   -1.2973 S   0  0  0  0  0  6  0  0  0  0  0  0
    1.2450    4.2787   -1.5432 O   0  0  0  0  0  0  0  0  0  0  0  0
    3.7601    4.4314   -1.4222 O   0  0  0  0  0  0  0  0  0  0  0  0
    2.5114    2.9575    0.3326 C   0  0  0  0  0  0  0  0  0  0  0  0
    1.2893    2.6959    0.9597 C   0  0  0  0  0  0  0  0  0  0  0  0
    1.2804    2.1397    2.2383 C   0  0  0  0  0  0  0  0  0  0  0  0
    2.4847    1.8618    2.8878 C   0  0  0  0  0  0  0  0  0  0  0  0
    3.7023    2.1439    2.2656 C   0  0  0  0  0  0  0  0  0  0  0  0
    3.7205    2.6979    0.9858 C   0  0  0  0  0  0  0  0  0  0  0  0
    0.4534    1.4269   -2.5450 C   0  0  0  0  0  0  0  0  0  0  0  0
   -0.4570    0.3748   -2.4039 C   0  0  0  0  0  0  0  0  0  0  0  0
   -2.5445   -0.7682   -1.2828 H   0  0  0  0  0  0  0  0  0  0  0  0
   -2.9665   -3.6954   -1.6358 H   0  0  0  0  0  0  0  0  0  0  0  0
   -4.2107   -2.4388   -1.6133 H   0  0  0  0  0  0  0  0  0  0  0  0
   -1.9215   -4.4400    0.4889 H   0  0  0  0  0  0  0  0  0  0  0  0
   -2.1386   -4.5533    2.9663 H   0  0  0  0  0  0  0  0  0  0  0  0
   -3.7046   -2.9849    4.1225 H   0  0  0  0  0  0  0  0  0  0  0  0
   -4.9881   -1.3533    2.7363 H   0  0  0  0  0  0  0  0  0  0  0  0
    1.6672   -1.9979   -1.1898 H   0  0  0  0  0  0  0  0  0  0  0  0
    3.2675   -0.1409   -1.4338 H   0  0  0  0  0  0  0  0  0  0  0  0
    3.7006    2.0902   -2.4464 H   0  0  0  0  0  0  0  0  0  0  0  0
    0.3481    2.9174    0.4614 H   0  0  0  0  0  0  0  0  0  0  0  0
    0.3351    1.9265    2.7319 H   0  0  0  0  0  0  0  0  0  0  0  0
    2.4736    1.4323    3.8870 H   0  0  0  0  0  0  0  0  0  0  0  0
    4.6362    1.9378    2.7833 H   0  0  0  0  0  0  0  0  0  0  0  0
    4.6719    2.9278    0.5117 H   0  0  0  0  0  0  0  0  0  0  0  0
    0.1106    2.3800   -2.9430 H   0  0  0  0  0  0  0  0  0  0  0  0
   -1.4862    0.5323   -2.7140 H   0  0  0  0  0  0  0  0  0  0  0  0
  1  2  2  0
  2  3  1  0
  3  4  1  0
  4  5  1  0
  5  6  2  0
  6  7  1  0
  7  8  2  0
  8  9  1  0
  9 10  2  0
  2 11  1  0
 11 12  2  0
 12 13  1  0
 13 14  2  0
 14 15  1  0
 15 16  1  0
 16 17  2  0
 16 18  2  0
 16 19  1  0
 19 20  2  0
 20 21  1  0
 21 22  2  0
 22 23  1  0
 23 24  2  0
 14 25  1  0
 25 26  2  0
 10  5  1  0
 26 11  1  0
 24 19  1  0
  3 27  1  0
  4 28  1  0
  4 29  1  0
  6 30  1  0
  7 31  1  0
  8 32  1  0
  9 33  1  0
 12 34  1  0
 13 35  1  0
 15 36  1  0
 20 37  1  0
 21 38  1  0
 22 39  1  0
 23 40  1  0
 24 41  1  0
 25 42  1  0
 26 43  1  0
M  END
$$$$
