
     RDKit          3D

 60 65  0  0  0  0  0  0  0  0999 V2000
   -0.2616    1.3423   -2.9375 C   0  0  0  0  0  0  0  0  0  0  0  0
   -0.5360    1.5094   -1.4532 C   0  0  0  0  0  0  0  0  0  0  0  0
   -0.7965    0.2410   -0.7945 N   0  0  0  0  0  0  0  0  0  0  0  0
   -2.0464   -0.3176   -0.5439 C   0  0  0  0  0  0  0  0  0  0  0  0
   -3.2990    0.3044   -0.9296 C   0  0  0  0  0  0  0  0  0  0  0  0
   -3.5778    0.4699   -2.1168 O   0  0  0  0  0  0  0  0  0  0  0  0
   -4.1377    0.7528    0.1112 N   0  0  0  0  0  0  0  0  0  0  0  0
   -3.8091    0.6257    1.5152 C   0  0  0  0  0  0  0  0  0  0  0  0
   -4.8549    0.5776    2.6064 C   0  0  0  0  0  0  0  0  0  0  0  0
   -4.0798   -0.6545    2.2691 C   0  0  0  0  0  0  0  0  0  0  0  0
   -5.3371    1.4889   -0.2286 C   0  0  0  0  0  0  0  0  0  0  0  0
   -5.6635    2.8291    0.3874 C   0  0  0  0  0  0  0  0  0  0  0  0
   -5.2846    2.7503   -1.0571 C   0  0  0  0  0  0  0  0  0  0  0  0
   -1.8399   -1.5597    0.0574 C   0  0  0  0  0  0  0  0  0  0  0  0
   -0.4459   -1.6754    0.2163 C   0  0  0  0  0  0  0  0  0  0  0  0
    0.3123   -2.6578    0.7623 C   0  0  0  0  0  0  0  0  0  0  0  0
    1.6849   -2.5265    0.8009 C   0  0  0  0  0  0  0  0  0  0  0  0
    2.2287   -3.6471    1.4040 N   0  0  0  0  0  0  0  0  0  0  0  0
    1.1929   -4.4081    1.7020 C   0  0  0  0  0  0  0  0  0  0  0  0
   -0.0003   -3.8344    1.3248 N   0  0  0  0  0  0  0  0  0  0  0  0
   -1.2927   -4.4362    1.5245 C   0  0  0  0  0  0  0  0  0  0  0  0
    2.2979   -1.3526    0.2618 C   0  0  0  0  0  0  0  0  0  0  0  0
    3.6996   -1.2549    0.3231 N   0  0  0  0  0  0  0  0  0  0  0  0
    4.5317   -0.2815   -0.0962 C   0  0  0  0  0  0  0  0  0  0  0  0
    5.9366   -0.4082    0.0535 C   0  0  0  0  0  0  0  0  0  0  0  0
    6.4835    0.7413   -0.4766 C   0  0  0  0  0  0  0  0  0  0  0  0
    7.8913    1.1785   -0.6134 C   0  0  0  0  0  0  0  0  0  0  0  0
    5.4089    1.4777   -0.8980 N   0  0  0  0  0  0  0  0  0  0  0  0
    5.4311    2.7702   -1.5406 C   0  0  0  0  0  0  0  0  0  0  0  0
    4.2296    0.8803   -0.6779 N   0  0  0  0  0  0  0  0  0  0  0  0
    1.5145   -0.3700   -0.2928 N   0  0  0  0  0  0  0  0  0  0  0  0
    0.1861   -0.5717   -0.2931 C   0  0  0  0  0  0  0  0  0  0  0  0
    0.6174    0.7119   -3.1089 H   0  0  0  0  0  0  0  0  0  0  0  0
   -0.0771    2.3163   -3.4010 H   0  0  0  0  0  0  0  0  0  0  0  0
   -1.1099    0.8760   -3.4486 H   0  0  0  0  0  0  0  0  0  0  0  0
    0.3208    1.9768   -0.9551 H   0  0  0  0  0  0  0  0  0  0  0  0
   -1.3973    2.1655   -1.2905 H   0  0  0  0  0  0  0  0  0  0  0  0
   -2.8996    1.1679    1.7688 H   0  0  0  0  0  0  0  0  0  0  0  0
   -5.9052    0.5903    2.3420 H   0  0  0  0  0  0  0  0  0  0  0  0
   -4.6300    1.0825    3.5391 H   0  0  0  0  0  0  0  0  0  0  0  0
   -4.6109   -1.4517    1.7624 H   0  0  0  0  0  0  0  0  0  0  0  0
   -3.3272   -0.9922    2.9721 H   0  0  0  0  0  0  0  0  0  0  0  0
   -6.1722    0.8215   -0.4283 H   0  0  0  0  0  0  0  0  0  0  0  0
   -6.6992    3.0327    0.6307 H   0  0  0  0  0  0  0  0  0  0  0  0
   -4.9507    3.2829    1.0654 H   0  0  0  0  0  0  0  0  0  0  0  0
   -4.3155    3.1348   -1.3524 H   0  0  0  0  0  0  0  0  0  0  0  0
   -6.0579    2.8881   -1.8038 H   0  0  0  0  0  0  0  0  0  0  0  0
   -2.6211   -2.2538    0.3290 H   0  0  0  0  0  0  0  0  0  0  0  0
    1.2474   -5.3751    2.1863 H   0  0  0  0  0  0  0  0  0  0  0  0
   -1.1753   -5.4038    2.0199 H   0  0  0  0  0  0  0  0  0  0  0  0
   -1.8923   -3.7768    2.1570 H   0  0  0  0  0  0  0  0  0  0  0  0
   -1.7652   -4.5832    0.5504 H   0  0  0  0  0  0  0  0  0  0  0  0
    4.0781   -2.0897    0.7577 H   0  0  0  0  0  0  0  0  0  0  0  0
    6.4792   -1.2356    0.4873 H   0  0  0  0  0  0  0  0  0  0  0  0
    8.1340    1.3873   -1.6601 H   0  0  0  0  0  0  0  0  0  0  0  0
    8.5775    0.4027   -0.2585 H   0  0  0  0  0  0  0  0  0  0  0  0
    8.0744    2.0833   -0.0253 H   0  0  0  0  0  0  0  0  0  0  0  0
    6.0732    3.4394   -0.9626 H   0  0  0  0  0  0  0  0  0  0  0  0
    5.8202    2.6407   -2.5536 H   0  0  0  0  0  0  0  0  0  0  0  0
    4.4172    3.1781   -1.5777 H   0  0  0  0  0  0  0  0  0  0  0  0
  1  2  1  0
  2  3  1  0
  3  4  1  0
  4  5  1  0
  5  6  2  0
  5  7  1  0
  7  8  1  0
  8  9  1  0
  9 10  1  0
  7 11  1  0
 11 12  1  0
 12 13  1  0
  4 14  2  0
 14 15  1  0
 15 16  2  0
 16 17  1  0
 17 18  1  0
 18 19  2  0
 19 20  1  0
 20 21  1  0
 17 22  2  0
 22 23  1  0
 23 24  1  0
 24 25  1  0
 25 26  2  0
 26 27  1  0
 26 28  1  0
 28 29  1  0
 28 30  1  0
 22 31  1  0
 31 32  2  0
 32  3  1  0
 10  8  1  0
 13 11  1  0
 32 15  1  0
 20 16  1  0
 30 24  2  0
  1 33  1  0
  1 34  1  0
  1 35  1  0
  2 36  1  0
  2 37  1  0
  8 38  1  0
  9 39  1  0
  9 40  1  0
 10 41  1  0
 10 42  1  0
 11 43  1  0
 12 44  1  0
 12 45  1  0
 13 46  1  0
 13 47  1  0
 14 48  1  0
 19 49  1  0
 21 50  1  0
 21 51  1  0
 21 52  1  0
 23 53  1  0
 25 54  1  0
 27 55  1  0
 27 56  1  0
 27 57  1  0
 29 58  1  0
 29 59  1  0
 29 60  1  0
M  END
$$$$
