
     RDKit          3D

 61 63  0  0  0  0  0  0  0  0999 V2000
    1.8598   -0.0909    2.7824 O   0  0  0  0  0  0  0  0  0  0  0  0
    2.4006    0.0023    1.6911 C   0  0  0  0  0  0  0  0  0  0  0  0
    3.7447    0.5940    1.5306 C   0  0  0  0  0  0  0  0  0  0  0  0
    4.3461    0.7976    0.3475 C   0  0  0  0  0  0  0  0  0  0  0  0
    5.6824    1.3937    0.1998 C   0  0  0  0  0  0  0  0  0  0  0  0
    6.1291    2.4408    1.0245 C   0  0  0  0  0  0  0  0  0  0  0  0
    7.3933    3.0071    0.8381 C   0  0  0  0  0  0  0  0  0  0  0  0
    8.2037    2.5329   -0.1805 C   0  0  0  0  0  0  0  0  0  0  0  0
    9.4370    3.0878   -0.3644 O   0  0  0  0  0  0  0  0  0  0  0  0
    7.7694    1.5080   -1.0155 C   0  0  0  0  0  0  0  0  0  0  0  0
    8.6176    1.0942   -2.0061 O   0  0  0  0  0  0  0  0  0  0  0  0
    6.5123    0.9377   -0.8370 C   0  0  0  0  0  0  0  0  0  0  0  0
    1.8924   -0.4220    0.5095 O   0  0  0  0  0  0  0  0  0  0  0  0
    0.5361   -0.9259    0.5411 C   0  0  2  0  0  0  0  0  0  0  0  0
    0.5704   -2.3889    1.0119 C   0  0  0  0  0  0  0  0  0  0  0  0
   -0.7157   -3.1420    0.6639 C   0  0  2  0  0  0  0  0  0  0  0  0
   -1.7975   -2.4853    1.3419 O   0  0  0  0  0  0  0  0  0  0  0  0
   -0.6022   -4.5876    1.1665 C   0  0  0  0  0  0  0  0  0  0  0  0
   -1.2639   -5.0668    2.0755 O   0  0  0  0  0  0  0  0  0  0  0  0
    0.3429   -5.3166    0.5446 O   0  0  0  0  0  0  0  0  0  0  0  0
   -1.0365   -3.1091   -0.8386 C   0  0  0  0  0  0  0  0  0  0  0  0
   -0.1565   -2.1151   -1.6017 C   0  0  1  0  0  0  0  0  0  0  0  0
   -0.6968   -1.9380   -2.9145 O   0  0  0  0  0  0  0  0  0  0  0  0
   -0.0477   -0.7610   -0.8819 C   0  0  1  0  0  0  0  0  0  0  0  0
   -1.3882   -0.2124   -0.8227 O   0  0  0  0  0  0  0  0  0  0  0  0
   -1.4663    1.1161   -0.5715 C   0  0  0  0  0  0  0  0  0  0  0  0
   -0.5198    1.8762   -0.4371 O   0  0  0  0  0  0  0  0  0  0  0  0
   -2.8661    1.5780   -0.4866 C   0  0  0  0  0  0  0  0  0  0  0  0
   -3.9316    0.7624   -0.5111 C   0  0  0  0  0  0  0  0  0  0  0  0
   -5.3228    1.2267   -0.4076 C   0  0  0  0  0  0  0  0  0  0  0  0
   -5.7611    2.4276   -0.9935 C   0  0  0  0  0  0  0  0  0  0  0  0
   -7.1000    2.8275   -0.9005 C   0  0  0  0  0  0  0  0  0  0  0  0
   -8.0036    2.0157   -0.2286 C   0  0  0  0  0  0  0  0  0  0  0  0
   -9.3235    2.3494   -0.1031 O   0  0  0  0  0  0  0  0  0  0  0  0
   -7.5811    0.8175    0.3393 C   0  0  0  0  0  0  0  0  0  0  0  0
   -8.4775    0.0204    0.9927 O   0  0  0  0  0  0  0  0  0  0  0  0
   -6.2548    0.4140    0.2518 C   0  0  0  0  0  0  0  0  0  0  0  0
    4.2152    0.8614    2.4705 H   0  0  0  0  0  0  0  0  0  0  0  0
    3.8559    0.5131   -0.5808 H   0  0  0  0  0  0  0  0  0  0  0  0
    5.4953    2.8399    1.8132 H   0  0  0  0  0  0  0  0  0  0  0  0
    7.7367    3.8151    1.4770 H   0  0  0  0  0  0  0  0  0  0  0  0
    9.8116    2.6056   -1.1283 H   0  0  0  0  0  0  0  0  0  0  0  0
    8.1790    0.3845   -2.5060 H   0  0  0  0  0  0  0  0  0  0  0  0
    6.1738    0.1392   -1.4906 H   0  0  0  0  0  0  0  0  0  0  0  0
   -0.0542   -0.3291    1.2483 H   0  0  0  0  0  0  0  0  0  0  0  0
    0.7280   -2.4037    2.0985 H   0  0  0  0  0  0  0  0  0  0  0  0
    1.4487   -2.8961    0.5897 H   0  0  0  0  0  0  0  0  0  0  0  0
   -1.9108   -2.9328    2.2056 H   0  0  0  0  0  0  0  0  0  0  0  0
    0.2971   -6.1966    0.9770 H   0  0  0  0  0  0  0  0  0  0  0  0
   -2.0952   -2.8628   -0.9992 H   0  0  0  0  0  0  0  0  0  0  0  0
   -0.9102   -4.0935   -1.3071 H   0  0  0  0  0  0  0  0  0  0  0  0
    0.8459   -2.5391   -1.7333 H   0  0  0  0  0  0  0  0  0  0  0  0
   -1.5174   -1.4196   -2.8131 H   0  0  0  0  0  0  0  0  0  0  0  0
    0.5666   -0.0933   -1.5007 H   0  0  0  0  0  0  0  0  0  0  0  0
   -2.9634    2.6518   -0.3712 H   0  0  0  0  0  0  0  0  0  0  0  0
   -3.8053   -0.3168   -0.5762 H   0  0  0  0  0  0  0  0  0  0  0  0
   -5.0672    3.0626   -1.5400 H   0  0  0  0  0  0  0  0  0  0  0  0
   -7.4094    3.7609   -1.3596 H   0  0  0  0  0  0  0  0  0  0  0  0
   -9.4616    3.2081   -0.5381 H   0  0  0  0  0  0  0  0  0  0  0  0
   -9.3262    0.5025    0.9295 H   0  0  0  0  0  0  0  0  0  0  0  0
   -5.9577   -0.5272    0.7072 H   0  0  0  0  0  0  0  0  0  0  0  0
  1  2  2  0
  2  3  1  0
  3  4  2  0
  4  5  1  0
  5  6  2  0
  6  7  1  0
  7  8  2  0
  8  9  1  0
  8 10  1  0
 10 11  1  0
 10 12  2  0
  2 13  1  0
 13 14  1  0
 14 15  1  0
 15 16  1  0
 16 17  1  1
 16 18  1  0
 18 19  2  0
 18 20  1  0
 16 21  1  0
 21 22  1  0
 22 23  1  0
 22 24  1  0
 24 25  1  0
 25 26  1  0
 26 27  2  0
 26 28  1  0
 28 29  2  0
 29 30  1  0
 30 31  2  0
 31 32  1  0
 32 33  2  0
 33 34  1  0
 33 35  1  0
 35 36  1  0
 35 37  2  0
 12  5  1  0
 24 14  1  0
 37 30  1  0
  3 38  1  0
  4 39  1  0
  6 40  1  0
  7 41  1  0
  9 42  1  0
 11 43  1  0
 12 44  1  0
 14 45  1  1
 15 46  1  0
 15 47  1  0
 17 48  1  0
 20 49  1  0
 21 50  1  0
 21 51  1  0
 22 52  1  6
 23 53  1  0
 24 54  1  6
 28 55  1  0
 29 56  1  0
 31 57  1  0
 32 58  1  0
 34 59  1  0
 36 60  1  0
 37 61  1  0
M  END
$$$$
