
     RDKit          3D

 41 43  0  0  0  0  0  0  0  0999 V2000
    5.6697    0.3496   -1.2531 C   0  0  0  0  0  0  0  0  0  0  0  0
    5.3826   -0.3508   -0.0478 O   0  0  0  0  0  0  0  0  0  0  0  0
    4.0727   -0.3857    0.3478 C   0  0  0  0  0  0  0  0  0  0  0  0
    3.8430   -1.0944    1.5285 C   0  0  0  0  0  0  0  0  0  0  0  0
    2.5542   -1.2138    2.0536 C   0  0  0  0  0  0  0  0  0  0  0  0
    1.4787   -0.6208    1.3927 C   0  0  0  0  0  0  0  0  0  0  0  0
    0.1707   -0.6656    1.8160 O   0  0  0  0  0  0  0  0  0  0  0  0
   -0.1175   -1.4746    2.9489 C   0  0  0  0  0  0  0  0  0  0  0  0
    1.7024    0.0987    0.1986 C   0  0  0  0  0  0  0  0  0  0  0  0
    0.5648    0.6720   -0.4122 N   0  0  0  0  0  0  0  0  0  0  0  0
    0.4761    1.3793   -1.5945 C   0  0  0  0  0  0  0  0  0  0  0  0
    1.4166    1.6624   -2.3349 O   0  0  0  0  0  0  0  0  0  0  0  0
   -0.9274    1.8905   -1.9041 C   0  0  0  0  0  0  0  0  0  0  0  0
   -1.9870    0.8387   -1.7840 C   0  0  0  0  0  0  0  0  0  0  0  0
   -2.2844   -0.1327   -2.7206 C   0  0  0  0  0  0  0  0  0  0  0  0
   -3.3001   -0.9079   -2.2312 N   0  0  0  0  0  0  0  0  0  0  0  0
   -3.6795   -0.4642   -0.9863 C   0  0  0  0  0  0  0  0  0  0  0  0
   -4.6619   -0.9528   -0.1167 C   0  0  0  0  0  0  0  0  0  0  0  0
   -4.8326   -0.2943    1.1042 C   0  0  0  0  0  0  0  0  0  0  0  0
   -4.0519    0.8090    1.4388 C   0  0  0  0  0  0  0  0  0  0  0  0
   -3.0746    1.2852    0.5571 C   0  0  0  0  0  0  0  0  0  0  0  0
   -2.8809    0.6382   -0.6814 C   0  0  0  0  0  0  0  0  0  0  0  0
    2.9986    0.2118   -0.3151 C   0  0  0  0  0  0  0  0  0  0  0  0
    6.7472    0.2789   -1.4309 H   0  0  0  0  0  0  0  0  0  0  0  0
    5.1612   -0.1090   -2.1076 H   0  0  0  0  0  0  0  0  0  0  0  0
    5.4170    1.4112   -1.1625 H   0  0  0  0  0  0  0  0  0  0  0  0
    4.6801   -1.5579    2.0458 H   0  0  0  0  0  0  0  0  0  0  0  0
    2.4303   -1.7703    2.9758 H   0  0  0  0  0  0  0  0  0  0  0  0
    0.1621   -2.5185    2.7725 H   0  0  0  0  0  0  0  0  0  0  0  0
   -1.1987   -1.4432    3.1146 H   0  0  0  0  0  0  0  0  0  0  0  0
    0.3683   -1.0799    3.8471 H   0  0  0  0  0  0  0  0  0  0  0  0
   -0.2997    0.4680    0.0837 H   0  0  0  0  0  0  0  0  0  0  0  0
   -1.1340    2.7352   -1.2374 H   0  0  0  0  0  0  0  0  0  0  0  0
   -0.9286    2.2829   -2.9286 H   0  0  0  0  0  0  0  0  0  0  0  0
   -1.8523   -0.3407   -3.6912 H   0  0  0  0  0  0  0  0  0  0  0  0
   -3.7129   -1.6971   -2.7088 H   0  0  0  0  0  0  0  0  0  0  0  0
   -5.2730   -1.8114   -0.3751 H   0  0  0  0  0  0  0  0  0  0  0  0
   -5.5887   -0.6485    1.8013 H   0  0  0  0  0  0  0  0  0  0  0  0
   -4.2026    1.3083    2.3928 H   0  0  0  0  0  0  0  0  0  0  0  0
   -2.4749    2.1476    0.8334 H   0  0  0  0  0  0  0  0  0  0  0  0
    3.1667    0.7656   -1.2290 H   0  0  0  0  0  0  0  0  0  0  0  0
  1  2  1  0
  2  3  1  0
  3  4  2  0
  4  5  1  0
  5  6  2  0
  6  7  1  0
  7  8  1  0
  6  9  1  0
  9 10  1  0
 10 11  1  0
 11 12  2  0
 11 13  1  0
 13 14  1  0
 14 15  2  0
 15 16  1  0
 16 17  1  0
 17 18  2  0
 18 19  1  0
 19 20  2  0
 20 21  1  0
 21 22  2  0
  9 23  2  0
 23  3  1  0
 22 14  1  0
 22 17  1  0
  1 24  1  0
  1 25  1  0
  1 26  1  0
  4 27  1  0
  5 28  1  0
  8 29  1  0
  8 30  1  0
  8 31  1  0
 10 32  1  0
 13 33  1  0
 13 34  1  0
 15 35  1  0
 16 36  1  0
 18 37  1  0
 19 38  1  0
 20 39  1  0
 21 40  1  0
 23 41  1  0
M  END
$$$$
