
     RDKit          3D

 31 32  0  0  0  0  0  0  0  0999 V2000
   -4.4926   -2.4227   -1.1115 O   0  0  0  0  0  0  0  0  0  0  0  0
   -4.2430   -1.2364   -1.0362 C   0  0  0  0  0  0  0  0  0  0  0  0
   -4.8819   -0.3148   -1.7721 O   0  0  0  0  0  0  0  0  0  0  0  0
   -3.1514   -0.6324   -0.2537 C   0  0  0  0  0  0  0  0  0  0  0  0
   -1.9410   -1.3361   -0.1939 C   0  0  0  0  0  0  0  0  0  0  0  0
   -0.8431   -0.7871    0.4747 C   0  0  0  0  0  0  0  0  0  0  0  0
    0.3016   -1.5524    0.5065 O   0  0  0  0  0  0  0  0  0  0  0  0
    1.4972   -0.8958    0.3181 C   0  0  0  0  0  0  0  0  0  0  0  0
    1.7467   -0.2084   -0.8742 C   0  0  0  0  0  0  0  0  0  0  0  0
    2.9793    0.4184   -1.0729 C   0  0  0  0  0  0  0  0  0  0  0  0
    3.9834    0.3468   -0.0938 C   0  0  0  0  0  0  0  0  0  0  0  0
    5.3090    1.0418   -0.2960 C   0  0  0  0  0  0  0  0  0  0  0  0
    5.3159    2.2952    0.2331 F   0  0  0  0  0  0  0  0  0  0  0  0
    5.6429    1.1846   -1.6080 F   0  0  0  0  0  0  0  0  0  0  0  0
    6.3483    0.3816    0.2844 F   0  0  0  0  0  0  0  0  0  0  0  0
    3.7258   -0.3572    1.0947 C   0  0  0  0  0  0  0  0  0  0  0  0
    2.4934   -0.9844    1.2946 C   0  0  0  0  0  0  0  0  0  0  0  0
    2.2307   -1.8380    2.7702 Cl  0  0  0  0  0  0  0  0  0  0  0  0
   -0.9530    0.4469    1.1258 C   0  0  0  0  0  0  0  0  0  0  0  0
   -2.1605    1.1468    1.0899 C   0  0  0  0  0  0  0  0  0  0  0  0
   -3.2525    0.5968    0.4025 C   0  0  0  0  0  0  0  0  0  0  0  0
   -4.5148    1.3078    0.4630 N   0  0  0  0  0  4  0  0  0  0  0  0
   -5.4906    0.6905    0.9101 O   0  0  0  0  0  0  0  0  0  0  0  0
   -4.5061    2.4973    0.1189 O   0  0  0  0  0  1  0  0  0  0  0  0
   -5.5770   -0.8148   -2.2532 H   0  0  0  0  0  0  0  0  0  0  0  0
   -1.8456   -2.3065   -0.6790 H   0  0  0  0  0  0  0  0  0  0  0  0
    0.9897   -0.1639   -1.6534 H   0  0  0  0  0  0  0  0  0  0  0  0
    3.1585    0.9577   -2.0032 H   0  0  0  0  0  0  0  0  0  0  0  0
    4.4943   -0.4193    1.8646 H   0  0  0  0  0  0  0  0  0  0  0  0
   -0.1151    0.8599    1.6826 H   0  0  0  0  0  0  0  0  0  0  0  0
   -2.2487    2.0984    1.6111 H   0  0  0  0  0  0  0  0  0  0  0  0
  1  2  2  0
  2  3  1  0
  2  4  1  0
  4  5  2  0
  5  6  1  0
  6  7  1  0
  7  8  1  0
  8  9  2  0
  9 10  1  0
 10 11  2  0
 11 12  1  0
 12 13  1  0
 12 14  1  0
 12 15  1  0
 11 16  1  0
 16 17  2  0
 17 18  1  0
  6 19  2  0
 19 20  1  0
 20 21  2  0
 21 22  1  0
 22 23  2  0
 22 24  1  0
 21  4  1  0
 17  8  1  0
  3 25  1  0
  5 26  1  0
  9 27  1  0
 10 28  1  0
 16 29  1  0
 19 30  1  0
 20 31  1  0
M  CHG  2  22   1  24  -1
M  END
$$$$
