
     RDKit          3D

 12 12  0  0  0  0  0  0  0  0999 V2000
   -1.7382   -0.1776    0.0144 C   0  0  0  0  0  0  0  0  0  0  0  0
   -0.2734    0.0256   -0.0125 C   0  0  0  0  0  0  0  0  0  0  0  0
    0.4271    1.2123   -0.3268 C   0  0  0  0  0  0  0  0  0  0  0  0
    1.7515    1.0616   -0.2587 N   0  0  0  0  0  0  0  0  0  0  0  0
    1.9058   -0.2225    0.0997 N   0  0  0  0  0  0  0  0  0  0  0  0
    0.7243   -0.8857    0.2595 C   0  0  0  0  0  0  0  0  0  0  0  0
   -1.9924   -1.2048    0.2950 H   0  0  0  0  0  0  0  0  0  0  0  0
   -2.2051    0.4973    0.7388 H   0  0  0  0  0  0  0  0  0  0  0  0
   -2.1705    0.0215   -0.9714 H   0  0  0  0  0  0  0  0  0  0  0  0
    0.0239    2.1788   -0.6023 H   0  0  0  0  0  0  0  0  0  0  0  0
    2.8481   -0.5795    0.2173 H   0  0  0  0  0  0  0  0  0  0  0  0
    0.6989   -1.9270    0.5471 H   0  0  0  0  0  0  0  0  0  0  0  0
  1  2  1  0
  2  3  1  0
  3  4  2  0
  4  5  1  0
  5  6  1  0
  6  2  2  0
  1  7  1  0
  1  8  1  0
  1  9  1  0
  3 10  1  0
  5 11  1  0
  6 12  1  0
M  END
$$$$
