
     RDKit          3D

 54 57  0  0  0  0  0  0  0  0999 V2000
    5.5418   -3.1520    1.5193 C   0  0  0  0  0  0  0  0  0  0  0  0
    6.1996   -2.2170    0.6722 O   0  0  0  0  0  0  0  0  0  0  0  0
    5.5692   -1.0210    0.4656 C   0  0  0  0  0  0  0  0  0  0  0  0
    6.3075   -0.0924   -0.2758 C   0  0  0  0  0  0  0  0  0  0  0  0
    5.7947    1.1774   -0.5494 C   0  0  0  0  0  0  0  0  0  0  0  0
    4.5253    1.5237   -0.0930 C   0  0  0  0  0  0  0  0  0  0  0  0
    3.7701    0.5866    0.6197 C   0  0  0  0  0  0  0  0  0  0  0  0
    2.4214    0.9263    1.1284 C   0  0  0  0  0  0  0  0  0  0  0  0
    2.1845    0.7201    2.3163 O   0  0  0  0  0  0  0  0  0  0  0  0
    1.4795    1.4551    0.2523 N   0  0  0  0  0  0  0  0  0  0  0  0
    1.5607    1.3809   -1.2140 C   0  0  0  0  0  0  0  0  0  0  0  0
    0.1842    1.1452   -1.8536 C   0  0  0  0  0  0  0  0  0  0  0  0
   -0.7751    2.2183   -1.4834 N   0  0  0  0  0  0  0  0  0  0  0  0
   -2.3527    2.1024   -2.0883 S   0  0  0  0  0  6  0  0  0  0  0  0
   -3.0627    3.3062   -1.7102 O   0  0  0  0  0  0  0  0  0  0  0  0
   -2.2630    1.7109   -3.4776 O   0  0  0  0  0  0  0  0  0  0  0  0
   -3.0628    0.7475   -1.1467 C   0  0  0  0  0  0  0  0  0  0  0  0
   -3.6102    1.0780    0.1058 C   0  0  0  0  0  0  0  0  0  0  0  0
   -4.1854    0.0996    0.9124 C   0  0  0  0  0  0  0  0  0  0  0  0
   -4.2433   -1.2142    0.4622 C   0  0  0  0  0  0  0  0  0  0  0  0
   -3.7349   -1.5501   -0.7945 C   0  0  0  0  0  0  0  0  0  0  0  0
   -3.1397   -0.5775   -1.6234 C   0  0  0  0  0  0  0  0  0  0  0  0
   -2.6687   -1.0176   -2.9823 C   0  0  0  0  0  0  0  0  0  0  0  0
   -4.8171   -2.2053    1.2534 N   0  0  0  0  0  0  0  0  0  0  0  0
   -5.3396   -1.9330    2.4845 C   0  0  0  0  0  0  0  0  0  0  0  0
   -5.8431   -2.8183    3.1720 O   0  0  0  0  0  0  0  0  0  0  0  0
   -5.2532   -0.4750    2.9355 C   0  0  0  0  0  0  0  0  0  0  0  0
   -4.6629    0.5228    2.1179 O   0  0  0  0  0  0  0  0  0  0  0  0
   -0.5696    2.8211   -0.1350 C   0  0  0  0  0  0  0  0  0  0  0  0
    0.1945    1.8852    0.8075 C   0  0  0  0  0  0  0  0  0  0  0  0
    4.2966   -0.6771    0.9188 C   0  0  0  0  0  0  0  0  0  0  0  0
    4.6003   -3.4900    1.0743 H   0  0  0  0  0  0  0  0  0  0  0  0
    5.3806   -2.7359    2.5194 H   0  0  0  0  0  0  0  0  0  0  0  0
    6.1935   -4.0250    1.6227 H   0  0  0  0  0  0  0  0  0  0  0  0
    7.3014   -0.3584   -0.6298 H   0  0  0  0  0  0  0  0  0  0  0  0
    6.3918    1.8946   -1.1074 H   0  0  0  0  0  0  0  0  0  0  0  0
    4.1382    2.5216   -0.2794 H   0  0  0  0  0  0  0  0  0  0  0  0
    2.2409    0.5791   -1.5161 H   0  0  0  0  0  0  0  0  0  0  0  0
    1.9734    2.3357   -1.5597 H   0  0  0  0  0  0  0  0  0  0  0  0
    0.2997    1.1203   -2.9419 H   0  0  0  0  0  0  0  0  0  0  0  0
   -0.1983    0.1772   -1.5144 H   0  0  0  0  0  0  0  0  0  0  0  0
   -3.6035    2.1064    0.4617 H   0  0  0  0  0  0  0  0  0  0  0  0
   -3.8090   -2.5792   -1.1421 H   0  0  0  0  0  0  0  0  0  0  0  0
   -2.7038   -2.1083   -3.0826 H   0  0  0  0  0  0  0  0  0  0  0  0
   -3.3159   -0.6027   -3.7609 H   0  0  0  0  0  0  0  0  0  0  0  0
   -1.6300   -0.7294   -3.1572 H   0  0  0  0  0  0  0  0  0  0  0  0
   -4.8714   -3.1653    0.9402 H   0  0  0  0  0  0  0  0  0  0  0  0
   -4.7065   -0.4718    3.8856 H   0  0  0  0  0  0  0  0  0  0  0  0
   -6.2784   -0.1493    3.1455 H   0  0  0  0  0  0  0  0  0  0  0  0
    0.0028    3.7457   -0.2807 H   0  0  0  0  0  0  0  0  0  0  0  0
   -1.5145    3.1096    0.3314 H   0  0  0  0  0  0  0  0  0  0  0  0
    0.3641    2.3793    1.7709 H   0  0  0  0  0  0  0  0  0  0  0  0
   -0.3923    0.9787    1.0003 H   0  0  0  0  0  0  0  0  0  0  0  0
    3.6916   -1.3626    1.5035 H   0  0  0  0  0  0  0  0  0  0  0  0
  1  2  1  0
  2  3  1  0
  3  4  2  0
  4  5  1  0
  5  6  2  0
  6  7  1  0
  7  8  1  0
  8  9  2  0
  8 10  1  0
 10 11  1  0
 11 12  1  0
 12 13  1  0
 13 14  1  0
 14 15  2  0
 14 16  2  0
 14 17  1  0
 17 18  2  0
 18 19  1  0
 19 20  2  0
 20 21  1  0
 21 22  2  0
 22 23  1  0
 20 24  1  0
 24 25  1  0
 25 26  2  0
 25 27  1  0
 27 28  1  0
 13 29  1  0
 29 30  1  0
  7 31  2  0
 31  3  1  0
 30 10  1  0
 22 17  1  0
 28 19  1  0
  1 32  1  0
  1 33  1  0
  1 34  1  0
  4 35  1  0
  5 36  1  0
  6 37  1  0
 11 38  1  0
 11 39  1  0
 12 40  1  0
 12 41  1  0
 18 42  1  0
 21 43  1  0
 23 44  1  0
 23 45  1  0
 23 46  1  0
 24 47  1  0
 27 48  1  0
 27 49  1  0
 29 50  1  0
 29 51  1  0
 30 52  1  0
 30 53  1  0
 31 54  1  0
M  END
$$$$
