
     RDKit          3D

 52 54  0  0  0  0  0  0  0  0999 V2000
   -0.4920    3.5077   -0.4672 C   0  0  0  0  0  0  0  0  0  0  0  0
   -0.1433    2.1407    0.0029 C   0  0  0  0  0  0  0  0  0  0  0  0
    1.1922    1.7681   -0.0258 N   0  0  0  0  0  0  0  0  0  0  0  0
    1.3189    0.5377    0.3920 C   0  0  0  0  0  0  0  0  0  0  0  0
    2.4397   -0.2335    0.5162 N   0  0  0  0  0  0  0  0  0  0  0  0
    3.6664    0.1658    0.0606 C   0  0  0  0  0  0  0  0  0  0  0  0
    3.9034    1.2171   -0.5304 O   0  0  0  0  0  0  0  0  0  0  0  0
    4.6798   -0.7562    0.2735 N   0  0  0  0  0  0  0  0  0  0  0  0
    4.6623   -1.8260    1.2613 C   0  0  0  0  0  0  0  0  0  0  0  0
    6.0937   -1.9015    1.7658 C   0  0  0  0  0  0  0  0  0  0  0  0
    6.9069   -1.5451    0.5337 C   0  0  0  0  0  0  0  0  0  0  0  0
    6.0587   -0.4753   -0.1667 C   0  0  1  0  0  0  0  0  0  0  0  0
    6.3071   -0.5248   -1.6929 C   0  0  0  0  0  0  0  0  0  0  0  0
    5.3552    0.0448   -2.4886 N   0  0  0  0  0  0  0  0  0  0  0  0
    7.3557   -0.9245   -2.1961 O   0  0  0  0  0  0  0  0  0  0  0  0
   -0.1141   -0.2507    0.8698 S   0  0  0  0  0  0  0  0  0  0  0  0
   -1.0123    1.1641    0.4728 C   0  0  0  0  0  0  0  0  0  0  0  0
   -2.4613    1.1971    0.6708 C   0  0  0  0  0  0  0  0  0  0  0  0
   -3.0396    2.1911    1.4556 C   0  0  0  0  0  0  0  0  0  0  0  0
   -4.4121    2.1897    1.6042 C   0  0  0  0  0  0  0  0  0  0  0  0
   -5.2274    1.2791    1.0321 N   0  0  0  0  0  0  0  0  0  0  0  0
   -4.6758    0.2997    0.2744 C   0  0  0  0  0  0  0  0  0  0  0  0
   -5.6254   -0.7187   -0.3616 C   0  0  0  0  0  0  0  0  0  0  0  0
   -7.1015   -0.3848   -0.0454 C   0  0  0  0  0  0  0  0  0  0  0  0
   -5.4639   -0.7067   -1.8950 C   0  0  0  0  0  0  0  0  0  0  0  0
   -5.3294   -2.1207    0.1812 C   0  0  0  0  0  0  0  0  0  0  0  0
   -5.4485   -2.1924    1.5243 F   0  0  0  0  0  0  0  0  0  0  0  0
   -4.0803   -2.5378   -0.1366 F   0  0  0  0  0  0  0  0  0  0  0  0
   -6.1828   -3.0365   -0.3415 F   0  0  0  0  0  0  0  0  0  0  0  0
   -3.2942    0.2438    0.0722 C   0  0  0  0  0  0  0  0  0  0  0  0
   -0.6907    4.1639    0.3849 H   0  0  0  0  0  0  0  0  0  0  0  0
    0.3300    3.9414   -1.0457 H   0  0  0  0  0  0  0  0  0  0  0  0
   -1.3777    3.4876   -1.1097 H   0  0  0  0  0  0  0  0  0  0  0  0
    2.2936   -1.1865    0.7936 H   0  0  0  0  0  0  0  0  0  0  0  0
    4.3745   -2.7467    0.7435 H   0  0  0  0  0  0  0  0  0  0  0  0
    3.9588   -1.6305    2.0753 H   0  0  0  0  0  0  0  0  0  0  0  0
    6.3455   -2.8840    2.1744 H   0  0  0  0  0  0  0  0  0  0  0  0
    6.2583   -1.1508    2.5482 H   0  0  0  0  0  0  0  0  0  0  0  0
    7.0246   -2.4374   -0.0937 H   0  0  0  0  0  0  0  0  0  0  0  0
    7.9077   -1.1787    0.7845 H   0  0  0  0  0  0  0  0  0  0  0  0
    6.3317    0.5253    0.1874 H   0  0  0  0  0  0  0  0  0  0  0  0
    5.6114    0.1986   -3.4536 H   0  0  0  0  0  0  0  0  0  0  0  0
    4.7352    0.7374   -2.0666 H   0  0  0  0  0  0  0  0  0  0  0  0
   -2.4420    2.9489    1.9501 H   0  0  0  0  0  0  0  0  0  0  0  0
   -4.9115    2.9449    2.2052 H   0  0  0  0  0  0  0  0  0  0  0  0
   -7.2965   -0.3968    1.0337 H   0  0  0  0  0  0  0  0  0  0  0  0
   -7.3784    0.6062   -0.4245 H   0  0  0  0  0  0  0  0  0  0  0  0
   -7.7808   -1.1109   -0.5082 H   0  0  0  0  0  0  0  0  0  0  0  0
   -5.6273    0.2981   -2.3044 H   0  0  0  0  0  0  0  0  0  0  0  0
   -4.4631   -1.0293   -2.2064 H   0  0  0  0  0  0  0  0  0  0  0  0
   -6.1822   -1.3824   -2.3738 H   0  0  0  0  0  0  0  0  0  0  0  0
   -2.8570   -0.5297   -0.5533 H   0  0  0  0  0  0  0  0  0  0  0  0
  1  2  1  0
  2  3  1  0
  3  4  2  0
  4  5  1  0
  5  6  1  0
  6  7  2  0
  6  8  1  0
  8  9  1  0
  9 10  1  0
 10 11  1  0
 11 12  1  0
 12 13  1  0
 13 14  1  0
 13 15  2  0
  4 16  1  0
 16 17  1  0
 17 18  1  0
 18 19  2  0
 19 20  1  0
 20 21  2  0
 21 22  1  0
 22 23  1  0
 23 24  1  0
 23 25  1  0
 23 26  1  0
 26 27  1  0
 26 28  1  0
 26 29  1  0
 22 30  2  0
 17  2  2  0
 30 18  1  0
 12  8  1  0
  1 31  1  0
  1 32  1  0
  1 33  1  0
  5 34  1  0
  9 35  1  0
  9 36  1  0
 10 37  1  0
 10 38  1  0
 11 39  1  0
 11 40  1  0
 12 41  1  1
 14 42  1  0
 14 43  1  0
 19 44  1  0
 20 45  1  0
 24 46  1  0
 24 47  1  0
 24 48  1  0
 25 49  1  0
 25 50  1  0
 25 51  1  0
 30 52  1  0
M  END
$$$$
