
     RDKit          3D

 14 14  0  0  0  0  0  0  0  0999 V2000
   -2.6952    0.2505    0.6283 C   0  0  0  0  0  0  0  0  0  0  0  0
   -1.2080    0.3559    0.8616 C   0  0  0  0  0  0  0  0  0  0  0  0
   -0.7759    0.8940    1.8742 O   0  0  0  0  0  0  0  0  0  0  0  0
   -0.4750   -0.1771   -0.1723 N   0  0  0  0  0  0  0  0  0  0  0  0
    0.8937   -0.2332   -0.2679 C   0  0  0  0  0  0  0  0  0  0  0  0
    1.4961   -0.7589   -1.3149 N   0  0  0  0  0  0  0  0  0  0  0  0
    2.8748   -0.7110   -1.1975 N   0  0  0  0  0  0  0  0  0  0  0  0
    3.2250   -0.1513   -0.0647 C   0  0  0  0  0  0  0  0  0  0  0  0
    4.8548    0.0711    0.4090 Cl  0  0  0  0  0  0  0  0  0  0  0  0
    1.9525    0.3539    0.9351 S   0  0  0  0  0  0  0  0  0  0  0  0
   -3.0559    1.1825    0.1853 H   0  0  0  0  0  0  0  0  0  0  0  0
   -3.1980    0.0799    1.5846 H   0  0  0  0  0  0  0  0  0  0  0  0
   -2.9396   -0.5844   -0.0346 H   0  0  0  0  0  0  0  0  0  0  0  0
   -0.9494   -0.5720   -0.9731 H   0  0  0  0  0  0  0  0  0  0  0  0
  1  2  1  0
  2  3  2  0
  2  4  1  0
  4  5  1  0
  5  6  2  0
  6  7  1  0
  7  8  2  0
  8  9  1  0
  8 10  1  0
 10  5  1  0
  1 11  1  0
  1 12  1  0
  1 13  1  0
  4 14  1  0
M  END
$$$$
