
     RDKit          3D

 38 39  0  0  0  0  0  0  0  0999 V2000
   -4.2930   -2.2030   -0.0462 C   0  0  0  0  0  0  0  0  0  0  0  0
   -3.2023   -1.1896   -0.2317 C   0  0  0  0  0  0  0  0  0  0  0  0
   -3.2350    0.0218    0.4585 C   0  0  0  0  0  0  0  0  0  0  0  0
   -2.2065    0.9739    0.3264 C   0  0  0  0  0  0  0  0  0  0  0  0
   -2.3771    2.2620    1.0883 C   0  0  0  0  0  0  0  0  0  0  0  0
   -1.0885    0.6702   -0.4906 C   0  0  0  0  0  0  0  0  0  0  0  0
    0.2908    1.8183   -0.5898 S   0  0  0  0  0  6  0  0  0  0  0  0
    0.2825    2.7354    0.5338 O   0  0  0  0  0  0  0  0  0  0  0  0
    0.3616    2.3012   -1.9568 O   0  0  0  0  0  0  0  0  0  0  0  0
    1.7069    0.8924   -0.3243 N   0  0  0  0  0  0  0  0  0  0  0  0
    2.7566    0.8536   -1.2090 C   0  0  0  0  0  0  0  0  0  0  0  0
    3.7360    0.0366   -0.6790 C   0  0  0  0  0  0  0  0  0  0  0  0
    5.0432   -0.3027   -1.2971 C   0  0  0  0  0  0  0  0  0  0  0  0
    3.2580   -0.3953    0.5904 C   0  0  0  0  0  0  0  0  0  0  0  0
    2.0081    0.1619    0.8086 C   0  0  0  0  0  0  0  0  0  0  0  0
    1.1271    0.0356    1.9991 C   0  0  0  0  0  0  0  0  0  0  0  0
   -1.0684   -0.5355   -1.2365 C   0  0  0  0  0  0  0  0  0  0  0  0
    0.0148   -0.9326   -2.2043 C   0  0  0  0  0  0  0  0  0  0  0  0
   -2.1183   -1.4587   -1.0670 C   0  0  0  0  0  0  0  0  0  0  0  0
   -4.4295   -2.8014   -0.9531 H   0  0  0  0  0  0  0  0  0  0  0  0
   -4.0451   -2.8708    0.7846 H   0  0  0  0  0  0  0  0  0  0  0  0
   -5.2496   -1.7139    0.1659 H   0  0  0  0  0  0  0  0  0  0  0  0
   -4.0842    0.2334    1.1083 H   0  0  0  0  0  0  0  0  0  0  0  0
   -1.7191    2.2809    1.9619 H   0  0  0  0  0  0  0  0  0  0  0  0
   -2.1936    3.1253    0.4415 H   0  0  0  0  0  0  0  0  0  0  0  0
   -3.4039    2.3749    1.4552 H   0  0  0  0  0  0  0  0  0  0  0  0
    2.7211    1.4041   -2.1412 H   0  0  0  0  0  0  0  0  0  0  0  0
    4.9748   -0.2920   -2.3897 H   0  0  0  0  0  0  0  0  0  0  0  0
    5.8053    0.4211   -0.9917 H   0  0  0  0  0  0  0  0  0  0  0  0
    5.3723   -1.3006   -0.9901 H   0  0  0  0  0  0  0  0  0  0  0  0
    3.7857   -1.0358    1.2880 H   0  0  0  0  0  0  0  0  0  0  0  0
    0.2292   -0.5413    1.7623 H   0  0  0  0  0  0  0  0  0  0  0  0
    1.6482   -0.4911    2.8061 H   0  0  0  0  0  0  0  0  0  0  0  0
    0.8340    1.0134    2.3898 H   0  0  0  0  0  0  0  0  0  0  0  0
    0.3700   -0.0843   -2.7923 H   0  0  0  0  0  0  0  0  0  0  0  0
    0.8453   -1.4049   -1.6735 H   0  0  0  0  0  0  0  0  0  0  0  0
   -0.3621   -1.6577   -2.9354 H   0  0  0  0  0  0  0  0  0  0  0  0
   -2.0951   -2.4048   -1.6083 H   0  0  0  0  0  0  0  0  0  0  0  0
  1  2  1  0
  2  3  2  0
  3  4  1  0
  4  5  1  0
  4  6  2  0
  6  7  1  0
  7  8  2  0
  7  9  2  0
  7 10  1  0
 10 11  1  0
 11 12  2  0
 12 13  1  0
 12 14  1  0
 14 15  2  0
 15 16  1  0
  6 17  1  0
 17 18  1  0
 17 19  2  0
 19  2  1  0
 15 10  1  0
  1 20  1  0
  1 21  1  0
  1 22  1  0
  3 23  1  0
  5 24  1  0
  5 25  1  0
  5 26  1  0
 11 27  1  0
 13 28  1  0
 13 29  1  0
 13 30  1  0
 14 31  1  0
 16 32  1  0
 16 33  1  0
 16 34  1  0
 18 35  1  0
 18 36  1  0
 18 37  1  0
 19 38  1  0
M  END
$$$$
