
     RDKit          3D

 56 58  0  0  0  0  0  0  0  0999 V2000
    9.0812    3.3569   -1.0349 C   0  0  0  0  0  0  0  0  0  0  0  0
    7.8253    2.6501   -1.0180 N   0  0  0  0  0  0  0  0  0  0  0  0
    6.6502    3.3071   -1.3247 C   0  0  0  0  0  0  0  0  0  0  0  0
    6.6053    4.4776   -1.6862 O   0  0  0  0  0  0  0  0  0  0  0  0
    5.3924    2.5281   -1.1518 C   0  0  0  0  0  0  0  0  0  0  0  0
    5.3563    1.1356   -1.2606 C   0  0  0  0  0  0  0  0  0  0  0  0
    4.1479    0.4456   -1.0878 C   0  0  0  0  0  0  0  0  0  0  0  0
    2.9540    1.1221   -0.8159 C   0  0  0  0  0  0  0  0  0  0  0  0
    1.7230    0.4874   -0.6216 N   0  0  0  0  0  0  0  0  0  0  0  0
    1.2996   -0.8375   -0.6554 C   0  0  0  0  0  0  0  0  0  0  0  0
    2.1397   -1.8484   -0.8919 N   0  0  0  0  0  0  0  0  0  0  0  0
    1.6155   -3.0855   -0.9211 C   0  0  0  0  0  0  0  0  0  0  0  0
    0.2857   -3.3617   -0.7012 C   0  0  0  0  0  0  0  0  0  0  0  0
   -0.2229   -4.7533   -0.7844 C   0  0  0  0  0  0  0  0  0  0  0  0
   -0.8664   -5.0225   -1.9527 F   0  0  0  0  0  0  0  0  0  0  0  0
   -1.0960   -5.0705    0.2145 F   0  0  0  0  0  0  0  0  0  0  0  0
    0.7702   -5.6865   -0.6954 F   0  0  0  0  0  0  0  0  0  0  0  0
   -0.5166   -2.2722   -0.4414 C   0  0  0  0  0  0  0  0  0  0  0  0
   -1.8914   -2.4351   -0.2641 N   0  0  0  0  0  0  0  0  0  0  0  0
   -2.6474   -1.2277    0.0888 C   0  0  0  0  0  0  0  0  0  0  0  0
   -4.0220   -1.6012    0.6072 C   0  0  0  0  0  0  0  0  0  0  0  0
   -4.1954   -2.8697    1.0966 N   0  0  0  0  0  0  0  0  0  0  0  0
   -5.4336   -3.1598    1.5539 C   0  0  0  0  0  0  0  0  0  0  0  0
   -6.4557   -2.2286    1.5495 C   0  0  0  0  0  0  0  0  0  0  0  0
   -6.2852   -0.9648    1.0996 N   0  0  0  0  0  0  0  0  0  0  0  0
   -5.0522   -0.6558    0.6557 C   0  0  0  0  0  0  0  0  0  0  0  0
   -4.8722    0.6652    0.1429 N   0  0  0  0  0  0  0  0  0  0  0  0
   -5.5268    0.8700   -1.1729 C   0  0  0  0  0  0  0  0  0  0  0  0
   -5.2018    1.9290    1.2353 S   0  0  0  0  0  6  0  0  0  0  0  0
   -4.2421    1.4863    2.6729 C   0  0  0  0  0  0  0  0  0  0  0  0
   -4.5988    3.1225    0.6727 O   0  0  0  0  0  0  0  0  0  0  0  0
   -6.6030    1.9308    1.5942 O   0  0  0  0  0  0  0  0  0  0  0  0
   -0.0128   -1.0208   -0.4338 N   0  0  0  0  0  0  0  0  0  0  0  0
    3.0069    2.5228   -0.7237 C   0  0  0  0  0  0  0  0  0  0  0  0
    4.2076    3.2211   -0.8951 C   0  0  0  0  0  0  0  0  0  0  0  0
    9.8922    2.6250   -1.0285 H   0  0  0  0  0  0  0  0  0  0  0  0
    9.1510    3.9837   -1.9282 H   0  0  0  0  0  0  0  0  0  0  0  0
    9.1421    3.9860   -0.1427 H   0  0  0  0  0  0  0  0  0  0  0  0
    7.7752    1.7946   -0.4821 H   0  0  0  0  0  0  0  0  0  0  0  0
    6.2480    0.5663   -1.5061 H   0  0  0  0  0  0  0  0  0  0  0  0
    4.1658   -0.6361   -1.1825 H   0  0  0  0  0  0  0  0  0  0  0  0
    0.9231    1.0843   -0.4700 H   0  0  0  0  0  0  0  0  0  0  0  0
    2.3328   -3.8739   -1.1400 H   0  0  0  0  0  0  0  0  0  0  0  0
   -2.1333   -3.1890    0.3852 H   0  0  0  0  0  0  0  0  0  0  0  0
   -2.1478   -0.6660    0.8879 H   0  0  0  0  0  0  0  0  0  0  0  0
   -2.7361   -0.5961   -0.8021 H   0  0  0  0  0  0  0  0  0  0  0  0
   -5.5844   -4.1680    1.9237 H   0  0  0  0  0  0  0  0  0  0  0  0
   -7.4484   -2.4723    1.9123 H   0  0  0  0  0  0  0  0  0  0  0  0
   -5.2077    1.8203   -1.6119 H   0  0  0  0  0  0  0  0  0  0  0  0
   -6.6178    0.8594   -1.0843 H   0  0  0  0  0  0  0  0  0  0  0  0
   -5.2265    0.0806   -1.8708 H   0  0  0  0  0  0  0  0  0  0  0  0
   -3.2023    1.3406    2.3741 H   0  0  0  0  0  0  0  0  0  0  0  0
   -4.6558    0.5868    3.1308 H   0  0  0  0  0  0  0  0  0  0  0  0
   -4.3064    2.3157    3.3813 H   0  0  0  0  0  0  0  0  0  0  0  0
    2.1041    3.0943   -0.5191 H   0  0  0  0  0  0  0  0  0  0  0  0
    4.2137    4.3072   -0.8246 H   0  0  0  0  0  0  0  0  0  0  0  0
  1  2  1  0
  2  3  1  0
  3  4  2  0
  3  5  1  0
  5  6  2  0
  6  7  1  0
  7  8  2  0
  8  9  1  0
  9 10  1  0
 10 11  2  0
 11 12  1  0
 12 13  2  0
 13 14  1  0
 14 15  1  0
 14 16  1  0
 14 17  1  0
 13 18  1  0
 18 19  1  0
 19 20  1  0
 20 21  1  0
 21 22  2  0
 22 23  1  0
 23 24  2  0
 24 25  1  0
 25 26  2  0
 26 27  1  0
 27 28  1  0
 27 29  1  0
 29 30  1  0
 29 31  2  0
 29 32  2  0
 18 33  2  0
  8 34  1  0
 34 35  2  0
 35  5  1  0
 33 10  1  0
 26 21  1  0
  1 36  1  0
  1 37  1  0
  1 38  1  0
  2 39  1  0
  6 40  1  0
  7 41  1  0
  9 42  1  0
 12 43  1  0
 19 44  1  0
 20 45  1  0
 20 46  1  0
 23 47  1  0
 24 48  1  0
 28 49  1  0
 28 50  1  0
 28 51  1  0
 30 52  1  0
 30 53  1  0
 30 54  1  0
 34 55  1  0
 35 56  1  0
M  END
$$$$
