
     RDKit          3D

 63 66  0  0  0  0  0  0  0  0999 V2000
    6.7310   -0.7720    0.0826 C   0  0  0  0  0  0  0  0  0  0  0  0
    5.7001    0.2901   -0.3435 C   0  0  0  0  0  0  0  0  0  0  0  0
    5.9187    0.6120   -1.8298 C   0  0  0  0  0  0  0  0  0  0  0  0
    5.9278    1.5476    0.5111 C   0  0  0  0  0  0  0  0  0  0  0  0
    4.3566   -0.2675   -0.1205 N   0  0  0  0  0  0  0  0  0  0  0  0
    3.1736    0.4087   -0.3479 C   0  0  0  0  0  0  0  0  0  0  0  0
    3.1225    1.5568   -0.7712 O   0  0  0  0  0  0  0  0  0  0  0  0
    1.9329   -0.4508   -0.1106 C   0  0  1  0  0  0  0  0  0  0  0  0
    1.9356   -1.2006    1.2450 C   0  0  0  0  0  0  0  0  0  0  0  0
    0.4630   -1.3461    1.6680 C   0  0  0  0  0  0  0  0  0  0  0  0
   -0.3160   -0.8734    0.4453 C   0  0  1  0  0  0  0  0  0  0  0  0
   -1.7908   -0.4858    0.6081 C   0  0  2  0  0  0  0  0  0  0  0  0
   -2.6072   -1.6262    1.2382 C   0  0  0  0  0  0  0  0  0  0  0  0
   -4.1029   -1.3184    1.2844 C   0  0  0  0  0  0  0  0  0  0  0  0
   -4.6092   -0.9542   -0.1083 C   0  0  1  0  0  0  0  0  0  0  0  0
   -6.0507   -0.8026   -0.1571 N   0  0  0  0  0  0  0  0  0  0  0  0
   -6.6594   -0.4447   -1.3317 C   0  0  0  0  0  0  0  0  0  0  0  0
   -7.8504   -0.6344   -1.5384 O   0  0  0  0  0  0  0  0  0  0  0  0
   -5.7861    0.1910   -2.3521 C   0  0  0  0  0  0  0  0  0  0  0  0
   -4.5166    0.5398   -2.0790 C   0  0  0  0  0  0  0  0  0  0  0  0
   -3.8806    0.2892   -0.7140 C   0  0  1  0  0  0  0  0  0  0  0  0
   -4.1241    1.5699    0.1203 C   0  0  0  0  0  0  0  0  0  0  0  0
   -2.3550   -0.0696   -0.7939 C   0  0  1  0  0  0  0  0  0  0  0  0
   -1.4682    1.0175   -1.4581 C   0  0  0  0  0  0  0  0  0  0  0  0
    0.0227    0.6361   -1.5059 C   0  0  0  0  0  0  0  0  0  0  0  0
    0.5604    0.2720   -0.1154 C   0  0  2  0  0  0  0  0  0  0  0  0
    0.5761    1.5311    0.7932 C   0  0  0  0  0  0  0  0  0  0  0  0
    6.6151   -1.6921   -0.5023 H   0  0  0  0  0  0  0  0  0  0  0  0
    7.7571   -0.4134   -0.0559 H   0  0  0  0  0  0  0  0  0  0  0  0
    6.6071   -1.0405    1.1383 H   0  0  0  0  0  0  0  0  0  0  0  0
    5.7341   -0.2700   -2.4540 H   0  0  0  0  0  0  0  0  0  0  0  0
    6.9456    0.9470   -2.0152 H   0  0  0  0  0  0  0  0  0  0  0  0
    5.2491    1.4043   -2.1795 H   0  0  0  0  0  0  0  0  0  0  0  0
    5.7312    1.3437    1.5701 H   0  0  0  0  0  0  0  0  0  0  0  0
    5.2751    2.3735    0.2112 H   0  0  0  0  0  0  0  0  0  0  0  0
    6.9607    1.9035    0.4229 H   0  0  0  0  0  0  0  0  0  0  0  0
    4.2953   -1.2636    0.0442 H   0  0  0  0  0  0  0  0  0  0  0  0
    1.9385   -1.2020   -0.9150 H   0  0  0  0  0  0  0  0  0  0  0  0
    2.5006   -0.6641    2.0159 H   0  0  0  0  0  0  0  0  0  0  0  0
    2.3997   -2.1870    1.1315 H   0  0  0  0  0  0  0  0  0  0  0  0
    0.2525   -0.7253    2.5459 H   0  0  0  0  0  0  0  0  0  0  0  0
    0.2265   -2.3824    1.9299 H   0  0  0  0  0  0  0  0  0  0  0  0
   -0.2929   -1.7105   -0.2728 H   0  0  0  0  0  0  0  0  0  0  0  0
   -1.8590    0.3637    1.2948 H   0  0  0  0  0  0  0  0  0  0  0  0
   -2.2561   -1.8223    2.2580 H   0  0  0  0  0  0  0  0  0  0  0  0
   -2.4498   -2.5509    0.6680 H   0  0  0  0  0  0  0  0  0  0  0  0
   -4.6377   -2.2004    1.6583 H   0  0  0  0  0  0  0  0  0  0  0  0
   -4.3063   -0.5144    2.0008 H   0  0  0  0  0  0  0  0  0  0  0  0
   -4.4049   -1.8205   -0.7578 H   0  0  0  0  0  0  0  0  0  0  0  0
   -6.6408   -1.3700    0.4388 H   0  0  0  0  0  0  0  0  0  0  0  0
   -6.2519    0.4016   -3.3073 H   0  0  0  0  0  0  0  0  0  0  0  0
   -3.9505    1.0638   -2.8423 H   0  0  0  0  0  0  0  0  0  0  0  0
   -3.7033    2.4549   -0.3703 H   0  0  0  0  0  0  0  0  0  0  0  0
   -3.6872    1.5139    1.1204 H   0  0  0  0  0  0  0  0  0  0  0  0
   -5.1942    1.7680    0.2554 H   0  0  0  0  0  0  0  0  0  0  0  0
   -2.2729   -0.9549   -1.4449 H   0  0  0  0  0  0  0  0  0  0  0  0
   -1.7944    1.1932   -2.4885 H   0  0  0  0  0  0  0  0  0  0  0  0
   -1.5776    1.9719   -0.9336 H   0  0  0  0  0  0  0  0  0  0  0  0
    0.1441   -0.2130   -2.1910 H   0  0  0  0  0  0  0  0  0  0  0  0
    0.5962    1.4644   -1.9382 H   0  0  0  0  0  0  0  0  0  0  0  0
    1.0799    1.3535    1.7484 H   0  0  0  0  0  0  0  0  0  0  0  0
   -0.4270    1.8970    1.0262 H   0  0  0  0  0  0  0  0  0  0  0  0
    1.0941    2.3641    0.3074 H   0  0  0  0  0  0  0  0  0  0  0  0
  1  2  1  0
  2  3  1  0
  2  4  1  0
  2  5  1  0
  5  6  1  0
  6  7  2  0
  6  8  1  0
  8  9  1  0
  9 10  1  0
 10 11  1  0
 11 12  1  0
 12 13  1  0
 13 14  1  0
 14 15  1  0
 15 16  1  0
 16 17  1  0
 17 18  2  0
 17 19  1  0
 19 20  2  0
 20 21  1  0
 21 22  1  1
 21 23  1  0
 23 24  1  0
 24 25  1  0
 25 26  1  0
 26 27  1  1
 26  8  1  0
 26 11  1  0
 23 12  1  0
 21 15  1  0
  1 28  1  0
  1 29  1  0
  1 30  1  0
  3 31  1  0
  3 32  1  0
  3 33  1  0
  4 34  1  0
  4 35  1  0
  4 36  1  0
  5 37  1  0
  8 38  1  6
  9 39  1  0
  9 40  1  0
 10 41  1  0
 10 42  1  0
 11 43  1  6
 12 44  1  1
 13 45  1  0
 13 46  1  0
 14 47  1  0
 14 48  1  0
 15 49  1  6
 16 50  1  0
 19 51  1  0
 20 52  1  0
 22 53  1  0
 22 54  1  0
 22 55  1  0
 23 56  1  6
 24 57  1  0
 24 58  1  0
 25 59  1  0
 25 60  1  0
 27 61  1  0
 27 62  1  0
 27 63  1  0
M  END
$$$$
