
     RDKit          3D

 61 63  0  0  0  0  0  0  0  0999 V2000
    0.6875    0.0000    0.0000 Cl  0  0  0  0  0  0  0  0  0  0  0  0
   -0.1710    2.2414    0.1134 O   0  0  0  0  0  0  0  0  0  0  0  0
   -1.2588    1.3490    0.2302 C   0  0  0  0  0  0  0  0  0  0  0  0
   -0.7695    0.0381    0.5213 C   0  0  1  0  0  0  0  0  0  0  0  0
   -0.9199   -0.9510   -0.6582 C   0  0  0  0  0  0  0  0  0  0  0  0
   -2.3693   -1.1793   -0.9335 C   0  0  0  0  0  0  0  0  0  0  0  0
   -3.0814   -0.6054   -1.9497 C   0  0  0  0  0  0  0  0  0  0  0  0
   -4.4453   -0.7794   -2.1075 C   0  0  0  0  0  0  0  0  0  0  0  0
   -5.1344   -1.5584   -1.1988 C   0  0  0  0  0  0  0  0  0  0  0  0
   -4.4743   -2.1579   -0.1522 C   0  0  0  0  0  0  0  0  0  0  0  0
   -5.2044   -2.9850    0.8650 C   0  0  0  0  0  0  0  0  0  0  0  0
   -5.9718   -2.2225    1.7233 F   0  0  0  0  0  0  0  0  0  0  0  0
   -6.0788   -3.8580    0.2083 F   0  0  0  0  0  0  0  0  0  0  0  0
   -4.3068   -3.7435    1.5904 F   0  0  0  0  0  0  0  0  0  0  0  0
   -3.1234   -1.9673   -0.0321 C   0  0  0  0  0  0  0  0  0  0  0  0
    0.5095    0.1336    1.0445 N   0  0  0  0  0  0  0  0  0  0  0  0
    1.2422   -0.9823    2.0828 S   0  0  0  0  0  6  0  0  0  0  0  0
    1.4911   -0.4784    3.4680 O   0  0  0  0  0  0  0  0  0  0  0  0
    0.5130   -2.3422    2.0595 O   0  0  0  0  0  0  0  0  0  0  0  0
    2.7981   -1.3021    1.3269 C   0  0  0  0  0  0  0  0  0  0  0  0
    3.2248   -2.4602    0.8259 C   0  0  0  0  0  0  0  0  0  0  0  0
    4.4533   -2.5892    0.1668 C   0  0  0  0  0  0  0  0  0  0  0  0
    4.8550   -3.7706   -0.3483 F   0  0  0  0  0  0  0  0  0  0  0  0
    5.2572   -1.4656    0.0300 C   0  0  0  0  0  0  0  0  0  0  0  0
    4.8525   -0.2482    0.5395 C   0  0  0  0  0  0  0  0  0  0  0  0
    3.6458   -0.1783    1.1720 C   0  0  0  0  0  0  0  0  0  0  0  0
    5.6947    0.9442    0.3657 C   0  0  0  0  0  0  0  0  0  0  0  0
    6.5479    0.9335   -0.8678 C   0  0  0  0  0  0  0  0  0  0  0  0
    6.9391   -0.3398   -1.3563 N   0  0  0  0  0  0  0  0  0  0  0  0
    6.5941   -1.4950   -0.6429 C   0  0  0  0  0  0  0  0  0  0  0  0
   -2.4032    2.0870   -0.0037 N   0  0  0  0  0  0  0  0  0  0  0  0
   -2.2447    3.5698   -0.3606 C   0  0  0  0  0  0  0  0  0  0  0  0
   -3.5896    4.1709   -0.2460 C   0  0  0  0  0  0  0  0  0  0  0  0
   -4.3544    3.1718    0.6535 C   0  0  0  0  0  0  0  0  0  0  0  0
   -3.8211    1.8838    0.0111 C   0  0  0  0  0  0  0  0  0  0  0  0
   -0.6875    0.0000    0.0000 H   0  0  0  0  0  0  0  0  0  0  0  0
   -1.4256   -0.5402    1.2707 H   0  0  0  0  0  0  0  0  0  0  0  0
   -0.5249   -0.3887   -1.5559 H   0  0  0  0  0  0  0  0  0  0  0  0
   -0.3959   -1.8589   -0.5575 H   0  0  0  0  0  0  0  0  0  0  0  0
   -2.5773    0.0020   -2.6876 H   0  0  0  0  0  0  0  0  0  0  0  0
   -5.0500   -0.3282   -2.8785 H   0  0  0  0  0  0  0  0  0  0  0  0
   -6.2155   -1.7430   -1.2652 H   0  0  0  0  0  0  0  0  0  0  0  0
   -2.5969   -2.4349    0.7619 H   0  0  0  0  0  0  0  0  0  0  0  0
    0.9203    1.1068    1.0939 H   0  0  0  0  0  0  0  0  0  0  0  0
    2.6550   -3.3626    0.8828 H   0  0  0  0  0  0  0  0  0  0  0  0
    3.3283    0.7615    1.5484 H   0  0  0  0  0  0  0  0  0  0  0  0
    6.2959    1.1304    1.2625 H   0  0  0  0  0  0  0  0  0  0  0  0
    4.9873    1.8257    0.2161 H   0  0  0  0  0  0  0  0  0  0  0  0
    5.9860    1.4547   -1.7216 H   0  0  0  0  0  0  0  0  0  0  0  0
    7.4382    1.5594   -0.6717 H   0  0  0  0  0  0  0  0  0  0  0  0
    7.0456   -0.4131   -2.3674 H   0  0  0  0  0  0  0  0  0  0  0  0
    6.6348   -2.3911   -1.3285 H   0  0  0  0  0  0  0  0  0  0  0  0
    7.3867   -1.7673    0.1397 H   0  0  0  0  0  0  0  0  0  0  0  0
   -1.5555    3.9897    0.4173 H   0  0  0  0  0  0  0  0  0  0  0  0
   -1.8435    3.6351   -1.3696 H   0  0  0  0  0  0  0  0  0  0  0  0
   -4.1891    4.1864   -1.1882 H   0  0  0  0  0  0  0  0  0  0  0  0
   -3.5570    5.1924    0.2123 H   0  0  0  0  0  0  0  0  0  0  0  0
   -3.9058    3.2607    1.6534 H   0  0  0  0  0  0  0  0  0  0  0  0
   -5.4186    3.3092    0.5489 H   0  0  0  0  0  0  0  0  0  0  0  0
   -4.1861    1.0011    0.5096 H   0  0  0  0  0  0  0  0  0  0  0  0
   -4.1330    1.9491   -1.0664 H   0  0  0  0  0  0  0  0  0  0  0  0
  2  3  2  0
  3  4  1  0
  4  5  1  0
  5  6  1  0
  6  7  2  0
  7  8  1  0
  8  9  2  0
  9 10  1  0
 10 11  1  0
 11 12  1  0
 11 13  1  0
 11 14  1  0
 10 15  2  0
  4 16  1  0
 16 17  1  0
 17 18  2  0
 17 19  2  0
 17 20  1  0
 20 21  2  0
 21 22  1  0
 22 23  1  0
 22 24  2  0
 24 25  1  0
 25 26  2  0
 25 27  1  0
 27 28  1  0
 28 29  1  0
 29 30  1  0
  3 31  1  0
 31 32  1  0
 32 33  1  0
 33 34  1  0
 34 35  1  0
 15  6  1  0
 26 20  1  0
 35 31  1  0
 30 24  1  0
  1 36  1  0
  4 37  1  1
  5 38  1  0
  5 39  1  0
  7 40  1  0
  8 41  1  0
  9 42  1  0
 15 43  1  0
 16 44  1  0
 21 45  1  0
 26 46  1  0
 27 47  1  0
 27 48  1  0
 28 49  1  0
 28 50  1  0
 29 51  1  0
 30 52  1  0
 30 53  1  0
 32 54  1  0
 32 55  1  0
 33 56  1  0
 33 57  1  0
 34 58  1  0
 34 59  1  0
 35 60  1  0
 35 61  1  0
M  END
$$$$
