
     RDKit          3D

 62 62  0  0  0  0  0  0  0  0999 V2000
   -6.7494    1.7387   -1.2845 C   0  0  0  0  0  0  0  0  0  0  0  0
   -5.5588    0.8678   -1.4503 C   0  0  0  0  0  0  0  0  0  0  0  0
   -4.5801    0.8978   -0.4041 N   0  0  0  0  0  0  0  0  0  0  0  0
   -5.0856    0.2930    0.7881 C   0  0  0  0  0  0  0  0  0  0  0  0
   -6.1626    1.0385    1.4989 C   0  0  0  0  0  0  0  0  0  0  0  0
   -3.3543    0.3847   -0.9034 C   0  0  0  0  0  0  0  0  0  0  0  0
   -2.2085    0.3344    0.0460 C   0  0  0  0  0  0  0  0  0  0  0  0
   -1.0267   -0.2413   -0.7368 C   0  0  0  0  0  0  0  0  0  0  0  0
    0.2097   -0.3567    0.1115 C   0  0  0  0  0  0  0  0  0  0  0  0
    0.0360   -1.2408    1.3013 C   0  0  0  0  0  0  0  0  0  0  0  0
    1.3094   -0.7355   -0.7306 N   0  0  0  0  0  0  0  0  0  0  0  0
    2.6118   -1.0198   -0.2816 C   0  0  0  0  0  0  0  0  0  0  0  0
    2.9679   -2.3170    0.0051 C   0  0  0  0  0  0  0  0  0  0  0  0
    2.0694   -3.3737   -0.1715 C   0  0  0  0  0  0  0  0  0  0  0  0
    2.4831   -4.6490    0.1257 C   0  0  0  0  0  0  0  0  0  0  0  0
    3.7606   -4.8591    0.5855 C   0  0  0  0  0  0  0  0  0  0  0  0
    4.2538   -6.5083    0.9573 Cl  0  0  0  0  0  0  0  0  0  0  0  0
    4.6565   -3.8463    0.7657 C   0  0  0  0  0  0  0  0  0  0  0  0
    4.2435   -2.5510    0.4666 C   0  0  0  0  0  0  0  0  0  0  0  0
    5.1115   -1.5129    0.6259 N   0  0  0  0  0  0  0  0  0  0  0  0
    4.7730   -0.2475    0.3478 C   0  0  0  0  0  0  0  0  0  0  0  0
    5.7254    0.7252    0.5414 C   0  0  0  0  0  0  0  0  0  0  0  0
    5.3848    2.0235    0.2562 C   0  0  0  0  0  0  0  0  0  0  0  0
    4.1165    2.3287   -0.2116 C   0  0  0  0  0  0  0  0  0  0  0  0
    3.7821    3.6464   -0.4977 O   0  0  0  0  0  0  0  0  0  0  0  0
    4.7021    4.7048   -0.3258 C   0  0  0  0  0  0  0  0  0  0  0  0
    3.1906    1.3285   -0.3930 C   0  0  0  0  0  0  0  0  0  0  0  0
    3.5047    0.0110   -0.1136 C   0  0  0  0  0  0  0  0  0  0  0  0
    0.6878    0.0000    0.0000 Cl  0  0  0  0  0  0  0  0  0  0  0  0
    0.6835    0.0000    0.0000 Cl  0  0  0  0  0  0  0  0  0  0  0  0
   -7.6882    1.1128   -1.2196 H   0  0  0  0  0  0  0  0  0  0  0  0
   -6.6908    2.5306   -0.5406 H   0  0  0  0  0  0  0  0  0  0  0  0
   -6.8792    2.2882   -2.2727 H   0  0  0  0  0  0  0  0  0  0  0  0
   -5.0214    1.0410   -2.4185 H   0  0  0  0  0  0  0  0  0  0  0  0
   -5.8956   -0.2169   -1.5070 H   0  0  0  0  0  0  0  0  0  0  0  0
   -4.2406    0.1356    1.5172 H   0  0  0  0  0  0  0  0  0  0  0  0
   -5.4485   -0.7625    0.5917 H   0  0  0  0  0  0  0  0  0  0  0  0
   -6.2332    0.6314    2.5598 H   0  0  0  0  0  0  0  0  0  0  0  0
   -7.1589    0.8296    1.0664 H   0  0  0  0  0  0  0  0  0  0  0  0
   -5.9415    2.1069    1.6521 H   0  0  0  0  0  0  0  0  0  0  0  0
   -3.5117   -0.6532   -1.2932 H   0  0  0  0  0  0  0  0  0  0  0  0
   -3.0434    1.0255   -1.7630 H   0  0  0  0  0  0  0  0  0  0  0  0
   -1.9198    1.3217    0.4265 H   0  0  0  0  0  0  0  0  0  0  0  0
   -2.3615   -0.3326    0.9191 H   0  0  0  0  0  0  0  0  0  0  0  0
   -0.8221    0.4798   -1.5534 H   0  0  0  0  0  0  0  0  0  0  0  0
   -1.3071   -1.1920   -1.2025 H   0  0  0  0  0  0  0  0  0  0  0  0
    0.4261    0.6771    0.5341 H   0  0  0  0  0  0  0  0  0  0  0  0
    1.0478   -1.3803    1.7610 H   0  0  0  0  0  0  0  0  0  0  0  0
   -0.5528   -0.7094    2.0805 H   0  0  0  0  0  0  0  0  0  0  0  0
   -0.3822   -2.2307    1.1066 H   0  0  0  0  0  0  0  0  0  0  0  0
    1.1522   -0.8128   -1.7698 H   0  0  0  0  0  0  0  0  0  0  0  0
    1.0623   -3.1660   -0.5491 H   0  0  0  0  0  0  0  0  0  0  0  0
    1.7655   -5.4534   -0.0210 H   0  0  0  0  0  0  0  0  0  0  0  0
    5.6791   -3.9947    1.1295 H   0  0  0  0  0  0  0  0  0  0  0  0
    6.7267    0.5249    0.9035 H   0  0  0  0  0  0  0  0  0  0  0  0
    6.0892    2.8527    0.3846 H   0  0  0  0  0  0  0  0  0  0  0  0
    4.2376    5.6380   -0.6761 H   0  0  0  0  0  0  0  0  0  0  0  0
    4.8706    4.7927    0.7863 H   0  0  0  0  0  0  0  0  0  0  0  0
    5.6689    4.4753   -0.7905 H   0  0  0  0  0  0  0  0  0  0  0  0
    2.2063    1.5766   -0.7602 H   0  0  0  0  0  0  0  0  0  0  0  0
   -0.6878    0.0000    0.0000 H   0  0  0  0  0  0  0  0  0  0  0  0
   -0.6835    0.0000    0.0000 H   0  0  0  0  0  0  0  0  0  0  0  0
  1  2  1  0
  2  3  1  0
  3  4  1  0
  4  5  1  0
  3  6  1  0
  6  7  1  0
  7  8  1  0
  8  9  1  0
  9 10  1  0
  9 11  1  0
 11 12  1  0
 12 13  2  0
 13 14  1  0
 14 15  2  0
 15 16  1  0
 16 17  1  0
 16 18  2  0
 18 19  1  0
 19 20  2  0
 20 21  1  0
 21 22  2  0
 22 23  1  0
 23 24  2  0
 24 25  1  0
 25 26  1  0
 24 27  1  0
 27 28  2  0
 28 12  1  0
 19 13  1  0
 28 21  1  0
  1 31  1  0
  1 32  1  0
  1 33  1  0
  2 34  1  0
  2 35  1  0
  4 36  1  0
  4 37  1  0
  5 38  1  0
  5 39  1  0
  5 40  1  0
  6 41  1  0
  6 42  1  0
  7 43  1  0
  7 44  1  0
  8 45  1  0
  8 46  1  0
  9 47  1  0
 10 48  1  0
 10 49  1  0
 10 50  1  0
 11 51  1  0
 14 52  1  0
 15 53  1  0
 18 54  1  0
 22 55  1  0
 23 56  1  0
 26 57  1  0
 26 58  1  0
 26 59  1  0
 27 60  1  0
 29 61  1  0
 30 62  1  0
M  END
$$$$
