
     RDKit          3D

 60 63  0  0  0  0  0  0  0  0999 V2000
   -0.7234   -2.1246    2.7893 O   0  0  0  0  0  0  0  0  0  0  0  0
   -0.6786   -1.5694    1.6882 C   0  0  0  0  0  0  0  0  0  0  0  0
    0.6556   -1.4434    0.9497 C   0  0  0  0  0  0  0  0  0  0  0  0
    0.9519   -0.0798    0.6729 O   0  0  0  0  0  0  0  0  0  0  0  0
    2.1085    0.1794   -0.0084 C   0  0  0  0  0  0  0  0  0  0  0  0
    3.0111   -0.7730   -0.4868 C   0  0  0  0  0  0  0  0  0  0  0  0
    4.1566   -0.3695   -1.1800 C   0  0  0  0  0  0  0  0  0  0  0  0
    4.4065    0.9910   -1.3760 C   0  0  0  0  0  0  0  0  0  0  0  0
    5.8561    1.5043   -2.2717 S   0  0  0  0  0  6  0  0  0  0  0  0
    5.5702    2.8020   -2.8473 O   0  0  0  0  0  0  0  0  0  0  0  0
    6.2861    0.3983   -3.0992 O   0  0  0  0  0  0  0  0  0  0  0  0
    6.9871    1.7778   -1.0507 N   0  0  0  0  0  0  0  0  0  0  0  0
    7.2666    0.7566   -0.1021 C   0  0  0  0  0  0  0  0  0  0  0  0
    6.9678    0.9879    1.2416 C   0  0  0  0  0  0  0  0  0  0  0  0
    7.2092   -0.0065    2.1905 C   0  0  0  0  0  0  0  0  0  0  0  0
    7.7513   -1.2294    1.7970 C   0  0  0  0  0  0  0  0  0  0  0  0
    8.0548   -1.4580    0.4553 C   0  0  0  0  0  0  0  0  0  0  0  0
    7.8140   -0.4642   -0.4950 C   0  0  0  0  0  0  0  0  0  0  0  0
    3.5042    1.9506   -0.9141 C   0  0  0  0  0  0  0  0  0  0  0  0
    2.3601    1.5378   -0.2285 C   0  0  0  0  0  0  0  0  0  0  0  0
   -1.8218   -1.0859    1.0672 N   0  0  0  0  0  0  0  0  0  0  0  0
   -3.0884   -1.1493    1.7959 C   0  0  0  0  0  0  0  0  0  0  0  0
   -4.1583   -0.2067    1.2198 C   0  0  0  0  0  0  0  0  0  0  0  0
   -4.4264   -0.4839   -0.2017 N   0  0  0  0  0  0  0  0  0  0  0  0
   -5.3474    0.4901   -0.8034 C   0  0  0  0  0  0  0  0  0  0  0  0
   -6.7437    0.4487   -0.2177 C   0  0  0  0  0  0  0  0  0  0  0  0
   -7.3387    1.6101    0.2952 C   0  0  0  0  0  0  0  0  0  0  0  0
   -8.6343    1.5714    0.8159 C   0  0  0  0  0  0  0  0  0  0  0  0
   -9.3486    0.3741    0.8277 C   0  0  0  0  0  0  0  0  0  0  0  0
   -8.7701   -0.7860    0.3175 C   0  0  0  0  0  0  0  0  0  0  0  0
   -7.4767   -0.7488   -0.2057 C   0  0  0  0  0  0  0  0  0  0  0  0
   -3.1886   -0.6313   -0.9906 C   0  0  0  0  0  0  0  0  0  0  0  0
   -1.8579   -0.4201   -0.2354 C   0  0  0  0  0  0  0  0  0  0  0  0
    0.5882   -2.0395    0.0319 H   0  0  0  0  0  0  0  0  0  0  0  0
    1.4319   -1.8649    1.6009 H   0  0  0  0  0  0  0  0  0  0  0  0
    2.8574   -1.8375   -0.3411 H   0  0  0  0  0  0  0  0  0  0  0  0
    4.8498   -1.1204   -1.5544 H   0  0  0  0  0  0  0  0  0  0  0  0
    6.9698    2.7409   -0.7223 H   0  0  0  0  0  0  0  0  0  0  0  0
    6.5385    1.9321    1.5623 H   0  0  0  0  0  0  0  0  0  0  0  0
    6.9742    0.1717    3.2370 H   0  0  0  0  0  0  0  0  0  0  0  0
    7.9414   -2.0035    2.5370 H   0  0  0  0  0  0  0  0  0  0  0  0
    8.4837   -2.4086    0.1483 H   0  0  0  0  0  0  0  0  0  0  0  0
    8.0676   -0.6500   -1.5360 H   0  0  0  0  0  0  0  0  0  0  0  0
    3.6769    3.0104   -1.0842 H   0  0  0  0  0  0  0  0  0  0  0  0
    1.6555    2.2809    0.1383 H   0  0  0  0  0  0  0  0  0  0  0  0
   -2.9105   -0.9047    2.8495 H   0  0  0  0  0  0  0  0  0  0  0  0
   -3.4347   -2.1894    1.7540 H   0  0  0  0  0  0  0  0  0  0  0  0
   -3.8262    0.8316    1.3496 H   0  0  0  0  0  0  0  0  0  0  0  0
   -5.0720   -0.3349    1.8106 H   0  0  0  0  0  0  0  0  0  0  0  0
   -5.4623    0.2791   -1.8753 H   0  0  0  0  0  0  0  0  0  0  0  0
   -4.9299    1.5030   -0.7293 H   0  0  0  0  0  0  0  0  0  0  0  0
   -6.7980    2.5545    0.2926 H   0  0  0  0  0  0  0  0  0  0  0  0
   -9.0870    2.4774    1.2109 H   0  0  0  0  0  0  0  0  0  0  0  0
  -10.3566    0.3451    1.2341 H   0  0  0  0  0  0  0  0  0  0  0  0
   -9.3240   -1.7211    0.3282 H   0  0  0  0  0  0  0  0  0  0  0  0
   -7.0311   -1.6609   -0.5989 H   0  0  0  0  0  0  0  0  0  0  0  0
   -3.1938   -1.6552   -1.3868 H   0  0  0  0  0  0  0  0  0  0  0  0
   -3.1824    0.0304   -1.8674 H   0  0  0  0  0  0  0  0  0  0  0  0
   -1.0361   -0.7669   -0.8670 H   0  0  0  0  0  0  0  0  0  0  0  0
   -1.7052    0.6501   -0.0485 H   0  0  0  0  0  0  0  0  0  0  0  0
  1  2  2  0
  2  3  1  0
  3  4  1  0
  4  5  1  0
  5  6  2  0
  6  7  1  0
  7  8  2  0
  8  9  1  0
  9 10  2  0
  9 11  2  0
  9 12  1  0
 12 13  1  0
 13 14  2  0
 14 15  1  0
 15 16  2  0
 16 17  1  0
 17 18  2  0
  8 19  1  0
 19 20  2  0
  2 21  1  0
 21 22  1  0
 22 23  1  0
 23 24  1  0
 24 25  1  0
 25 26  1  0
 26 27  2  0
 27 28  1  0
 28 29  2  0
 29 30  1  0
 30 31  2  0
 24 32  1  0
 32 33  1  0
 20  5  1  0
 33 21  1  0
 18 13  1  0
 31 26  1  0
  3 34  1  0
  3 35  1  0
  6 36  1  0
  7 37  1  0
 12 38  1  0
 14 39  1  0
 15 40  1  0
 16 41  1  0
 17 42  1  0
 18 43  1  0
 19 44  1  0
 20 45  1  0
 22 46  1  0
 22 47  1  0
 23 48  1  0
 23 49  1  0
 25 50  1  0
 25 51  1  0
 27 52  1  0
 28 53  1  0
 29 54  1  0
 30 55  1  0
 31 56  1  0
 32 57  1  0
 32 58  1  0
 33 59  1  0
 33 60  1  0
M  END
$$$$
