
     RDKit          3D

 50 52  0  0  0  0  0  0  0  0999 V2000
   -4.7908   -0.6726   -1.8201 C   0  0  0  0  0  0  0  0  0  0  0  0
   -4.3908   -1.4462   -0.5968 C   0  0  0  0  0  0  0  0  0  0  0  0
   -5.0361   -2.4556   -0.2924 O   0  0  0  0  0  0  0  0  0  0  0  0
   -3.3134   -1.0321    0.1575 N   0  0  0  0  0  0  0  0  0  0  0  0
   -2.9228   -1.8376    1.3251 C   0  0  0  0  0  0  0  0  0  0  0  0
   -1.6261   -1.2353    1.9077 C   0  0  0  0  0  0  0  0  0  0  0  0
   -0.4338   -2.1715    1.6775 C   0  0  0  0  0  0  0  0  0  0  0  0
   -1.7839   -0.9269    3.3997 C   0  0  0  0  0  0  0  0  0  0  0  0
   -1.4905    0.0210    1.0786 C   0  0  0  0  0  0  0  0  0  0  0  0
   -0.5228    1.0117    1.2235 C   0  0  0  0  0  0  0  0  0  0  0  0
   -0.5416    2.0867    0.3350 C   0  0  0  0  0  0  0  0  0  0  0  0
    0.6787    3.3684    0.4785 S   0  0  0  0  0  6  0  0  0  0  0  0
    0.1070    4.5851   -0.0550 O   0  0  0  0  0  0  0  0  0  0  0  0
    1.2555    3.3142    1.8024 O   0  0  0  0  0  0  0  0  0  0  0  0
    1.8320    2.8761   -0.6218 N   0  0  0  0  0  0  0  0  0  0  0  0
    2.6865    1.7071   -0.3657 C   0  0  0  0  0  0  0  0  0  0  0  0
    4.1392    2.1810   -0.3606 C   0  0  0  0  0  0  0  0  0  0  0  0
    2.4205    0.6495   -1.4500 C   0  0  0  0  0  0  0  0  0  0  0  0
    3.0621   -0.6546   -1.1441 C   0  0  0  0  0  0  0  0  0  0  0  0
    4.0920   -1.3661   -1.7219 C   0  0  0  0  0  0  0  0  0  0  0  0
    4.2296   -2.5527   -0.9620 C   0  0  0  0  0  0  0  0  0  0  0  0
    3.2745   -2.4898    0.0248 C   0  0  0  0  0  0  0  0  0  0  0  0
    2.5596   -1.3405   -0.0790 O   0  0  0  0  0  0  0  0  0  0  0  0
   -1.5281    2.1808   -0.6562 C   0  0  0  0  0  0  0  0  0  0  0  0
   -2.4968    1.1765   -0.7872 C   0  0  0  0  0  0  0  0  0  0  0  0
   -2.4709    0.0917    0.0775 C   0  0  0  0  0  0  0  0  0  0  0  0
   -3.9483   -0.5811   -2.5092 H   0  0  0  0  0  0  0  0  0  0  0  0
   -5.1944    0.3015   -1.5353 H   0  0  0  0  0  0  0  0  0  0  0  0
   -5.5816   -1.2185   -2.3457 H   0  0  0  0  0  0  0  0  0  0  0  0
   -2.8013   -2.8831    1.0157 H   0  0  0  0  0  0  0  0  0  0  0  0
   -3.7552   -1.8043    2.0401 H   0  0  0  0  0  0  0  0  0  0  0  0
   -0.5744   -3.1219    2.2043 H   0  0  0  0  0  0  0  0  0  0  0  0
   -0.2973   -2.3962    0.6130 H   0  0  0  0  0  0  0  0  0  0  0  0
    0.4999   -1.7259    2.0395 H   0  0  0  0  0  0  0  0  0  0  0  0
   -2.6106   -0.2298    3.5805 H   0  0  0  0  0  0  0  0  0  0  0  0
   -0.8776   -0.4710    3.8142 H   0  0  0  0  0  0  0  0  0  0  0  0
   -1.9860   -1.8413    3.9686 H   0  0  0  0  0  0  0  0  0  0  0  0
    0.2333    0.9413    2.0010 H   0  0  0  0  0  0  0  0  0  0  0  0
    1.9931    3.4880   -1.4187 H   0  0  0  0  0  0  0  0  0  0  0  0
    2.4630    1.2851    0.6207 H   0  0  0  0  0  0  0  0  0  0  0  0
    4.8252    1.3624   -0.1223 H   0  0  0  0  0  0  0  0  0  0  0  0
    4.4269    2.5962   -1.3331 H   0  0  0  0  0  0  0  0  0  0  0  0
    4.2861    2.9672    0.3885 H   0  0  0  0  0  0  0  0  0  0  0  0
    2.7639    1.0147   -2.4263 H   0  0  0  0  0  0  0  0  0  0  0  0
    1.3404    0.4840   -1.5521 H   0  0  0  0  0  0  0  0  0  0  0  0
    4.6718   -1.0671   -2.5842 H   0  0  0  0  0  0  0  0  0  0  0  0
    4.9354   -3.3570   -1.1150 H   0  0  0  0  0  0  0  0  0  0  0  0
    2.9888   -3.1469    0.8345 H   0  0  0  0  0  0  0  0  0  0  0  0
   -1.5498    3.0354   -1.3302 H   0  0  0  0  0  0  0  0  0  0  0  0
   -3.2401    1.3003   -1.5616 H   0  0  0  0  0  0  0  0  0  0  0  0
  1  2  1  0
  2  3  2  0
  2  4  1  0
  4  5  1  0
  5  6  1  0
  6  7  1  0
  6  8  1  0
  6  9  1  0
  9 10  2  0
 10 11  1  0
 11 12  1  0
 12 13  2  0
 12 14  2  0
 12 15  1  0
 15 16  1  0
 16 17  1  0
 16 18  1  0
 18 19  1  0
 19 20  2  0
 20 21  1  0
 21 22  2  0
 22 23  1  0
 11 24  2  0
 24 25  1  0
 25 26  2  0
 26  4  1  0
 26  9  1  0
 23 19  1  0
  1 27  1  0
  1 28  1  0
  1 29  1  0
  5 30  1  0
  5 31  1  0
  7 32  1  0
  7 33  1  0
  7 34  1  0
  8 35  1  0
  8 36  1  0
  8 37  1  0
 10 38  1  0
 15 39  1  0
 16 40  1  0
 17 41  1  0
 17 42  1  0
 17 43  1  0
 18 44  1  0
 18 45  1  0
 20 46  1  0
 21 47  1  0
 22 48  1  0
 24 49  1  0
 25 50  1  0
M  END
$$$$
