
     RDKit          3D

 61 66  0  0  0  0  0  0  0  0999 V2000
    1.2514   -2.1171   -0.1922 C   0  0  0  0  0  0  0  0  0  0  0  0
    1.3682   -0.5916    0.0495 C   0  0  2  0  0  0  0  0  0  0  0  0
    0.7183   -0.1930    1.3885 C   0  0  0  0  0  0  0  0  0  0  0  0
   -0.8044   -0.4409    1.3876 C   0  0  0  0  0  0  0  0  0  0  0  0
   -1.5569    0.1985    0.1912 C   0  0  1  0  0  0  0  0  0  0  0  0
   -0.8428   -0.0634   -1.1707 C   0  0  1  0  0  0  0  0  0  0  0  0
   -1.4957    0.7497   -2.3002 C   0  0  0  0  0  0  0  0  0  0  0  0
   -2.9734    0.9501   -2.1537 C   0  0  0  0  0  0  0  0  0  0  0  0
   -3.7040    0.5730   -1.0865 C   0  0  0  0  0  0  0  0  0  0  0  0
   -5.1420    1.0444   -0.9794 C   0  0  0  0  0  0  0  0  0  0  0  0
   -6.0200    0.2977    0.0295 C   0  0  1  0  0  0  0  0  0  0  0  0
   -6.4721   -0.9450   -0.5136 O   0  0  0  0  0  0  0  0  0  0  0  0
   -5.3388    0.0370    1.3758 C   0  0  0  0  0  0  0  0  0  0  0  0
   -3.8240    0.2856    1.3867 C   0  0  0  0  0  0  0  0  0  0  0  0
   -3.0894   -0.1726    0.1022 C   0  0  2  0  0  0  0  0  0  0  0  0
   -3.2757   -1.6976   -0.0887 C   0  0  0  0  0  0  0  0  0  0  0  0
    0.6434    0.2712   -1.0207 C   0  0  2  0  0  0  0  0  0  0  0  0
    1.5466    0.2141   -2.2424 C   0  0  0  0  0  0  0  0  0  0  0  0
    2.8796    0.2301   -1.5514 C   0  0  0  0  0  0  0  0  0  0  0  0
    2.8085   -0.1604   -0.2594 C   0  0  0  0  0  0  0  0  0  0  0  0
    3.8781   -0.2492    0.6529 N   0  0  0  0  0  0  0  0  0  0  0  0
    3.9185   -1.0148    1.8063 C   0  0  0  0  0  0  0  0  0  0  0  0
    5.0628   -0.9627    2.4440 N   0  0  0  0  0  0  0  0  0  0  0  0
    5.8259   -0.1034    1.7118 C   0  0  0  0  0  0  0  0  0  0  0  0
    7.1411    0.3227    1.9581 C   0  0  0  0  0  0  0  0  0  0  0  0
    7.7294    1.2506    1.0952 C   0  0  0  0  0  0  0  0  0  0  0  0
    7.0152    1.7560    0.0126 C   0  0  0  0  0  0  0  0  0  0  0  0
    5.7036    1.3396   -0.2495 C   0  0  0  0  0  0  0  0  0  0  0  0
    5.1282    0.3804    0.6038 C   0  0  0  0  0  0  0  0  0  0  0  0
    1.6778   -2.4182   -1.1559 H   0  0  0  0  0  0  0  0  0  0  0  0
    1.7827   -2.6812    0.5813 H   0  0  0  0  0  0  0  0  0  0  0  0
    0.2177   -2.4723   -0.1817 H   0  0  0  0  0  0  0  0  0  0  0  0
    0.9092    0.8670    1.6022 H   0  0  0  0  0  0  0  0  0  0  0  0
    1.1457   -0.7536    2.2249 H   0  0  0  0  0  0  0  0  0  0  0  0
   -1.2027   -0.0403    2.3269 H   0  0  0  0  0  0  0  0  0  0  0  0
   -0.9807   -1.5197    1.4205 H   0  0  0  0  0  0  0  0  0  0  0  0
   -1.5024    1.2856    0.3676 H   0  0  0  0  0  0  0  0  0  0  0  0
   -0.9341   -1.1193   -1.4429 H   0  0  0  0  0  0  0  0  0  0  0  0
   -1.2933    0.2625   -3.2616 H   0  0  0  0  0  0  0  0  0  0  0  0
   -1.0416    1.7475   -2.3535 H   0  0  0  0  0  0  0  0  0  0  0  0
   -3.4459    1.5177   -2.9538 H   0  0  0  0  0  0  0  0  0  0  0  0
   -5.6142    1.0062   -1.9693 H   0  0  0  0  0  0  0  0  0  0  0  0
   -5.1108    2.0991   -0.6737 H   0  0  0  0  0  0  0  0  0  0  0  0
   -6.9296    0.8842    0.2055 H   0  0  0  0  0  0  0  0  0  0  0  0
   -6.8298   -0.7718   -1.4007 H   0  0  0  0  0  0  0  0  0  0  0  0
   -5.5399   -0.9885    1.7105 H   0  0  0  0  0  0  0  0  0  0  0  0
   -5.7840    0.6936    2.1343 H   0  0  0  0  0  0  0  0  0  0  0  0
   -3.6513    1.3602    1.5396 H   0  0  0  0  0  0  0  0  0  0  0  0
   -3.4138   -0.2154    2.2712 H   0  0  0  0  0  0  0  0  0  0  0  0
   -2.9143   -2.2575    0.7794 H   0  0  0  0  0  0  0  0  0  0  0  0
   -2.7529   -2.0751   -0.9721 H   0  0  0  0  0  0  0  0  0  0  0  0
   -4.3207   -1.9830   -0.2217 H   0  0  0  0  0  0  0  0  0  0  0  0
    0.6756    1.3254   -0.6853 H   0  0  0  0  0  0  0  0  0  0  0  0
    1.4180   -0.6914   -2.8424 H   0  0  0  0  0  0  0  0  0  0  0  0
    1.4189    1.0944   -2.8790 H   0  0  0  0  0  0  0  0  0  0  0  0
    3.7774    0.4921   -2.0909 H   0  0  0  0  0  0  0  0  0  0  0  0
    3.0923   -1.6342    2.1180 H   0  0  0  0  0  0  0  0  0  0  0  0
    7.6801   -0.0626    2.8168 H   0  0  0  0  0  0  0  0  0  0  0  0
    8.7456    1.5886    1.2819 H   0  0  0  0  0  0  0  0  0  0  0  0
    7.4802    2.4942   -0.6378 H   0  0  0  0  0  0  0  0  0  0  0  0
    5.1611    1.7770   -1.0786 H   0  0  0  0  0  0  0  0  0  0  0  0
  2  1  1  6
  2  3  1  0
  3  4  1  0
  4  5  1  0
  5  6  1  0
  6  7  1  0
  7  8  1  0
  8  9  2  0
  9 10  1  0
 10 11  1  0
 11 12  1  0
 11 13  1  0
 13 14  1  0
 14 15  1  0
 15 16  1  6
  6 17  1  0
 17 18  1  0
 18 19  1  0
 19 20  2  0
 20 21  1  0
 21 22  1  0
 22 23  2  0
 23 24  1  0
 24 25  2  0
 25 26  1  0
 26 27  2  0
 27 28  1  0
 28 29  2  0
 17  2  1  0
 29 21  1  0
 20  2  1  0
 29 24  1  0
 15  5  1  0
 15  9  1  0
  1 30  1  0
  1 31  1  0
  1 32  1  0
  3 33  1  0
  3 34  1  0
  4 35  1  0
  4 36  1  0
  5 37  1  1
  6 38  1  6
  7 39  1  0
  7 40  1  0
  8 41  1  0
 10 42  1  0
 10 43  1  0
 11 44  1  1
 12 45  1  0
 13 46  1  0
 13 47  1  0
 14 48  1  0
 14 49  1  0
 16 50  1  0
 16 51  1  0
 16 52  1  0
 17 53  1  1
 18 54  1  0
 18 55  1  0
 19 56  1  0
 22 57  1  0
 25 58  1  0
 26 59  1  0
 27 60  1  0
 28 61  1  0
M  END
$$$$
