
     RDKit          3D

 48 50  0  0  0  0  0  0  0  0999 V2000
   -5.5018    2.4888   -0.8417 C   0  0  0  0  0  0  0  0  0  0  0  0
   -4.7104    1.3754   -0.1655 C   0  0  0  0  0  0  0  0  0  0  0  0
   -4.2179    0.2930   -1.1514 C   0  0  2  0  0  0  0  0  0  0  0  0
   -5.4005   -0.5165   -1.7062 C   0  0  0  0  0  0  0  0  0  0  0  0
   -3.1454   -0.6679   -0.5600 C   0  0  1  0  0  0  0  0  0  0  0  0
   -1.7539   -0.0385   -0.4238 C   0  0  0  0  0  0  0  0  0  0  0  0
   -1.5869    1.1741   -0.5109 O   0  0  0  0  0  0  0  0  0  0  0  0
   -0.7546   -0.9777   -0.1924 N   0  0  0  0  0  0  0  0  0  0  0  0
    0.6284   -0.7413   -0.0418 C   0  0  0  0  0  0  0  0  0  0  0  0
    1.2309    0.5101   -0.1821 C   0  0  0  0  0  0  0  0  0  0  0  0
    2.6150    0.6554   -0.0224 C   0  0  0  0  0  0  0  0  0  0  0  0
    3.4049   -0.4462    0.3037 C   0  0  0  0  0  0  0  0  0  0  0  0
    4.8288   -0.3596    0.4095 N   0  0  0  0  0  0  0  0  0  0  0  0
    5.4451    0.7278    1.2108 C   0  0  0  0  0  0  0  0  0  0  0  0
    6.4899    1.4135    0.3303 C   0  0  0  0  0  0  0  0  0  0  0  0
    7.1014    0.3246   -0.5344 C   0  0  0  0  0  0  0  0  0  0  0  0
    5.6924   -0.6304   -1.0543 S   0  0  0  0  0  6  0  0  0  0  0  0
    5.0489    0.0827   -2.1366 O   0  0  0  0  0  0  0  0  0  0  0  0
    6.0438   -2.0292   -1.1403 O   0  0  0  0  0  0  0  0  0  0  0  0
    2.8155   -1.7040    0.4103 C   0  0  0  0  0  0  0  0  0  0  0  0
    1.4345   -1.8495    0.2487 C   0  0  0  0  0  0  0  0  0  0  0  0
   -3.5261   -1.2994    0.6866 N   0  0  0  0  0  0  0  0  0  0  0  0
   -3.4771   -0.8188    1.9577 C   0  0  0  0  0  0  0  0  0  0  0  0
   -3.8102   -1.7867    2.7797 N   0  0  0  0  0  0  0  0  0  0  0  0
   -4.0502   -2.8858    1.9915 N   0  0  0  0  0  0  0  0  0  0  0  0
   -3.8593   -2.6017    0.7108 N   0  0  0  0  0  0  0  0  0  0  0  0
   -6.4426    2.1198   -1.2595 H   0  0  0  0  0  0  0  0  0  0  0  0
   -5.7484    3.2677   -0.1128 H   0  0  0  0  0  0  0  0  0  0  0  0
   -4.9210    2.9512   -1.6460 H   0  0  0  0  0  0  0  0  0  0  0  0
   -3.8591    1.8382    0.3442 H   0  0  0  0  0  0  0  0  0  0  0  0
   -5.3408    0.9264    0.6108 H   0  0  0  0  0  0  0  0  0  0  0  0
   -3.7551    0.8045   -2.0069 H   0  0  0  0  0  0  0  0  0  0  0  0
   -5.0524   -1.3005   -2.3872 H   0  0  0  0  0  0  0  0  0  0  0  0
   -6.0852    0.1193   -2.2755 H   0  0  0  0  0  0  0  0  0  0  0  0
   -5.9716   -0.9935   -0.9028 H   0  0  0  0  0  0  0  0  0  0  0  0
   -3.0093   -1.4814   -1.2893 H   0  0  0  0  0  0  0  0  0  0  0  0
   -1.0366   -1.9493   -0.0929 H   0  0  0  0  0  0  0  0  0  0  0  0
    0.6608    1.3970   -0.4389 H   0  0  0  0  0  0  0  0  0  0  0  0
    3.0605    1.6331   -0.1801 H   0  0  0  0  0  0  0  0  0  0  0  0
    5.9341    0.2658    2.0763 H   0  0  0  0  0  0  0  0  0  0  0  0
    4.7202    1.4561    1.5854 H   0  0  0  0  0  0  0  0  0  0  0  0
    7.2434    1.9376    0.9254 H   0  0  0  0  0  0  0  0  0  0  0  0
    5.9941    2.1557   -0.3078 H   0  0  0  0  0  0  0  0  0  0  0  0
    7.6237    0.7181   -1.4084 H   0  0  0  0  0  0  0  0  0  0  0  0
    7.7623   -0.3272    0.0439 H   0  0  0  0  0  0  0  0  0  0  0  0
    3.4296   -2.5771    0.6188 H   0  0  0  0  0  0  0  0  0  0  0  0
    1.0073   -2.8443    0.3489 H   0  0  0  0  0  0  0  0  0  0  0  0
   -3.1992    0.1902    2.2260 H   0  0  0  0  0  0  0  0  0  0  0  0
  1  2  1  0
  2  3  1  0
  3  4  1  0
  3  5  1  0
  5  6  1  0
  6  7  2  0
  6  8  1  0
  8  9  1  0
  9 10  2  0
 10 11  1  0
 11 12  2  0
 12 13  1  0
 13 14  1  0
 14 15  1  0
 15 16  1  0
 16 17  1  0
 17 18  2  0
 17 19  2  0
 12 20  1  0
 20 21  2  0
  5 22  1  0
 22 23  1  0
 23 24  2  0
 24 25  1  0
 25 26  2  0
 21  9  1  0
 26 22  1  0
 17 13  1  0
  1 27  1  0
  1 28  1  0
  1 29  1  0
  2 30  1  0
  2 31  1  0
  3 32  1  6
  4 33  1  0
  4 34  1  0
  4 35  1  0
  5 36  1  6
  8 37  1  0
 10 38  1  0
 11 39  1  0
 14 40  1  0
 14 41  1  0
 15 42  1  0
 15 43  1  0
 16 44  1  0
 16 45  1  0
 20 46  1  0
 21 47  1  0
 23 48  1  0
M  END
$$$$
