
     RDKit          3D

 64 68  0  0  0  0  0  0  0  0999 V2000
   -3.9232   -0.8569   -1.2830 C   0  0  0  0  0  0  0  0  0  0  0  0
   -3.8086    0.5583   -0.7314 C   0  0  0  0  0  0  0  0  0  0  0  0
   -5.1842    1.0860   -0.3307 C   0  0  0  0  0  0  0  0  0  0  0  0
   -3.2652    1.4061   -1.7370 O   0  0  0  0  0  0  0  0  0  0  0  0
   -2.2116    2.1630   -1.1382 C   0  0  2  0  0  0  0  0  0  0  0  0
   -0.8706    1.7716   -1.7999 C   0  0  0  0  0  0  0  0  0  0  0  0
   -0.3112    0.7566   -0.8167 C   0  0  1  0  0  0  0  0  0  0  0  0
    1.1348    0.2879   -0.8648 C   0  0  2  0  0  0  0  0  0  0  0  0
    1.6886    0.0530   -2.2642 C   0  0  0  0  0  0  0  0  0  0  0  0
    3.1601   -0.3317   -2.1659 C   0  0  2  0  0  0  0  0  0  0  0  0
    3.6043   -0.5642   -3.4353 F   0  0  0  0  0  0  0  0  0  0  0  0
    3.3948   -1.5307   -1.2687 C   0  0  0  0  0  0  0  0  0  0  0  0
    4.1615   -2.5394   -1.7246 C   0  0  0  0  0  0  0  0  0  0  0  0
    4.5120   -3.7063   -0.8900 C   0  0  0  0  0  0  0  0  0  0  0  0
    5.1949   -4.6099   -1.3650 O   0  0  0  0  0  0  0  0  0  0  0  0
    4.0812   -3.6944    0.5475 C   0  0  0  0  0  0  0  0  0  0  0  0
    2.7480   -2.9751    0.7043 C   0  0  0  0  0  0  0  0  0  0  0  0
    2.7236   -1.5239    0.1294 C   0  0  1  0  0  0  0  0  0  0  0  0
    3.5237   -0.5907    1.0611 C   0  0  0  0  0  0  0  0  0  0  0  0
    1.2302   -1.0290   -0.0291 C   0  0  1  0  0  0  0  0  0  0  0  0
    0.2482   -1.0113    1.2004 C   0  0  1  0  0  0  0  0  0  0  0  0
    0.7722   -1.6813    2.3354 O   0  0  0  0  0  0  0  0  0  0  0  0
   -0.2793    0.3590    1.6733 C   0  0  0  0  0  0  0  0  0  0  0  0
   -0.6372    1.3768    0.5676 C   0  0  1  0  0  0  0  0  0  0  0  0
    0.1585    2.6837    0.8672 C   0  0  0  0  0  0  0  0  0  0  0  0
   -2.1422    1.7217    0.3429 C   0  0  1  0  0  0  0  0  0  0  0  0
   -2.6944    2.7959    1.3016 C   0  0  0  0  0  0  0  0  0  0  0  0
   -2.7494    3.9869    0.9851 O   0  0  0  0  0  0  0  0  0  0  0  0
   -3.0637    2.3476    2.7176 C   0  0  0  0  0  0  0  0  0  0  0  0
   -3.9734    1.2692    2.8006 O   0  0  0  0  0  0  0  0  0  0  0  0
   -2.9408    0.5326    0.4109 O   0  0  0  0  0  0  0  0  0  0  0  0
   -4.3158   -1.5473   -0.5291 H   0  0  0  0  0  0  0  0  0  0  0  0
   -4.5647   -0.8885   -2.1700 H   0  0  0  0  0  0  0  0  0  0  0  0
   -2.9402   -1.2345   -1.5851 H   0  0  0  0  0  0  0  0  0  0  0  0
   -5.6219    0.4845    0.4727 H   0  0  0  0  0  0  0  0  0  0  0  0
   -5.8684    1.0936   -1.1861 H   0  0  0  0  0  0  0  0  0  0  0  0
   -5.1218    2.1175    0.0314 H   0  0  0  0  0  0  0  0  0  0  0  0
   -2.4111    3.2251   -1.3059 H   0  0  0  0  0  0  0  0  0  0  0  0
   -1.0095    1.3384   -2.7958 H   0  0  0  0  0  0  0  0  0  0  0  0
   -0.2090    2.6386   -1.8921 H   0  0  0  0  0  0  0  0  0  0  0  0
   -0.9238   -0.1444   -0.9731 H   0  0  0  0  0  0  0  0  0  0  0  0
    1.7710    1.0497   -0.4092 H   0  0  0  0  0  0  0  0  0  0  0  0
    1.1242   -0.7269   -2.7906 H   0  0  0  0  0  0  0  0  0  0  0  0
    1.6021    0.9582   -2.8764 H   0  0  0  0  0  0  0  0  0  0  0  0
    3.7412    0.5153   -1.7833 H   0  0  0  0  0  0  0  0  0  0  0  0
    4.6051   -2.5349   -2.7158 H   0  0  0  0  0  0  0  0  0  0  0  0
    3.9698   -4.7311    0.8846 H   0  0  0  0  0  0  0  0  0  0  0  0
    4.8681   -3.2253    1.1463 H   0  0  0  0  0  0  0  0  0  0  0  0
    2.5188   -2.9859    1.7727 H   0  0  0  0  0  0  0  0  0  0  0  0
    1.9724   -3.5752    0.2085 H   0  0  0  0  0  0  0  0  0  0  0  0
    3.1046   -0.5764    2.0720 H   0  0  0  0  0  0  0  0  0  0  0  0
    3.5422    0.4427    0.7020 H   0  0  0  0  0  0  0  0  0  0  0  0
    4.5689   -0.9084    1.1470 H   0  0  0  0  0  0  0  0  0  0  0  0
    0.7761   -1.7998   -0.6776 H   0  0  0  0  0  0  0  0  0  0  0  0
   -0.6325   -1.5938    0.8946 H   0  0  0  0  0  0  0  0  0  0  0  0
    0.0511   -1.7992    2.9788 H   0  0  0  0  0  0  0  0  0  0  0  0
    0.4798    0.7829    2.3459 H   0  0  0  0  0  0  0  0  0  0  0  0
   -1.1403    0.1870    2.3302 H   0  0  0  0  0  0  0  0  0  0  0  0
   -0.1161    3.0866    1.8493 H   0  0  0  0  0  0  0  0  0  0  0  0
    1.2389    2.5172    0.9046 H   0  0  0  0  0  0  0  0  0  0  0  0
   -0.0257    3.4746    0.1344 H   0  0  0  0  0  0  0  0  0  0  0  0
   -2.1490    2.0902    3.2583 H   0  0  0  0  0  0  0  0  0  0  0  0
   -3.5202    3.1988    3.2329 H   0  0  0  0  0  0  0  0  0  0  0  0
   -3.6460    0.5594    2.2143 H   0  0  0  0  0  0  0  0  0  0  0  0
  1  2  1  0
  2  3  1  0
  2  4  1  0
  4  5  1  0
  5  6  1  0
  6  7  1  0
  7  8  1  0
  8  9  1  0
  9 10  1  0
 10 11  1  0
 10 12  1  0
 12 13  2  0
 13 14  1  0
 14 15  2  0
 14 16  1  0
 16 17  1  0
 17 18  1  0
 18 19  1  1
 18 20  1  0
 20 21  1  0
 21 22  1  0
 21 23  1  0
 23 24  1  0
 24 25  1  1
 24 26  1  0
 26 27  1  1
 27 28  2  0
 27 29  1  0
 29 30  1  0
 26 31  1  0
 31  2  1  0
 26  5  1  0
 24  7  1  0
 20  8  1  0
 18 12  1  0
  1 32  1  0
  1 33  1  0
  1 34  1  0
  3 35  1  0
  3 36  1  0
  3 37  1  0
  5 38  1  1
  6 39  1  0
  6 40  1  0
  7 41  1  1
  8 42  1  1
  9 43  1  0
  9 44  1  0
 10 45  1  1
 13 46  1  0
 16 47  1  0
 16 48  1  0
 17 49  1  0
 17 50  1  0
 19 51  1  0
 19 52  1  0
 19 53  1  0
 20 54  1  6
 21 55  1  6
 22 56  1  0
 23 57  1  0
 23 58  1  0
 25 59  1  0
 25 60  1  0
 25 61  1  0
 29 62  1  0
 29 63  1  0
 30 64  1  0
M  END
$$$$
