
     RDKit          3D

 36 38  0  0  0  0  0  0  0  0999 V2000
   -1.9929    2.9602    1.2073 C   0  0  0  0  0  0  0  0  0  0  0  0
   -1.4485    1.9598    0.2910 N   0  0  0  0  0  0  0  0  0  0  0  0
   -2.2867    0.7458    0.3037 C   0  0  0  0  0  0  0  0  0  0  0  0
   -1.7342   -0.4056   -0.5191 C   0  0  0  0  0  0  0  0  0  0  0  0
   -2.5776   -1.4609   -0.9350 C   0  0  0  0  0  0  0  0  0  0  0  0
   -3.9207   -1.5542   -0.5239 N   0  0  0  0  0  0  0  0  0  0  0  0
   -2.0166   -2.5633   -1.5948 C   0  0  0  0  0  0  0  0  0  0  0  0
   -0.6681   -2.5879   -1.9382 C   0  0  0  0  0  0  0  0  0  0  0  0
    0.1572   -1.5329   -1.5690 C   0  0  0  0  0  0  0  0  0  0  0  0
   -0.3496   -0.4563   -0.8213 C   0  0  0  0  0  0  0  0  0  0  0  0
    0.5733    0.6859   -0.3981 C   0  0  0  0  0  0  0  0  0  0  0  0
    1.9506    0.2471    0.0953 C   0  0  0  0  0  0  0  0  0  0  0  0
    3.1079    0.7963   -0.4786 C   0  0  0  0  0  0  0  0  0  0  0  0
    4.3734    0.4154   -0.0288 C   0  0  0  0  0  0  0  0  0  0  0  0
    4.4985   -0.5159    1.0000 C   0  0  0  0  0  0  0  0  0  0  0  0
    3.3589   -1.0675    1.5814 C   0  0  0  0  0  0  0  0  0  0  0  0
    2.0925   -0.6879    1.1344 C   0  0  0  0  0  0  0  0  0  0  0  0
   -0.0742    1.6015    0.6694 C   0  0  0  0  0  0  0  0  0  0  0  0
   -3.0120    3.2361    0.9141 H   0  0  0  0  0  0  0  0  0  0  0  0
   -1.3967    3.8787    1.1700 H   0  0  0  0  0  0  0  0  0  0  0  0
   -2.0160    2.6072    2.2447 H   0  0  0  0  0  0  0  0  0  0  0  0
   -3.2623    1.0338   -0.1037 H   0  0  0  0  0  0  0  0  0  0  0  0
   -2.4354    0.3835    1.3299 H   0  0  0  0  0  0  0  0  0  0  0  0
   -4.4676   -2.1917   -1.0953 H   0  0  0  0  0  0  0  0  0  0  0  0
   -4.3896   -0.6613   -0.4250 H   0  0  0  0  0  0  0  0  0  0  0  0
   -2.6369   -3.4160   -1.8586 H   0  0  0  0  0  0  0  0  0  0  0  0
   -0.2584   -3.4361   -2.4793 H   0  0  0  0  0  0  0  0  0  0  0  0
    1.2094   -1.5679   -1.8443 H   0  0  0  0  0  0  0  0  0  0  0  0
    0.7080    1.2907   -1.3075 H   0  0  0  0  0  0  0  0  0  0  0  0
    3.0310    1.5258   -1.2821 H   0  0  0  0  0  0  0  0  0  0  0  0
    5.2624    0.8461   -0.4822 H   0  0  0  0  0  0  0  0  0  0  0  0
    5.4842   -0.8125    1.3483 H   0  0  0  0  0  0  0  0  0  0  0  0
    3.4549   -1.7960    2.3822 H   0  0  0  0  0  0  0  0  0  0  0  0
    1.2131   -1.1339    1.5956 H   0  0  0  0  0  0  0  0  0  0  0  0
   -0.0681    1.1236    1.6595 H   0  0  0  0  0  0  0  0  0  0  0  0
    0.5368    2.5102    0.7579 H   0  0  0  0  0  0  0  0  0  0  0  0
  1  2  1  0
  2  3  1  0
  3  4  1  0
  4  5  2  0
  5  6  1  0
  5  7  1  0
  7  8  2  0
  8  9  1  0
  9 10  2  0
 10 11  1  0
 11 12  1  0
 12 13  2  0
 13 14  1  0
 14 15  2  0
 15 16  1  0
 16 17  2  0
 11 18  1  0
 18  2  1  0
 10  4  1  0
 17 12  1  0
  1 19  1  0
  1 20  1  0
  1 21  1  0
  3 22  1  0
  3 23  1  0
  6 24  1  0
  6 25  1  0
  7 26  1  0
  8 27  1  0
  9 28  1  0
 11 29  1  0
 13 30  1  0
 14 31  1  0
 15 32  1  0
 16 33  1  0
 17 34  1  0
 18 35  1  0
 18 36  1  0
M  END
$$$$
