
     RDKit          3D

 48 51  0  0  0  0  0  0  0  0999 V2000
   -2.5556    0.5151   -3.0175 O   0  0  0  0  0  0  0  0  0  0  0  0
   -3.2516    0.8902   -1.8015 S   0  0  0  0  0  6  0  0  0  0  0  0
   -3.7125    2.2545   -1.6326 O   0  0  0  0  0  0  0  0  0  0  0  0
   -4.6429   -0.2288   -1.5720 C   0  0  0  0  0  0  0  0  0  0  0  0
   -5.2080   -0.1129   -0.1846 C   0  0  0  0  0  0  0  0  0  0  0  0
   -6.0091    0.9747    0.1923 C   0  0  0  0  0  0  0  0  0  0  0  0
   -6.5208    1.0617    1.4898 C   0  0  0  0  0  0  0  0  0  0  0  0
   -6.2433    0.0632    2.4231 C   0  0  0  0  0  0  0  0  0  0  0  0
   -5.4542   -1.0251    2.0583 C   0  0  0  0  0  0  0  0  0  0  0  0
   -4.9471   -1.1043    0.7647 C   0  0  0  0  0  0  0  0  0  0  0  0
   -4.1994   -2.1658    0.4296 F   0  0  0  0  0  0  0  0  0  0  0  0
   -2.2064    0.5452   -0.5173 N   0  0  0  0  0  0  0  0  0  0  0  0
   -1.5485   -0.7896   -0.5038 C   0  0  0  0  0  0  0  0  0  0  0  0
   -0.0578   -0.4950   -0.5562 C   0  0  0  0  0  0  0  0  0  0  0  0
    0.0505    0.8008    0.2395 C   0  0  0  0  0  0  0  0  0  0  0  0
    1.3569    1.5622    0.0188 C   0  0  0  0  0  0  0  0  0  0  0  0
    2.5333    0.8170    0.5396 C   0  0  0  0  0  0  0  0  0  0  0  0
    2.6807    0.2845    1.7308 N   0  0  0  0  0  0  0  0  0  0  0  0
    3.9154   -0.3148    1.7745 N   0  0  0  0  0  0  0  0  0  0  0  0
    4.5188   -0.1349    0.6134 C   0  0  0  0  0  0  0  0  0  0  0  0
    5.8477   -0.6126    0.2423 C   0  0  0  0  0  0  0  0  0  0  0  0
    6.5867   -1.3978    1.1341 C   0  0  0  0  0  0  0  0  0  0  0  0
    7.8556   -1.8567    0.7838 C   0  0  0  0  0  0  0  0  0  0  0  0
    8.3559   -1.5142   -0.4600 C   0  0  0  0  0  0  0  0  0  0  0  0
    7.6821   -0.7591   -1.3533 N   0  0  0  0  0  0  0  0  0  0  0  0
    6.4514   -0.3284   -0.9800 C   0  0  0  0  0  0  0  0  0  0  0  0
    3.6665    0.5811   -0.1914 N   0  0  0  0  0  0  0  0  0  0  0  0
   -1.1647    1.5797   -0.2632 C   0  0  0  0  0  0  0  0  0  0  0  0
   -4.2969   -1.2422   -1.7964 H   0  0  0  0  0  0  0  0  0  0  0  0
   -5.3983    0.0365   -2.3193 H   0  0  0  0  0  0  0  0  0  0  0  0
   -6.2301    1.7718   -0.5165 H   0  0  0  0  0  0  0  0  0  0  0  0
   -7.1328    1.9151    1.7734 H   0  0  0  0  0  0  0  0  0  0  0  0
   -6.6405    0.1352    3.4324 H   0  0  0  0  0  0  0  0  0  0  0  0
   -5.2304   -1.8111    2.7724 H   0  0  0  0  0  0  0  0  0  0  0  0
   -1.8570   -1.4366   -1.3290 H   0  0  0  0  0  0  0  0  0  0  0  0
   -1.8082   -1.2884    0.4361 H   0  0  0  0  0  0  0  0  0  0  0  0
    0.2607   -0.3448   -1.5953 H   0  0  0  0  0  0  0  0  0  0  0  0
    0.5344   -1.3106   -0.1306 H   0  0  0  0  0  0  0  0  0  0  0  0
   -0.0836    0.5775    1.3073 H   0  0  0  0  0  0  0  0  0  0  0  0
    1.4924    1.7808   -1.0479 H   0  0  0  0  0  0  0  0  0  0  0  0
    1.3056    2.5294    0.5337 H   0  0  0  0  0  0  0  0  0  0  0  0
    6.1747   -1.6560    2.1086 H   0  0  0  0  0  0  0  0  0  0  0  0
    8.4362   -2.4656    1.4679 H   0  0  0  0  0  0  0  0  0  0  0  0
    9.3396   -1.8468   -0.7795 H   0  0  0  0  0  0  0  0  0  0  0  0
    5.9645    0.2771   -1.7375 H   0  0  0  0  0  0  0  0  0  0  0  0
    3.8321    0.8731   -1.1419 H   0  0  0  0  0  0  0  0  0  0  0  0
   -0.9237    2.1208   -1.1858 H   0  0  0  0  0  0  0  0  0  0  0  0
   -1.5184    2.2951    0.4853 H   0  0  0  0  0  0  0  0  0  0  0  0
  1  2  2  0
  2  3  2  0
  2  4  1  0
  4  5  1  0
  5  6  2  0
  6  7  1  0
  7  8  2  0
  8  9  1  0
  9 10  2  0
 10 11  1  0
  2 12  1  0
 12 13  1  0
 13 14  1  0
 14 15  1  0
 15 16  1  0
 16 17  1  0
 17 18  2  0
 18 19  1  0
 19 20  2  0
 20 21  1  0
 21 22  2  0
 22 23  1  0
 23 24  2  0
 24 25  1  0
 25 26  2  0
 20 27  1  0
 15 28  1  0
 10  5  1  0
 28 12  1  0
 27 17  1  0
 26 21  1  0
  4 29  1  0
  4 30  1  0
  6 31  1  0
  7 32  1  0
  8 33  1  0
  9 34  1  0
 13 35  1  0
 13 36  1  0
 14 37  1  0
 14 38  1  0
 15 39  1  0
 16 40  1  0
 16 41  1  0
 22 42  1  0
 23 43  1  0
 24 44  1  0
 26 45  1  0
 27 46  1  0
 28 47  1  0
 28 48  1  0
M  END
$$$$
