
     RDKit          3D

107112  0  0  0  0  0  0  0  0999 V2000
   -1.7739   -5.4146    2.2816 C   0  0  0  0  0  0  0  0  0  0  0  0
   -2.7338   -4.6427    1.5715 O   0  0  0  0  0  0  0  0  0  0  0  0
   -2.3308   -3.4065    1.1327 C   0  0  0  0  0  0  0  0  0  0  0  0
   -1.0007   -3.0580    0.9031 C   0  0  0  0  0  0  0  0  0  0  0  0
   -0.6583   -1.7630    0.4428 C   0  0  0  0  0  0  0  0  0  0  0  0
    0.6485   -1.3196    0.1979 C   0  0  0  0  0  0  0  0  0  0  0  0
    1.7117   -2.2277    0.3567 N   0  0  0  0  0  0  0  0  0  0  0  0
    3.1135   -1.7967    0.2567 C   0  0  0  0  0  0  0  0  0  0  0  0
    3.5255   -0.8230    1.3667 C   0  0  0  0  0  0  0  0  0  0  0  0
    4.7170    0.0455    0.9509 C   0  0  0  0  0  0  0  0  0  0  0  0
    5.6379   -0.7375    0.1253 N   0  0  0  0  0  0  0  0  0  0  0  0
    6.9579   -0.1130   -0.0440 C   0  0  0  0  0  0  0  0  0  0  0  0
    7.8254   -0.0989    1.2426 C   0  0  0  0  0  0  0  0  0  0  0  0
    7.9668   -1.4846    1.8890 C   0  0  0  0  0  0  0  0  0  0  0  0
    8.7812   -2.4626    1.0419 C   0  0  0  0  0  0  0  0  0  0  0  0
    9.9797   -1.8172    0.3466 C   0  0  0  0  0  0  0  0  0  0  0  0
   10.3684   -0.4878    0.9781 C   0  0  0  0  0  0  0  0  0  0  0  0
    9.2133    0.5171    0.9520 C   0  0  0  0  0  0  0  0  0  0  0  0
    5.0367   -1.0572   -1.1827 C   0  0  0  0  0  0  0  0  0  0  0  0
    3.5220   -1.3063   -1.1294 C   0  0  0  0  0  0  0  0  0  0  0  0
    0.9007   -0.0553   -0.1690 N   0  0  0  0  0  0  0  0  0  0  0  0
   -0.1191    0.7946   -0.3514 C   0  0  0  0  0  0  0  0  0  0  0  0
    0.1530    2.0913   -0.7720 N   0  0  0  0  0  0  0  0  0  0  0  0
    1.4827    2.6272   -0.5193 C   0  0  0  0  0  0  0  0  0  0  0  0
    1.4737    3.8013    0.4556 C   0  0  0  0  0  0  0  0  0  0  0  0
    1.2081    5.1457   -0.2344 C   0  0  0  0  0  0  0  0  0  0  0  0
   -0.1826    5.3733   -0.6492 N   0  0  0  0  0  0  0  0  0  0  0  0
   -0.4336    6.7321   -1.1857 C   0  0  0  0  0  0  0  0  0  0  0  0
   -0.3025    7.8024   -0.0934 C   0  0  0  0  0  0  0  0  0  0  0  0
    0.4136    7.1175   -2.4037 C   0  0  0  0  0  0  0  0  0  0  0  0
   -0.6852    4.3307   -1.5716 C   0  0  0  0  0  0  0  0  0  0  0  0
   -1.0011    2.9840   -0.8859 C   0  0  0  0  0  0  0  0  0  0  0  0
   -1.3960    0.4209   -0.1861 N   0  0  0  0  0  0  0  0  0  0  0  0
   -1.6615   -0.8233    0.2191 C   0  0  0  0  0  0  0  0  0  0  0  0
   -2.9884   -1.1934    0.4234 C   0  0  0  0  0  0  0  0  0  0  0  0
   -3.3415   -2.4685    0.8731 C   0  0  0  0  0  0  0  0  0  0  0  0
   -4.6182   -2.8929    1.1189 O   0  0  0  0  0  0  0  0  0  0  0  0
   -5.7343   -2.0889    0.7377 C   0  0  0  0  0  0  0  0  0  0  0  0
   -6.0840   -2.3236   -0.7299 C   0  0  0  0  0  0  0  0  0  0  0  0
   -7.3323   -1.5561   -1.1798 C   0  0  0  0  0  0  0  0  0  0  0  0
   -8.5525   -1.8648   -0.4184 N   0  0  0  0  0  0  0  0  0  0  0  0
   -8.9112   -3.2910   -0.4900 C   0  0  0  0  0  0  0  0  0  0  0  0
  -10.3664   -3.5457   -0.1038 C   0  0  0  0  0  0  0  0  0  0  0  0
  -11.3278   -2.8430   -1.0601 C   0  0  0  0  0  0  0  0  0  0  0  0
  -10.7042   -1.6033   -1.6976 C   0  0  0  0  0  0  0  0  0  0  0  0
   -9.6629   -0.9650   -0.7786 C   0  0  0  0  0  0  0  0  0  0  0  0
   -2.3015   -6.2493    2.7534 H   0  0  0  0  0  0  0  0  0  0  0  0
   -1.0337   -5.8358    1.5953 H   0  0  0  0  0  0  0  0  0  0  0  0
   -1.2933   -4.8328    3.0755 H   0  0  0  0  0  0  0  0  0  0  0  0
   -0.2054   -3.7732    1.0845 H   0  0  0  0  0  0  0  0  0  0  0  0
    1.5359   -3.0251   -0.2476 H   0  0  0  0  0  0  0  0  0  0  0  0
    3.6887   -2.7175    0.4312 H   0  0  0  0  0  0  0  0  0  0  0  0
    2.7082   -0.1661    1.6797 H   0  0  0  0  0  0  0  0  0  0  0  0
    3.7910   -1.4074    2.2575 H   0  0  0  0  0  0  0  0  0  0  0  0
    4.3747    0.9365    0.4104 H   0  0  0  0  0  0  0  0  0  0  0  0
    5.1918    0.4031    1.8708 H   0  0  0  0  0  0  0  0  0  0  0  0
    7.5095   -0.6579   -0.8202 H   0  0  0  0  0  0  0  0  0  0  0  0
    6.8397    0.9143   -0.4149 H   0  0  0  0  0  0  0  0  0  0  0  0
    7.3345    0.5603    1.9688 H   0  0  0  0  0  0  0  0  0  0  0  0
    8.4631   -1.3634    2.8608 H   0  0  0  0  0  0  0  0  0  0  0  0
    6.9879   -1.9217    2.1165 H   0  0  0  0  0  0  0  0  0  0  0  0
    9.1302   -3.2789    1.6894 H   0  0  0  0  0  0  0  0  0  0  0  0
    8.1375   -2.9305    0.2848 H   0  0  0  0  0  0  0  0  0  0  0  0
    9.7422   -1.6540   -0.7121 H   0  0  0  0  0  0  0  0  0  0  0  0
   10.8316   -2.5072    0.3651 H   0  0  0  0  0  0  0  0  0  0  0  0
   10.6826   -0.6606    2.0150 H   0  0  0  0  0  0  0  0  0  0  0  0
   11.2355   -0.0626    0.4591 H   0  0  0  0  0  0  0  0  0  0  0  0
    9.4227    1.2949    1.6967 H   0  0  0  0  0  0  0  0  0  0  0  0
    9.2065    1.0331   -0.0159 H   0  0  0  0  0  0  0  0  0  0  0  0
    5.5265   -1.9590   -1.5692 H   0  0  0  0  0  0  0  0  0  0  0  0
    5.2216   -0.2567   -1.9123 H   0  0  0  0  0  0  0  0  0  0  0  0
    3.2364   -2.0323   -1.9001 H   0  0  0  0  0  0  0  0  0  0  0  0
    3.0120   -0.3695   -1.3798 H   0  0  0  0  0  0  0  0  0  0  0  0
    2.1652    1.8749   -0.1083 H   0  0  0  0  0  0  0  0  0  0  0  0
    1.9319    2.9243   -1.4764 H   0  0  0  0  0  0  0  0  0  0  0  0
    2.4727    3.8670    0.9093 H   0  0  0  0  0  0  0  0  0  0  0  0
    0.7691    3.6400    1.2830 H   0  0  0  0  0  0  0  0  0  0  0  0
    1.4945    5.9158    0.4915 H   0  0  0  0  0  0  0  0  0  0  0  0
    1.8931    5.2450   -1.0850 H   0  0  0  0  0  0  0  0  0  0  0  0
   -1.4855    6.7758   -1.4966 H   0  0  0  0  0  0  0  0  0  0  0  0
   -0.8791    7.5276    0.7970 H   0  0  0  0  0  0  0  0  0  0  0  0
   -0.6959    8.7601   -0.4515 H   0  0  0  0  0  0  0  0  0  0  0  0
    0.7383    7.9692    0.2041 H   0  0  0  0  0  0  0  0  0  0  0  0
    0.0772    8.0786   -2.8107 H   0  0  0  0  0  0  0  0  0  0  0  0
    0.3277    6.3809   -3.2079 H   0  0  0  0  0  0  0  0  0  0  0  0
    1.4742    7.2260   -2.1496 H   0  0  0  0  0  0  0  0  0  0  0  0
   -0.0127    4.1885   -2.4257 H   0  0  0  0  0  0  0  0  0  0  0  0
   -1.6431    4.6728   -1.9848 H   0  0  0  0  0  0  0  0  0  0  0  0
   -1.4514    3.1639    0.1008 H   0  0  0  0  0  0  0  0  0  0  0  0
   -1.7687    2.4995   -1.5044 H   0  0  0  0  0  0  0  0  0  0  0  0
   -3.7395   -0.4373    0.2255 H   0  0  0  0  0  0  0  0  0  0  0  0
   -5.5884   -1.0319    0.9765 H   0  0  0  0  0  0  0  0  0  0  0  0
   -6.5642   -2.4197    1.3708 H   0  0  0  0  0  0  0  0  0  0  0  0
   -6.1966   -3.3991   -0.9149 H   0  0  0  0  0  0  0  0  0  0  0  0
   -5.2400   -2.0160   -1.3603 H   0  0  0  0  0  0  0  0  0  0  0  0
   -7.1062   -0.4869   -1.0782 H   0  0  0  0  0  0  0  0  0  0  0  0
   -7.4968   -1.7425   -2.2485 H   0  0  0  0  0  0  0  0  0  0  0  0
   -8.7433   -3.6887   -1.4990 H   0  0  0  0  0  0  0  0  0  0  0  0
   -8.2697   -3.8601    0.1907 H   0  0  0  0  0  0  0  0  0  0  0  0
  -10.5404   -3.1836    0.9194 H   0  0  0  0  0  0  0  0  0  0  0  0
  -10.5750   -4.6232   -0.0917 H   0  0  0  0  0  0  0  0  0  0  0  0
  -11.6417   -3.5330   -1.8523 H   0  0  0  0  0  0  0  0  0  0  0  0
  -12.2371   -2.5680   -0.5129 H   0  0  0  0  0  0  0  0  0  0  0  0
  -11.4912   -0.8789   -1.9417 H   0  0  0  0  0  0  0  0  0  0  0  0
  -10.2292   -1.8778   -2.6480 H   0  0  0  0  0  0  0  0  0  0  0  0
   -9.3001   -0.0318   -1.2282 H   0  0  0  0  0  0  0  0  0  0  0  0
  -10.1590   -0.6639    0.1529 H   0  0  0  0  0  0  0  0  0  0  0  0
  1  2  1  0
  2  3  1  0
  3  4  2  0
  4  5  1  0
  5  6  2  0
  6  7  1  0
  7  8  1  0
  8  9  1  0
  9 10  1  0
 10 11  1  0
 11 12  1  0
 12 13  1  0
 13 14  1  0
 14 15  1  0
 15 16  1  0
 16 17  1  0
 17 18  1  0
 11 19  1  0
 19 20  1  0
  6 21  1  0
 21 22  2  0
 22 23  1  0
 23 24  1  0
 24 25  1  0
 25 26  1  0
 26 27  1  0
 27 28  1  0
 28 29  1  0
 28 30  1  0
 27 31  1  0
 31 32  1  0
 22 33  1  0
 33 34  2  0
 34 35  1  0
 35 36  2  0
 36 37  1  0
 37 38  1  0
 38 39  1  0
 39 40  1  0
 40 41  1  0
 41 42  1  0
 42 43  1  0
 43 44  1  0
 44 45  1  0
 45 46  1  0
 36  3  1  0
 46 41  1  0
 34  5  1  0
 20  8  1  0
 32 23  1  0
 18 13  1  0
  1 47  1  0
  1 48  1  0
  1 49  1  0
  4 50  1  0
  7 51  1  0
  8 52  1  0
  9 53  1  0
  9 54  1  0
 10 55  1  0
 10 56  1  0
 12 57  1  0
 12 58  1  0
 13 59  1  0
 14 60  1  0
 14 61  1  0
 15 62  1  0
 15 63  1  0
 16 64  1  0
 16 65  1  0
 17 66  1  0
 17 67  1  0
 18 68  1  0
 18 69  1  0
 19 70  1  0
 19 71  1  0
 20 72  1  0
 20 73  1  0
 24 74  1  0
 24 75  1  0
 25 76  1  0
 25 77  1  0
 26 78  1  0
 26 79  1  0
 28 80  1  0
 29 81  1  0
 29 82  1  0
 29 83  1  0
 30 84  1  0
 30 85  1  0
 30 86  1  0
 31 87  1  0
 31 88  1  0
 32 89  1  0
 32 90  1  0
 35 91  1  0
 38 92  1  0
 38 93  1  0
 39 94  1  0
 39 95  1  0
 40 96  1  0
 40 97  1  0
 42 98  1  0
 42 99  1  0
 43100  1  0
 43101  1  0
 44102  1  0
 44103  1  0
 45104  1  0
 45105  1  0
 46106  1  0
 46107  1  0
M  END
$$$$
