
     RDKit          3D

 65 67  0  0  0  0  0  0  0  0999 V2000
    7.7948   -1.2015    2.2806 C   0  0  0  0  0  0  0  0  0  0  0  0
    7.6477    0.2707    1.9304 C   0  0  0  0  0  0  0  0  0  0  0  0
    7.1331    0.5114    0.5092 C   0  0  0  0  0  0  0  0  0  0  0  0
    5.7017    0.0138    0.2918 C   0  0  0  0  0  0  0  0  0  0  0  0
    5.1970    0.3758   -1.1080 C   0  0  0  0  0  0  0  0  0  0  0  0
    3.8192   -0.2089   -1.4297 C   0  0  0  0  0  0  0  0  0  0  0  0
    2.7093    0.3106   -0.5177 C   0  0  0  0  0  0  0  0  0  0  0  0
    1.3352   -0.1633   -0.9549 C   0  0  0  0  0  0  0  0  0  0  0  0
    1.1389   -0.8814   -1.9277 O   0  0  0  0  0  0  0  0  0  0  0  0
    0.3307    0.3128   -0.1413 N   0  0  0  0  0  0  0  0  0  0  0  0
   -1.0590   -0.1629   -0.2591 C   0  0  2  0  0  0  0  0  0  0  0  0
   -1.7521    0.2528   -1.5896 C   0  0  0  0  0  0  0  0  0  0  0  0
   -2.1279    1.6767   -1.6958 N   0  0  0  0  0  0  0  0  0  0  0  0
   -0.9759    2.5685   -1.8524 C   0  0  0  0  0  0  0  0  0  0  0  0
   -1.5916    3.8536   -2.3905 C   0  0  0  0  0  0  0  0  0  0  0  0
   -2.9120    3.4336   -3.0228 C   0  0  0  0  0  0  0  0  0  0  0  0
   -2.9457    1.9207   -2.8888 C   0  0  0  0  0  0  0  0  0  0  0  0
   -1.8716    0.2915    0.9862 C   0  0  2  0  0  0  0  0  0  0  0  0
   -1.0849    0.0360    2.1708 O   0  0  0  0  0  0  0  0  0  0  0  0
   -3.2151   -0.3936    1.1308 C   0  0  0  0  0  0  0  0  0  0  0  0
   -4.3989    0.3179    0.8806 C   0  0  0  0  0  0  0  0  0  0  0  0
   -5.6429   -0.3068    0.9975 C   0  0  0  0  0  0  0  0  0  0  0  0
   -5.7155   -1.6483    1.3607 C   0  0  0  0  0  0  0  0  0  0  0  0
   -4.5461   -2.3625    1.6336 C   0  0  0  0  0  0  0  0  0  0  0  0
   -3.3027   -1.7452    1.5025 C   0  0  0  0  0  0  0  0  0  0  0  0
   -4.5415   -3.6760    2.0267 O   0  0  0  0  0  0  0  0  0  0  0  0
   -5.8438   -4.1013    2.4446 C   0  0  0  0  0  0  0  0  0  0  0  0
   -6.9044   -3.6309    1.4629 C   0  0  0  0  0  0  0  0  0  0  0  0
   -6.9685   -2.2007    1.4351 O   0  0  0  0  0  0  0  0  0  0  0  0
    8.2595   -1.3075    3.2653 H   0  0  0  0  0  0  0  0  0  0  0  0
    6.8233   -1.7037    2.3180 H   0  0  0  0  0  0  0  0  0  0  0  0
    8.4247   -1.7182    1.5505 H   0  0  0  0  0  0  0  0  0  0  0  0
    6.9826    0.7530    2.6564 H   0  0  0  0  0  0  0  0  0  0  0  0
    8.6275    0.7516    2.0309 H   0  0  0  0  0  0  0  0  0  0  0  0
    7.8064    0.0297   -0.2112 H   0  0  0  0  0  0  0  0  0  0  0  0
    7.1726    1.5891    0.3071 H   0  0  0  0  0  0  0  0  0  0  0  0
    5.6585   -1.0739    0.4204 H   0  0  0  0  0  0  0  0  0  0  0  0
    5.0491    0.4605    1.0510 H   0  0  0  0  0  0  0  0  0  0  0  0
    5.1651    1.4668   -1.2189 H   0  0  0  0  0  0  0  0  0  0  0  0
    5.9084    0.0023   -1.8549 H   0  0  0  0  0  0  0  0  0  0  0  0
    3.5794    0.0349   -2.4730 H   0  0  0  0  0  0  0  0  0  0  0  0
    3.8613   -1.3040   -1.3712 H   0  0  0  0  0  0  0  0  0  0  0  0
    2.7068    1.4066   -0.5162 H   0  0  0  0  0  0  0  0  0  0  0  0
    2.8698   -0.0371    0.5080 H   0  0  0  0  0  0  0  0  0  0  0  0
    0.5933    0.5691    0.8054 H   0  0  0  0  0  0  0  0  0  0  0  0
   -0.9812   -1.2587   -0.2529 H   0  0  0  0  0  0  0  0  0  0  0  0
   -2.6714   -0.3423   -1.6698 H   0  0  0  0  0  0  0  0  0  0  0  0
   -1.1367   -0.0395   -2.4487 H   0  0  0  0  0  0  0  0  0  0  0  0
   -0.2521    2.1775   -2.5782 H   0  0  0  0  0  0  0  0  0  0  0  0
   -0.4612    2.7560   -0.9060 H   0  0  0  0  0  0  0  0  0  0  0  0
   -0.9309    4.3342   -3.1194 H   0  0  0  0  0  0  0  0  0  0  0  0
   -1.7754    4.5701   -1.5816 H   0  0  0  0  0  0  0  0  0  0  0  0
   -3.7466    3.8896   -2.4789 H   0  0  0  0  0  0  0  0  0  0  0  0
   -2.9807    3.7483   -4.0680 H   0  0  0  0  0  0  0  0  0  0  0  0
   -3.9692    1.5513   -2.7674 H   0  0  0  0  0  0  0  0  0  0  0  0
   -2.5089    1.4567   -3.7831 H   0  0  0  0  0  0  0  0  0  0  0  0
   -2.0056    1.3795    0.9726 H   0  0  0  0  0  0  0  0  0  0  0  0
   -1.7104    0.0047    2.9176 H   0  0  0  0  0  0  0  0  0  0  0  0
   -4.3585    1.3624    0.5749 H   0  0  0  0  0  0  0  0  0  0  0  0
   -6.5532    0.2491    0.7907 H   0  0  0  0  0  0  0  0  0  0  0  0
   -2.4010   -2.3209    1.7023 H   0  0  0  0  0  0  0  0  0  0  0  0
   -5.8343   -5.1951    2.4962 H   0  0  0  0  0  0  0  0  0  0  0  0
   -6.0303   -3.7126    3.4539 H   0  0  0  0  0  0  0  0  0  0  0  0
   -7.8890   -4.0008    1.7651 H   0  0  0  0  0  0  0  0  0  0  0  0
   -6.6995   -3.9918    0.4475 H   0  0  0  0  0  0  0  0  0  0  0  0
  1  2  1  0
  2  3  1  0
  3  4  1  0
  4  5  1  0
  5  6  1  0
  6  7  1  0
  7  8  1  0
  8  9  2  0
  8 10  1  0
 10 11  1  0
 11 12  1  0
 12 13  1  0
 13 14  1  0
 14 15  1  0
 15 16  1  0
 16 17  1  0
 11 18  1  0
 18 19  1  0
 18 20  1  0
 20 21  2  0
 21 22  1  0
 22 23  2  0
 23 24  1  0
 24 25  2  0
 24 26  1  0
 26 27  1  0
 27 28  1  0
 28 29  1  0
 17 13  1  0
 25 20  1  0
 29 23  1  0
  1 30  1  0
  1 31  1  0
  1 32  1  0
  2 33  1  0
  2 34  1  0
  3 35  1  0
  3 36  1  0
  4 37  1  0
  4 38  1  0
  5 39  1  0
  5 40  1  0
  6 41  1  0
  6 42  1  0
  7 43  1  0
  7 44  1  0
 10 45  1  0
 11 46  1  6
 12 47  1  0
 12 48  1  0
 14 49  1  0
 14 50  1  0
 15 51  1  0
 15 52  1  0
 16 53  1  0
 16 54  1  0
 17 55  1  0
 17 56  1  0
 18 57  1  6
 19 58  1  0
 21 59  1  0
 22 60  1  0
 25 61  1  0
 27 62  1  0
 27 63  1  0
 28 64  1  0
 28 65  1  0
M  END
$$$$
