
     RDKit          3D

 65 69  0  0  0  0  0  0  0  0999 V2000
   -3.3292    0.7585    2.9559 C   0  0  0  0  0  0  0  0  0  0  0  0
   -3.6761   -0.6939    3.2414 C   0  0  0  0  0  0  0  0  0  0  0  0
   -2.8772   -1.7112    2.4224 C   0  0  0  0  0  0  0  0  0  0  0  0
   -3.1800   -1.7049    0.9265 C   0  0  0  0  0  0  0  0  0  0  0  0
   -2.5771   -2.8456    0.3225 O   0  0  0  0  0  0  0  0  0  0  0  0
   -1.8833   -2.3899   -0.8380 C   0  0  2  0  0  0  0  0  0  0  0  0
   -0.3605   -2.4955   -0.6112 C   0  0  0  0  0  0  0  0  0  0  0  0
    0.0693   -1.0527   -0.3493 C   0  0  1  0  0  0  0  0  0  0  0  0
    1.5570   -0.6881   -0.4521 C   0  0  2  0  0  0  0  0  0  0  0  0
    2.3992   -1.5981    0.4609 C   0  0  0  0  0  0  0  0  0  0  0  0
    3.8649   -1.1833    0.5039 C   0  0  0  0  0  0  0  0  0  0  0  0
    3.9827    0.2715    0.8790 C   0  0  0  0  0  0  0  0  0  0  0  0
    4.6611    0.6369    1.9814 C   0  0  0  0  0  0  0  0  0  0  0  0
    4.7449    2.0465    2.4135 C   0  0  0  0  0  0  0  0  0  0  0  0
    5.3613    2.3696    3.4207 O   0  0  0  0  0  0  0  0  0  0  0  0
    4.0471    3.0488    1.5875 C   0  0  0  0  0  0  0  0  0  0  0  0
    3.3716    2.6871    0.4887 C   0  0  0  0  0  0  0  0  0  0  0  0
    3.2436    1.2606   -0.0361 C   0  0  1  0  0  0  0  0  0  0  0  0
    3.9334    1.2460   -1.4188 C   0  0  0  0  0  0  0  0  0  0  0  0
    1.7283    0.8218   -0.0616 C   0  0  1  0  0  0  0  0  0  0  0  0
    0.7666    1.7460   -0.8675 C   0  0  1  0  0  0  0  0  0  0  0  0
    1.2179    1.9123   -2.2038 O   0  0  0  0  0  0  0  0  0  0  0  0
   -0.6971    1.2508   -0.8820 C   0  0  0  0  0  0  0  0  0  0  0  0
   -0.8394   -0.2293   -1.2937 C   0  0  1  0  0  0  0  0  0  0  0  0
   -0.4924   -0.4180   -2.7947 C   0  0  0  0  0  0  0  0  0  0  0  0
   -2.2135   -0.8958   -0.9824 C   0  0  1  0  0  0  0  0  0  0  0  0
   -3.3032   -0.6279   -2.0290 C   0  0  0  0  0  0  0  0  0  0  0  0
   -3.4822   -1.3531   -3.0123 O   0  0  0  0  0  0  0  0  0  0  0  0
   -4.1783    0.6023   -1.8202 C   0  0  0  0  0  0  0  0  0  0  0  0
   -4.8754    0.9513   -3.0080 O   0  0  0  0  0  0  0  0  0  0  0  0
   -2.6847   -0.5170    0.3129 O   0  0  0  0  0  0  0  0  0  0  0  0
   -3.8076    1.4089    3.6955 H   0  0  0  0  0  0  0  0  0  0  0  0
   -2.2486    0.9258    3.0067 H   0  0  0  0  0  0  0  0  0  0  0  0
   -3.6869    1.0713    1.9712 H   0  0  0  0  0  0  0  0  0  0  0  0
   -4.7498   -0.8503    3.0849 H   0  0  0  0  0  0  0  0  0  0  0  0
   -3.4826   -0.8883    4.3034 H   0  0  0  0  0  0  0  0  0  0  0  0
   -3.0837   -2.7134    2.8191 H   0  0  0  0  0  0  0  0  0  0  0  0
   -1.8050   -1.5384    2.5805 H   0  0  0  0  0  0  0  0  0  0  0  0
   -4.2608   -1.7644    0.7532 H   0  0  0  0  0  0  0  0  0  0  0  0
   -2.1761   -3.0170   -1.6854 H   0  0  0  0  0  0  0  0  0  0  0  0
   -0.1104   -3.1542    0.2267 H   0  0  0  0  0  0  0  0  0  0  0  0
    0.1319   -2.8818   -1.5105 H   0  0  0  0  0  0  0  0  0  0  0  0
   -0.2198   -0.8360    0.6919 H   0  0  0  0  0  0  0  0  0  0  0  0
    1.9044   -0.8448   -1.4782 H   0  0  0  0  0  0  0  0  0  0  0  0
    1.9894   -1.5827    1.4798 H   0  0  0  0  0  0  0  0  0  0  0  0
    2.3388   -2.6363    0.1136 H   0  0  0  0  0  0  0  0  0  0  0  0
    4.3938   -1.8240    1.2199 H   0  0  0  0  0  0  0  0  0  0  0  0
    4.3373   -1.3584   -0.4692 H   0  0  0  0  0  0  0  0  0  0  0  0
    5.1670   -0.0747    2.6237 H   0  0  0  0  0  0  0  0  0  0  0  0
    4.1255    4.0793    1.9114 H   0  0  0  0  0  0  0  0  0  0  0  0
    2.9066    3.4750   -0.0999 H   0  0  0  0  0  0  0  0  0  0  0  0
    3.7285    0.3311   -1.9825 H   0  0  0  0  0  0  0  0  0  0  0  0
    5.0241    1.3215   -1.3158 H   0  0  0  0  0  0  0  0  0  0  0  0
    3.6293    2.0907   -2.0460 H   0  0  0  0  0  0  0  0  0  0  0  0
    1.3736    0.8987    0.9809 H   0  0  0  0  0  0  0  0  0  0  0  0
    0.7652    2.7427   -0.4122 H   0  0  0  0  0  0  0  0  0  0  0  0
    0.6417    2.5660   -2.6380 H   0  0  0  0  0  0  0  0  0  0  0  0
   -1.1076    1.4008    0.1242 H   0  0  0  0  0  0  0  0  0  0  0  0
   -1.2865    1.8774   -1.5616 H   0  0  0  0  0  0  0  0  0  0  0  0
   -0.7110   -1.4305   -3.1499 H   0  0  0  0  0  0  0  0  0  0  0  0
   -1.0754    0.2731   -3.4144 H   0  0  0  0  0  0  0  0  0  0  0  0
    0.5601   -0.2404   -3.0214 H   0  0  0  0  0  0  0  0  0  0  0  0
   -4.9107    0.3878   -1.0372 H   0  0  0  0  0  0  0  0  0  0  0  0
   -3.5675    1.4575   -1.5275 H   0  0  0  0  0  0  0  0  0  0  0  0
   -5.0264    0.1149   -3.4932 H   0  0  0  0  0  0  0  0  0  0  0  0
  1  2  1  0
  2  3  1  0
  3  4  1  0
  4  5  1  0
  5  6  1  0
  6  7  1  0
  7  8  1  0
  8  9  1  0
  9 10  1  0
 10 11  1  0
 11 12  1  0
 12 13  2  0
 13 14  1  0
 14 15  2  0
 14 16  1  0
 16 17  2  0
 17 18  1  0
 18 19  1  6
 18 20  1  0
 20 21  1  0
 21 22  1  0
 21 23  1  0
 23 24  1  0
 24 25  1  6
 24 26  1  0
 26 27  1  6
 27 28  2  0
 27 29  1  0
 29 30  1  0
 26 31  1  0
 31  4  1  0
 26  6  1  0
 24  8  1  0
 20  9  1  0
 18 12  1  0
  1 32  1  0
  1 33  1  0
  1 34  1  0
  2 35  1  0
  2 36  1  0
  3 37  1  0
  3 38  1  0
  4 39  1  0
  6 40  1  6
  7 41  1  0
  7 42  1  0
  8 43  1  1
  9 44  1  6
 10 45  1  0
 10 46  1  0
 11 47  1  0
 11 48  1  0
 13 49  1  0
 16 50  1  0
 17 51  1  0
 19 52  1  0
 19 53  1  0
 19 54  1  0
 20 55  1  1
 21 56  1  1
 22 57  1  0
 23 58  1  0
 23 59  1  0
 25 60  1  0
 25 61  1  0
 25 62  1  0
 29 63  1  0
 29 64  1  0
 30 65  1  0
M  END
$$$$
