
     RDKit          3D

 51 51  0  0  0  0  0  0  0  0999 V2000
    0.6906    0.0000    0.0000 Cl  0  0  0  0  0  0  0  0  0  0  0  0
    0.6870    0.0000    0.0000 Cl  0  0  0  0  0  0  0  0  0  0  0  0
   -3.7011   -2.2728   -0.7783 O   0  0  0  0  0  0  0  0  0  0  0  0
   -3.0355   -0.9707   -1.2484 S   0  0  0  0  0  6  0  0  0  0  0  0
   -3.5779   -0.7250   -2.6286 O   0  0  0  0  0  0  0  0  0  0  0  0
   -1.3660   -1.2644   -1.2550 N   0  0  0  0  0  0  0  0  0  0  0  0
   -0.8140   -1.6566    0.0107 C   0  0  0  0  0  0  0  0  0  0  0  0
    0.6733   -1.8874   -0.1862 C   0  0  0  0  0  0  0  0  0  0  0  0
    1.3383   -2.2458    1.0051 N   0  0  0  0  0  0  0  0  0  0  0  0
    2.6651   -2.6428    0.8889 C   0  0  0  0  0  0  0  0  0  0  0  0
    3.7248   -1.7156    0.5486 C   0  0  0  0  0  0  0  0  0  0  0  0
    3.7108   -0.4366    0.3322 C   0  0  0  0  0  0  0  0  0  0  0  0
    4.8740    0.3826   -0.0119 C   0  0  0  0  0  0  0  0  0  0  0  0
    6.1552   -0.1313   -0.1165 C   0  0  0  0  0  0  0  0  0  0  0  0
    7.1716    0.7475   -0.4761 C   0  0  0  0  0  0  0  0  0  0  0  0
    6.9459    2.0770   -0.7231 C   0  0  0  0  0  0  0  0  0  0  0  0
    8.3487    3.2772   -1.2212 Br  0  0  0  0  0  0  0  0  0  0  0  0
    5.6664    2.5916   -0.6173 C   0  0  0  0  0  0  0  0  0  0  0  0
    4.6736    1.7224   -0.2646 C   0  0  0  0  0  0  0  0  0  0  0  0
   -3.4886    0.3349   -0.2257 C   0  0  0  0  0  0  0  0  0  0  0  0
   -2.6168    1.1683    0.4325 C   0  0  0  0  0  0  0  0  0  0  0  0
   -3.0859    2.2088    1.2420 C   0  0  0  0  0  0  0  0  0  0  0  0
   -4.4242    2.4366    1.4060 C   0  0  0  0  0  0  0  0  0  0  0  0
   -5.2933    1.6034    0.7434 C   0  0  0  0  0  0  0  0  0  0  0  0
   -6.6692    1.8271    0.8993 C   0  0  0  0  0  0  0  0  0  0  0  0
   -7.5493    1.0410    0.2708 N   0  0  0  0  0  0  0  0  0  0  0  0
   -7.1635    0.0313   -0.5167 C   0  0  0  0  0  0  0  0  0  0  0  0
   -5.7988   -0.2098   -0.6860 C   0  0  0  0  0  0  0  0  0  0  0  0
   -4.8687    0.5654   -0.0643 C   0  0  0  0  0  0  0  0  0  0  0  0
   -0.6906    0.0000    0.0000 H   0  0  0  0  0  0  0  0  0  0  0  0
   -0.6870    0.0000    0.0000 H   0  0  0  0  0  0  0  0  0  0  0  0
   -0.7946   -0.5276   -1.7284 H   0  0  0  0  0  0  0  0  0  0  0  0
   -1.2276   -2.7121    0.2321 H   0  0  0  0  0  0  0  0  0  0  0  0
   -1.0618   -1.0579    0.8806 H   0  0  0  0  0  0  0  0  0  0  0  0
    0.7213   -2.7983   -0.8661 H   0  0  0  0  0  0  0  0  0  0  0  0
    1.1344   -1.0635   -0.7141 H   0  0  0  0  0  0  0  0  0  0  0  0
    0.9807   -1.8649    1.8765 H   0  0  0  0  0  0  0  0  0  0  0  0
    2.7033   -3.4625    0.0842 H   0  0  0  0  0  0  0  0  0  0  0  0
    2.9628   -3.2346    1.8058 H   0  0  0  0  0  0  0  0  0  0  0  0
    4.7276   -2.1906    0.4631 H   0  0  0  0  0  0  0  0  0  0  0  0
    2.7591    0.0553    0.4380 H   0  0  0  0  0  0  0  0  0  0  0  0
    6.3643   -1.1757    0.0722 H   0  0  0  0  0  0  0  0  0  0  0  0
    8.1905    0.3339   -0.5502 H   0  0  0  0  0  0  0  0  0  0  0  0
    5.4231    3.6130   -0.7937 H   0  0  0  0  0  0  0  0  0  0  0  0
    3.6683    2.1167   -0.1862 H   0  0  0  0  0  0  0  0  0  0  0  0
   -1.5620    1.0212    0.2920 H   0  0  0  0  0  0  0  0  0  0  0  0
   -2.3452    2.8222    1.7322 H   0  0  0  0  0  0  0  0  0  0  0  0
   -4.8017    3.2488    2.0423 H   0  0  0  0  0  0  0  0  0  0  0  0
   -6.9591    2.6503    1.5434 H   0  0  0  0  0  0  0  0  0  0  0  0
   -7.8923   -0.6101   -1.0287 H   0  0  0  0  0  0  0  0  0  0  0  0
   -5.4861   -1.0199   -1.3293 H   0  0  0  0  0  0  0  0  0  0  0  0
  3  4  2  0
  4  5  2  0
  4  6  1  0
  6  7  1  0
  7  8  1  0
  8  9  1  0
  9 10  1  0
 10 11  1  0
 11 12  2  0
 12 13  1  0
 13 14  2  0
 14 15  1  0
 15 16  2  0
 16 17  1  0
 16 18  1  0
 18 19  2  0
  4 20  1  0
 20 21  2  0
 21 22  1  0
 22 23  2  0
 23 24  1  0
 24 25  2  0
 25 26  1  0
 26 27  2  0
 27 28  1  0
 28 29  2  0
 19 13  1  0
 29 20  1  0
 29 24  1  0
  1 30  1  0
  2 31  1  0
  6 32  1  0
  7 33  1  0
  7 34  1  0
  8 35  1  0
  8 36  1  0
  9 37  1  0
 10 38  1  0
 10 39  1  0
 11 40  1  0
 12 41  1  0
 14 42  1  0
 15 43  1  0
 18 44  1  0
 19 45  1  0
 21 46  1  0
 22 47  1  0
 23 48  1  0
 25 49  1  0
 27 50  1  0
 28 51  1  0
M  END
$$$$
