
     RDKit          3D

 42 44  0  0  0  0  0  0  0  0999 V2000
   -3.4140    3.4584    1.1101 C   0  0  0  0  0  0  0  0  0  0  0  0
   -4.2157    2.3031    0.9089 O   0  0  0  0  0  0  0  0  0  0  0  0
   -3.5917    1.1669    0.4613 C   0  0  0  0  0  0  0  0  0  0  0  0
   -2.2058    0.9777    0.4326 C   0  0  0  0  0  0  0  0  0  0  0  0
   -1.6473   -0.2241   -0.0404 C   0  0  0  0  0  0  0  0  0  0  0  0
   -0.1934   -0.4743   -0.0909 C   0  0  0  0  0  0  0  0  0  0  0  0
    0.3496   -1.6586   -0.3123 N   0  0  0  0  0  0  0  0  0  0  0  0
    1.7306   -1.6237   -0.3275 N   0  0  0  0  0  0  0  0  0  0  0  0
    2.1844   -0.4142   -0.1262 C   0  0  0  0  0  0  0  0  0  0  0  0
    3.4678    0.0578   -0.0622 N   0  0  0  0  0  0  0  0  0  0  0  0
    4.5509   -0.7583   -0.2939 C   0  0  0  0  0  0  0  0  0  0  0  0
    4.5260   -1.9385   -0.6171 O   0  0  0  0  0  0  0  0  0  0  0  0
    5.8763   -0.0930   -0.1709 C   0  0  0  0  0  0  0  0  0  0  0  0
    6.1155    0.9135    0.7663 C   0  0  0  0  0  0  0  0  0  0  0  0
    7.3820    1.4694    0.8050 C   0  0  0  0  0  0  0  0  0  0  0  0
    8.3908    1.0939   -0.0088 N   0  0  0  0  0  0  0  0  0  0  0  0
    8.1377    0.1009   -0.8884 C   0  0  0  0  0  0  0  0  0  0  0  0
    6.9098   -0.5214   -1.0047 C   0  0  0  0  0  0  0  0  0  0  0  0
    0.9843    0.7740    0.1064 S   0  0  0  0  0  0  0  0  0  0  0  0
   -2.5169   -1.2425   -0.4799 C   0  0  0  0  0  0  0  0  0  0  0  0
   -3.9040   -1.0774   -0.4572 C   0  0  0  0  0  0  0  0  0  0  0  0
   -4.8127   -2.0156   -0.8727 O   0  0  0  0  0  0  0  0  0  0  0  0
   -4.3059   -3.2034   -1.4669 C   0  0  0  0  0  0  0  0  0  0  0  0
   -4.4310    0.1264    0.0330 C   0  0  0  0  0  0  0  0  0  0  0  0
   -5.7942    0.3255    0.0215 O   0  0  0  0  0  0  0  0  0  0  0  0
   -6.3619   -0.1399    1.2447 C   0  0  0  0  0  0  0  0  0  0  0  0
   -2.8494    3.7155    0.2076 H   0  0  0  0  0  0  0  0  0  0  0  0
   -2.7482    3.3264    1.9690 H   0  0  0  0  0  0  0  0  0  0  0  0
   -4.0828    4.2950    1.3341 H   0  0  0  0  0  0  0  0  0  0  0  0
   -1.5530    1.7640    0.7937 H   0  0  0  0  0  0  0  0  0  0  0  0
    3.5760    1.0490    0.0818 H   0  0  0  0  0  0  0  0  0  0  0  0
    5.3647    1.2424    1.4740 H   0  0  0  0  0  0  0  0  0  0  0  0
    7.6324    2.2510    1.5174 H   0  0  0  0  0  0  0  0  0  0  0  0
    8.9762   -0.1906   -1.5151 H   0  0  0  0  0  0  0  0  0  0  0  0
    6.7606   -1.3195   -1.7254 H   0  0  0  0  0  0  0  0  0  0  0  0
   -2.0790   -2.1699   -0.8418 H   0  0  0  0  0  0  0  0  0  0  0  0
   -5.1604   -3.8089   -1.7842 H   0  0  0  0  0  0  0  0  0  0  0  0
   -3.7089   -2.9785   -2.3570 H   0  0  0  0  0  0  0  0  0  0  0  0
   -3.7330   -3.7915   -0.7426 H   0  0  0  0  0  0  0  0  0  0  0  0
   -7.4388    0.0497    1.2067 H   0  0  0  0  0  0  0  0  0  0  0  0
   -5.9544    0.4012    2.1057 H   0  0  0  0  0  0  0  0  0  0  0  0
   -6.2137   -1.2179    1.3706 H   0  0  0  0  0  0  0  0  0  0  0  0
  1  2  1  0
  2  3  1  0
  3  4  2  0
  4  5  1  0
  5  6  1  0
  6  7  2  0
  7  8  1  0
  8  9  2  0
  9 10  1  0
 10 11  1  0
 11 12  2  0
 11 13  1  0
 13 14  2  0
 14 15  1  0
 15 16  2  0
 16 17  1  0
 17 18  2  0
  9 19  1  0
  5 20  2  0
 20 21  1  0
 21 22  1  0
 22 23  1  0
 21 24  2  0
 24 25  1  0
 25 26  1  0
 24  3  1  0
 19  6  1  0
 18 13  1  0
  1 27  1  0
  1 28  1  0
  1 29  1  0
  4 30  1  0
 10 31  1  0
 14 32  1  0
 15 33  1  0
 17 34  1  0
 18 35  1  0
 20 36  1  0
 23 37  1  0
 23 38  1  0
 23 39  1  0
 26 40  1  0
 26 41  1  0
 26 42  1  0
M  END
$$$$
