
     RDKit          3D

 61 65  0  0  0  0  0  0  0  0999 V2000
   -2.9195    2.3297   -4.7707 C   0  0  0  0  0  0  0  0  0  0  0  0
   -2.5432    1.7552   -3.4276 C   0  0  0  0  0  0  0  0  0  0  0  0
   -3.6337    1.1086   -2.6405 C   0  0  0  0  0  0  0  0  0  0  0  0
   -3.3233    0.5766   -1.4402 C   0  0  0  0  0  0  0  0  0  0  0  0
   -4.2968   -0.0485   -0.6165 N   0  0  0  0  0  0  0  0  0  0  0  0
   -3.9309   -1.0317    0.4278 C   0  0  0  0  0  0  0  0  0  0  0  0
   -5.0984   -1.9708    0.7332 C   0  0  0  0  0  0  0  0  0  0  0  0
   -6.3391   -1.2151    1.2335 C   0  0  0  0  0  0  0  0  0  0  0  0
   -6.4432   -1.2426    2.7583 C   0  0  0  0  0  0  0  0  0  0  0  0
   -6.3622    0.2303    0.7199 C   0  0  0  0  0  0  0  0  0  0  0  0
   -5.7204    0.3416   -0.6594 C   0  0  0  0  0  0  0  0  0  0  0  0
   -1.9605    0.6879   -1.0257 N   0  0  0  0  0  0  0  0  0  0  0  0
   -1.3610    0.2949    0.1364 N   0  0  0  0  0  0  0  0  0  0  0  0
   -0.0960    0.6900   -0.0345 C   0  0  0  0  0  0  0  0  0  0  0  0
    0.9672    0.4836    1.0098 C   0  0  0  0  0  0  0  0  0  0  0  0
    1.9006   -0.6074    0.6491 N   0  0  0  0  0  0  0  0  0  0  0  0
    2.7543   -0.9816    1.7956 C   0  0  0  0  0  0  0  0  0  0  0  0
    4.1290   -0.2767    1.8741 C   0  0  0  0  0  0  0  0  0  0  0  0
    4.9055   -0.4777    0.6388 N   0  0  0  0  0  0  0  0  0  0  0  0
    6.2906   -0.4395    0.6453 C   0  0  0  0  0  0  0  0  0  0  0  0
    7.0052    0.2301    1.6544 C   0  0  0  0  0  0  0  0  0  0  0  0
    8.4051    0.2848    1.6669 C   0  0  0  0  0  0  0  0  0  0  0  0
    9.1350   -0.3360    0.6606 C   0  0  0  0  0  0  0  0  0  0  0  0
    8.4620   -1.0069   -0.3529 C   0  0  0  0  0  0  0  0  0  0  0  0
    7.0608   -1.0546   -0.3557 C   0  0  0  0  0  0  0  0  0  0  0  0
    4.1372   -0.8701   -0.5548 C   0  0  0  0  0  0  0  0  0  0  0  0
    2.7305   -0.2275   -0.5243 C   0  0  0  0  0  0  0  0  0  0  0  0
    0.1564    1.3423   -1.2101 N   0  0  0  0  0  0  0  0  0  0  0  0
   -1.0002    1.3245   -1.8334 C   0  0  0  0  0  0  0  0  0  0  0  0
   -1.3036    1.8468   -3.0551 N   0  0  0  0  0  0  0  0  0  0  0  0
   -2.4133    3.2887   -4.9151 H   0  0  0  0  0  0  0  0  0  0  0  0
   -2.6031    1.6388   -5.5575 H   0  0  0  0  0  0  0  0  0  0  0  0
   -3.9969    2.4946   -4.8438 H   0  0  0  0  0  0  0  0  0  0  0  0
   -4.6250    1.0732   -3.0696 H   0  0  0  0  0  0  0  0  0  0  0  0
   -3.6233   -0.5082    1.3410 H   0  0  0  0  0  0  0  0  0  0  0  0
   -3.0960   -1.6532    0.0819 H   0  0  0  0  0  0  0  0  0  0  0  0
   -5.3647   -2.5057   -0.1894 H   0  0  0  0  0  0  0  0  0  0  0  0
   -4.7876   -2.7375    1.4539 H   0  0  0  0  0  0  0  0  0  0  0  0
   -7.2211   -1.7366    0.8401 H   0  0  0  0  0  0  0  0  0  0  0  0
   -6.5213   -2.2733    3.1236 H   0  0  0  0  0  0  0  0  0  0  0  0
   -5.5658   -0.7838    3.2276 H   0  0  0  0  0  0  0  0  0  0  0  0
   -7.3334   -0.6994    3.0963 H   0  0  0  0  0  0  0  0  0  0  0  0
   -5.8313    0.8922    1.4169 H   0  0  0  0  0  0  0  0  0  0  0  0
   -7.3985    0.5865    0.6796 H   0  0  0  0  0  0  0  0  0  0  0  0
   -5.8212    1.3831   -0.9909 H   0  0  0  0  0  0  0  0  0  0  0  0
   -6.2513   -0.2891   -1.3843 H   0  0  0  0  0  0  0  0  0  0  0  0
    1.5016    1.4256    1.1855 H   0  0  0  0  0  0  0  0  0  0  0  0
    0.4579    0.2325    1.9494 H   0  0  0  0  0  0  0  0  0  0  0  0
    2.9369   -2.0622    1.7111 H   0  0  0  0  0  0  0  0  0  0  0  0
    2.2215   -0.8600    2.7482 H   0  0  0  0  0  0  0  0  0  0  0  0
    3.9878    0.7977    2.0482 H   0  0  0  0  0  0  0  0  0  0  0  0
    4.6584   -0.6974    2.7382 H   0  0  0  0  0  0  0  0  0  0  0  0
    6.4778    0.7505    2.4498 H   0  0  0  0  0  0  0  0  0  0  0  0
    8.9163    0.8193    2.4628 H   0  0  0  0  0  0  0  0  0  0  0  0
   10.2207   -0.2958    0.6638 H   0  0  0  0  0  0  0  0  0  0  0  0
    9.0219   -1.4971   -1.1462 H   0  0  0  0  0  0  0  0  0  0  0  0
    6.5833   -1.6077   -1.1592 H   0  0  0  0  0  0  0  0  0  0  0  0
    4.6311   -0.5289   -1.4715 H   0  0  0  0  0  0  0  0  0  0  0  0
    4.0533   -1.9627   -0.5982 H   0  0  0  0  0  0  0  0  0  0  0  0
    2.8793    0.8615   -0.5539 H   0  0  0  0  0  0  0  0  0  0  0  0
    2.1987   -0.5118   -1.4405 H   0  0  0  0  0  0  0  0  0  0  0  0
  1  2  1  0
  2  3  1  0
  3  4  2  0
  4  5  1  0
  5  6  1  0
  6  7  1  0
  7  8  1  0
  8  9  1  0
  8 10  1  0
 10 11  1  0
  4 12  1  0
 12 13  1  0
 13 14  2  0
 14 15  1  0
 15 16  1  0
 16 17  1  0
 17 18  1  0
 18 19  1  0
 19 20  1  0
 20 21  2  0
 21 22  1  0
 22 23  2  0
 23 24  1  0
 24 25  2  0
 19 26  1  0
 26 27  1  0
 14 28  1  0
 28 29  2  0
 29 30  1  0
 30  2  2  0
 11  5  1  0
 29 12  1  0
 27 16  1  0
 25 20  1  0
  1 31  1  0
  1 32  1  0
  1 33  1  0
  3 34  1  0
  6 35  1  0
  6 36  1  0
  7 37  1  0
  7 38  1  0
  8 39  1  0
  9 40  1  0
  9 41  1  0
  9 42  1  0
 10 43  1  0
 10 44  1  0
 11 45  1  0
 11 46  1  0
 15 47  1  0
 15 48  1  0
 17 49  1  0
 17 50  1  0
 18 51  1  0
 18 52  1  0
 21 53  1  0
 22 54  1  0
 23 55  1  0
 24 56  1  0
 25 57  1  0
 26 58  1  0
 26 59  1  0
 27 60  1  0
 27 61  1  0
M  END
$$$$
