
     RDKit          3D

 44 46  0  0  0  0  0  0  0  0999 V2000
    8.0627    0.9026    0.5903 C   0  0  0  0  0  0  0  0  0  0  0  0
    6.7277    1.3222    0.8442 O   0  0  0  0  0  0  0  0  0  0  0  0
    5.7255    0.5763    0.2870 C   0  0  0  0  0  0  0  0  0  0  0  0
    5.8951   -0.5598   -0.5095 C   0  0  0  0  0  0  0  0  0  0  0  0
    4.7805   -1.2313   -1.0177 C   0  0  0  0  0  0  0  0  0  0  0  0
    3.5064   -0.7565   -0.7220 C   0  0  0  0  0  0  0  0  0  0  0  0
    2.4103   -1.4583   -1.2492 O   0  0  0  0  0  0  0  0  0  0  0  0
    1.1012   -1.0578   -0.9993 C   0  0  0  0  0  0  0  0  0  0  0  0
    0.1557   -1.6955   -1.4580 O   0  0  0  0  0  0  0  0  0  0  0  0
    0.9017    0.1497   -0.1657 C   0  0  0  0  0  0  0  0  0  0  0  0
   -0.4518    0.6951    0.1708 C   0  0  0  0  0  0  0  0  0  0  0  0
   -0.5876    1.6432    0.9408 O   0  0  0  0  0  0  0  0  0  0  0  0
   -1.5182    0.0723   -0.4292 N   0  0  0  0  0  0  0  0  0  0  0  0
   -2.9047    0.3895   -0.0989 C   0  0  0  0  0  0  0  0  0  0  0  0
   -3.3006   -0.3400    1.1976 C   0  0  0  0  0  0  0  0  0  0  0  0
   -4.8106   -0.3931    1.3781 C   0  0  0  0  0  0  0  0  0  0  0  0
   -5.5040   -1.1278    0.2314 C   0  0  0  0  0  0  0  0  0  0  0  0
   -4.6642   -1.2030   -1.0440 C   0  0  0  0  0  0  0  0  0  0  0  0
   -3.8301    0.0589   -1.2991 C   0  0  0  0  0  0  0  0  0  0  0  0
   -4.7270    1.2530   -1.6480 C   0  0  0  0  0  0  0  0  0  0  0  0
    1.9576    0.8139    0.3353 C   0  0  0  0  0  0  0  0  0  0  0  0
    3.3145    0.3693    0.0663 C   0  0  0  0  0  0  0  0  0  0  0  0
    4.4327    1.0360    0.5712 C   0  0  0  0  0  0  0  0  0  0  0  0
    8.2459   -0.0976    0.9967 H   0  0  0  0  0  0  0  0  0  0  0  0
    8.7348    1.5982    1.1021 H   0  0  0  0  0  0  0  0  0  0  0  0
    8.2925    0.9437   -0.4796 H   0  0  0  0  0  0  0  0  0  0  0  0
    6.8791   -0.9473   -0.7524 H   0  0  0  0  0  0  0  0  0  0  0  0
    4.9076   -2.1149   -1.6368 H   0  0  0  0  0  0  0  0  0  0  0  0
   -1.3413   -0.7810   -0.9604 H   0  0  0  0  0  0  0  0  0  0  0  0
   -2.9431    1.4689    0.0973 H   0  0  0  0  0  0  0  0  0  0  0  0
   -2.8425    0.1633    2.0579 H   0  0  0  0  0  0  0  0  0  0  0  0
   -2.9006   -1.3629    1.1983 H   0  0  0  0  0  0  0  0  0  0  0  0
   -5.0601   -0.8784    2.3288 H   0  0  0  0  0  0  0  0  0  0  0  0
   -5.2007    0.6300    1.4457 H   0  0  0  0  0  0  0  0  0  0  0  0
   -6.4619   -0.6365    0.0217 H   0  0  0  0  0  0  0  0  0  0  0  0
   -5.7524   -2.1490    0.5455 H   0  0  0  0  0  0  0  0  0  0  0  0
   -3.9831   -2.0611   -0.9679 H   0  0  0  0  0  0  0  0  0  0  0  0
   -5.3174   -1.4128   -1.8995 H   0  0  0  0  0  0  0  0  0  0  0  0
   -3.2176   -0.1285   -2.1918 H   0  0  0  0  0  0  0  0  0  0  0  0
   -4.1185    2.1190   -1.9305 H   0  0  0  0  0  0  0  0  0  0  0  0
   -5.3626    1.5509   -0.8088 H   0  0  0  0  0  0  0  0  0  0  0  0
   -5.3769    1.0143   -2.4966 H   0  0  0  0  0  0  0  0  0  0  0  0
    1.8321    1.7010    0.9512 H   0  0  0  0  0  0  0  0  0  0  0  0
    4.3140    1.9216    1.1921 H   0  0  0  0  0  0  0  0  0  0  0  0
  1  2  1  0
  2  3  1  0
  3  4  2  0
  4  5  1  0
  5  6  2  0
  6  7  1  0
  7  8  1  0
  8  9  2  0
  8 10  1  0
 10 11  1  0
 11 12  2  0
 11 13  1  0
 13 14  1  0
 14 15  1  0
 15 16  1  0
 16 17  1  0
 17 18  1  0
 18 19  1  0
 19 20  1  0
 10 21  2  0
 21 22  1  0
 22 23  2  0
 23  3  1  0
 22  6  1  0
 19 14  1  0
  1 24  1  0
  1 25  1  0
  1 26  1  0
  4 27  1  0
  5 28  1  0
 13 29  1  0
 14 30  1  0
 15 31  1  0
 15 32  1  0
 16 33  1  0
 16 34  1  0
 17 35  1  0
 17 36  1  0
 18 37  1  0
 18 38  1  0
 19 39  1  0
 20 40  1  0
 20 41  1  0
 20 42  1  0
 21 43  1  0
 23 44  1  0
M  END
$$$$
