
     RDKit          3D

 51 54  0  0  0  0  0  0  0  0999 V2000
   -5.6325   -1.3724    1.5678 C   0  0  0  0  0  0  0  0  0  0  0  0
   -4.3678   -0.5792    1.4833 C   0  0  0  0  0  0  0  0  0  0  0  0
   -3.4820   -0.5538    0.4760 C   0  0  0  0  0  0  0  0  0  0  0  0
   -3.5588   -1.3190   -0.8238 C   0  0  0  0  0  0  0  0  0  0  0  0
   -4.5600   -1.8558   -1.2688 O   0  0  0  0  0  0  0  0  0  0  0  0
   -2.2281   -1.2741   -1.5375 C   0  0  0  0  0  0  0  0  0  0  0  0
   -1.3196   -0.8003   -0.4030 C   0  0  1  0  0  0  0  0  0  0  0  0
    0.0643   -0.2442   -0.7671 C   0  0  2  0  0  0  0  0  0  0  0  0
    0.8659   -1.2437   -1.6121 C   0  0  0  0  0  0  0  0  0  0  0  0
    2.2505   -0.7027   -1.9437 C   0  0  0  0  0  0  0  0  0  0  0  0
    3.0154   -0.3041   -0.7039 C   0  0  0  0  0  0  0  0  0  0  0  0
    4.2731   -0.7484   -0.5296 C   0  0  0  0  0  0  0  0  0  0  0  0
    5.1129   -0.2932    0.6018 C   0  0  0  0  0  0  0  0  0  0  0  0
    6.2425   -0.7551    0.7407 O   0  0  0  0  0  0  0  0  0  0  0  0
    4.5706    0.7928    1.4919 C   0  0  0  0  0  0  0  0  0  0  0  0
    3.0622    0.6548    1.6395 C   0  0  0  0  0  0  0  0  0  0  0  0
    2.2969    0.6256    0.2828 C   0  0  1  0  0  0  0  0  0  0  0  0
    2.2871    2.0497   -0.3173 C   0  0  0  0  0  0  0  0  0  0  0  0
    0.8384    0.0852    0.5473 C   0  0  1  0  0  0  0  0  0  0  0  0
    0.0014    0.9787    1.5009 C   0  0  0  0  0  0  0  0  0  0  0  0
   -1.4295    0.4625    1.7338 C   0  0  0  0  0  0  0  0  0  0  0  0
   -2.1682    0.2066    0.4096 C   0  0  2  0  0  0  0  0  0  0  0  0
   -2.4441    1.5478   -0.3114 C   0  0  0  0  0  0  0  0  0  0  0  0
   -6.4961   -0.7041    1.4992 H   0  0  0  0  0  0  0  0  0  0  0  0
   -5.6754   -1.8831    2.5354 H   0  0  0  0  0  0  0  0  0  0  0  0
   -5.7242   -2.1394    0.7977 H   0  0  0  0  0  0  0  0  0  0  0  0
   -4.1721    0.0359    2.3593 H   0  0  0  0  0  0  0  0  0  0  0  0
   -2.2727   -0.5692   -2.3717 H   0  0  0  0  0  0  0  0  0  0  0  0
   -1.9502   -2.2717   -1.8874 H   0  0  0  0  0  0  0  0  0  0  0  0
   -1.1431   -1.6882    0.2303 H   0  0  0  0  0  0  0  0  0  0  0  0
   -0.0613    0.6674   -1.3617 H   0  0  0  0  0  0  0  0  0  0  0  0
    0.3394   -1.4541   -2.5503 H   0  0  0  0  0  0  0  0  0  0  0  0
    0.9600   -2.1987   -1.0790 H   0  0  0  0  0  0  0  0  0  0  0  0
    2.7952   -1.4607   -2.5199 H   0  0  0  0  0  0  0  0  0  0  0  0
    2.1555    0.1718   -2.5992 H   0  0  0  0  0  0  0  0  0  0  0  0
    4.7651   -1.4152   -1.2298 H   0  0  0  0  0  0  0  0  0  0  0  0
    5.0379    0.6994    2.4784 H   0  0  0  0  0  0  0  0  0  0  0  0
    4.8507    1.7642    1.0726 H   0  0  0  0  0  0  0  0  0  0  0  0
    2.7000    1.4752    2.2705 H   0  0  0  0  0  0  0  0  0  0  0  0
    2.8606   -0.2737    2.1919 H   0  0  0  0  0  0  0  0  0  0  0  0
    1.6459    2.1229   -1.2011 H   0  0  0  0  0  0  0  0  0  0  0  0
    3.2912    2.3626   -0.6271 H   0  0  0  0  0  0  0  0  0  0  0  0
    1.9333    2.7905    0.4073 H   0  0  0  0  0  0  0  0  0  0  0  0
    0.9554   -0.8762    1.0740 H   0  0  0  0  0  0  0  0  0  0  0  0
   -0.0494    2.0018    1.1157 H   0  0  0  0  0  0  0  0  0  0  0  0
    0.4919    1.0436    2.4784 H   0  0  0  0  0  0  0  0  0  0  0  0
   -1.9754    1.1891    2.3484 H   0  0  0  0  0  0  0  0  0  0  0  0
   -1.3777   -0.4628    2.3230 H   0  0  0  0  0  0  0  0  0  0  0  0
   -2.9734    1.4141   -1.2615 H   0  0  0  0  0  0  0  0  0  0  0  0
   -3.0709    2.1958    0.3135 H   0  0  0  0  0  0  0  0  0  0  0  0
   -1.5307    2.1052   -0.5351 H   0  0  0  0  0  0  0  0  0  0  0  0
  1  2  1  0
  2  3  2  0
  3  4  1  0
  4  5  2  0
  4  6  1  0
  6  7  1  0
  7  8  1  0
  8  9  1  0
  9 10  1  0
 10 11  1  0
 11 12  2  0
 12 13  1  0
 13 14  2  0
 13 15  1  0
 15 16  1  0
 16 17  1  0
 17 18  1  6
 17 19  1  0
 19 20  1  0
 20 21  1  0
 21 22  1  0
 22 23  1  6
 22  3  1  0
 22  7  1  0
 19  8  1  0
 17 11  1  0
  1 24  1  0
  1 25  1  0
  1 26  1  0
  2 27  1  0
  6 28  1  0
  6 29  1  0
  7 30  1  1
  8 31  1  6
  9 32  1  0
  9 33  1  0
 10 34  1  0
 10 35  1  0
 12 36  1  0
 15 37  1  0
 15 38  1  0
 16 39  1  0
 16 40  1  0
 18 41  1  0
 18 42  1  0
 18 43  1  0
 19 44  1  1
 20 45  1  0
 20 46  1  0
 21 47  1  0
 21 48  1  0
 23 49  1  0
 23 50  1  0
 23 51  1  0
M  END
$$$$
