
     RDKit          3D

 35 38  0  0  0  0  0  0  0  0999 V2000
    8.2064    0.0382   -0.1647 C   0  0  0  0  0  0  0  0  0  0  0  0
    7.3637    1.4821   -0.8460 S   0  0  0  0  0  0  0  0  0  0  0  0
    5.6903    1.0507   -0.5605 C   0  0  0  0  0  0  0  0  0  0  0  0
    5.3478   -0.0755    0.0183 N   0  0  0  0  0  0  0  0  0  0  0  0
    3.9683   -0.1545    0.1058 C   0  0  0  0  0  0  0  0  0  0  0  0
    3.2305   -1.2138    0.6654 C   0  0  0  0  0  0  0  0  0  0  0  0
    1.8280   -1.1590    0.6867 C   0  0  0  0  0  0  0  0  0  0  0  0
    1.1428   -0.0678    0.1563 C   0  0  0  0  0  0  0  0  0  0  0  0
   -0.2648    0.0471    0.1328 N   0  0  0  0  0  0  0  0  0  0  0  0
   -1.2026   -0.8117    0.6952 C   0  0  0  0  0  0  0  0  0  0  0  0
   -0.9157   -1.7987    1.3666 O   0  0  0  0  0  0  0  0  0  0  0  0
   -2.5852   -0.4271    0.4369 C   0  0  0  0  0  0  0  0  0  0  0  0
   -3.1773    0.5353   -0.3677 C   0  0  0  0  0  0  0  0  0  0  0  0
   -4.5833    0.4211   -0.1967 C   0  0  0  0  0  0  0  0  0  0  0  0
   -5.7167    1.0757   -0.7110 C   0  0  0  0  0  0  0  0  0  0  0  0
   -6.9857    0.6545   -0.2863 C   0  0  0  0  0  0  0  0  0  0  0  0
   -7.1289   -0.3920    0.6288 C   0  0  0  0  0  0  0  0  0  0  0  0
   -6.0125   -1.0543    1.1501 C   0  0  0  0  0  0  0  0  0  0  0  0
   -4.7679   -0.6138    0.7081 C   0  0  0  0  0  0  0  0  0  0  0  0
   -3.5693   -1.1273    1.0894 O   0  0  0  0  0  0  0  0  0  0  0  0
    1.8665    0.9935   -0.4098 C   0  0  0  0  0  0  0  0  0  0  0  0
    3.2720    0.9326   -0.4204 C   0  0  0  0  0  0  0  0  0  0  0  0
    4.4033    2.0781   -1.0311 S   0  0  0  0  0  0  0  0  0  0  0  0
    9.2847    0.1595   -0.3000 H   0  0  0  0  0  0  0  0  0  0  0  0
    7.8977   -0.8727   -0.6852 H   0  0  0  0  0  0  0  0  0  0  0  0
    8.0020   -0.0635    0.9046 H   0  0  0  0  0  0  0  0  0  0  0  0
    3.7509   -2.0729    1.0788 H   0  0  0  0  0  0  0  0  0  0  0  0
    1.3075   -2.0056    1.1261 H   0  0  0  0  0  0  0  0  0  0  0  0
   -0.6254    0.8766   -0.3158 H   0  0  0  0  0  0  0  0  0  0  0  0
   -2.6743    1.2361   -1.0175 H   0  0  0  0  0  0  0  0  0  0  0  0
   -5.6195    1.8887   -1.4235 H   0  0  0  0  0  0  0  0  0  0  0  0
   -7.8723    1.1492   -0.6771 H   0  0  0  0  0  0  0  0  0  0  0  0
   -8.1249   -0.7000    0.9415 H   0  0  0  0  0  0  0  0  0  0  0  0
   -6.1030   -1.8687    1.8587 H   0  0  0  0  0  0  0  0  0  0  0  0
    1.3668    1.8598   -0.8313 H   0  0  0  0  0  0  0  0  0  0  0  0
  1  2  1  0
  2  3  1  0
  3  4  2  0
  4  5  1  0
  5  6  2  0
  6  7  1  0
  7  8  2  0
  8  9  1  0
  9 10  1  0
 10 11  2  0
 10 12  1  0
 12 13  2  0
 13 14  1  0
 14 15  2  0
 15 16  1  0
 16 17  2  0
 17 18  1  0
 18 19  2  0
 19 20  1  0
  8 21  1  0
 21 22  2  0
 22 23  1  0
 23  3  1  0
 22  5  1  0
 20 12  1  0
 19 14  1  0
  1 24  1  0
  1 25  1  0
  1 26  1  0
  6 27  1  0
  7 28  1  0
  9 29  1  0
 13 30  1  0
 15 31  1  0
 16 32  1  0
 17 33  1  0
 18 34  1  0
 21 35  1  0
M  END
$$$$
