
     RDKit          3D

 37 39  0  0  0  0  0  0  0  0999 V2000
    7.2941    0.5720   -2.6570 C   0  0  0  0  0  0  0  0  0  0  0  0
    6.9491    0.7362   -1.2874 O   0  0  0  0  0  0  0  0  0  0  0  0
    5.6501    0.4916   -0.9392 C   0  0  0  0  0  0  0  0  0  0  0  0
    4.6237    0.1160   -1.8079 C   0  0  0  0  0  0  0  0  0  0  0  0
    3.3291   -0.1027   -1.3187 C   0  0  0  0  0  0  0  0  0  0  0  0
    3.0546    0.0613    0.0452 C   0  0  0  0  0  0  0  0  0  0  0  0
    1.6920   -0.1594    0.6079 C   0  0  0  0  0  0  0  0  0  0  0  0
    1.6013   -0.6346    1.7325 O   0  0  0  0  0  0  0  0  0  0  0  0
    0.6634    0.2415   -0.2139 N   0  0  0  0  0  0  0  0  0  0  0  0
   -0.6511    0.1062    0.1389 C   0  0  0  0  0  0  0  0  0  0  0  0
   -1.1759   -0.4372    1.2030 N   0  0  0  0  0  0  0  0  0  0  0  0
   -2.5527   -0.3454    1.1414 C   0  0  0  0  0  0  0  0  0  0  0  0
   -3.4558   -0.8078    2.1215 C   0  0  0  0  0  0  0  0  0  0  0  0
   -4.8330   -0.6565    1.9297 C   0  0  0  0  0  0  0  0  0  0  0  0
   -5.3080   -0.0582    0.7632 C   0  0  0  0  0  0  0  0  0  0  0  0
   -7.0584    0.1351    0.5300 S   0  0  0  0  0  6  0  0  0  0  0  0
   -7.4532   -1.3021   -0.2518 N   0  0  0  0  0  0  0  0  0  0  0  0
   -7.2768    1.2200   -0.3959 O   0  0  0  0  0  0  0  0  0  0  0  0
   -7.7011    0.0700    1.8216 O   0  0  0  0  0  0  0  0  0  0  0  0
   -4.4382    0.4246   -0.2247 C   0  0  0  0  0  0  0  0  0  0  0  0
   -3.0596    0.2657   -0.0093 C   0  0  0  0  0  0  0  0  0  0  0  0
   -1.7387    0.7397   -1.0117 S   0  0  0  0  0  0  0  0  0  0  0  0
    4.0870    0.4182    0.9176 C   0  0  0  0  0  0  0  0  0  0  0  0
    5.3747    0.6377    0.4230 C   0  0  0  0  0  0  0  0  0  0  0  0
    8.3600    0.7960   -2.7626 H   0  0  0  0  0  0  0  0  0  0  0  0
    6.7417    1.2745   -3.2897 H   0  0  0  0  0  0  0  0  0  0  0  0
    7.1369   -0.4617   -2.9825 H   0  0  0  0  0  0  0  0  0  0  0  0
    4.8000   -0.0255   -2.8694 H   0  0  0  0  0  0  0  0  0  0  0  0
    2.5595   -0.4316   -2.0115 H   0  0  0  0  0  0  0  0  0  0  0  0
    0.8458    0.7260   -1.0784 H   0  0  0  0  0  0  0  0  0  0  0  0
   -3.0667   -1.2727    3.0236 H   0  0  0  0  0  0  0  0  0  0  0  0
   -5.5184   -1.0047    2.7005 H   0  0  0  0  0  0  0  0  0  0  0  0
   -8.0865   -1.8394    0.3435 H   0  0  0  0  0  0  0  0  0  0  0  0
   -6.6426   -1.8500   -0.5367 H   0  0  0  0  0  0  0  0  0  0  0  0
   -4.8109    0.9102   -1.1230 H   0  0  0  0  0  0  0  0  0  0  0  0
    3.8927    0.5274    1.9830 H   0  0  0  0  0  0  0  0  0  0  0  0
    6.1720    0.9195    1.1073 H   0  0  0  0  0  0  0  0  0  0  0  0
  1  2  1  0
  2  3  1  0
  3  4  2  0
  4  5  1  0
  5  6  2  0
  6  7  1  0
  7  8  2  0
  7  9  1  0
  9 10  1  0
 10 11  2  0
 11 12  1  0
 12 13  2  0
 13 14  1  0
 14 15  2  0
 15 16  1  0
 16 17  1  0
 16 18  2  0
 16 19  2  0
 15 20  1  0
 20 21  2  0
 21 22  1  0
  6 23  1  0
 23 24  2  0
 24  3  1  0
 22 10  1  0
 21 12  1  0
  1 25  1  0
  1 26  1  0
  1 27  1  0
  4 28  1  0
  5 29  1  0
  9 30  1  0
 13 31  1  0
 14 32  1  0
 17 33  1  0
 17 34  1  0
 20 35  1  0
 23 36  1  0
 24 37  1  0
M  END
$$$$
