
     RDKit          3D

 26 28  0  0  0  0  0  0  0  0999 V2000
    5.7443   -0.2331   -0.1232 O   0  0  0  0  0  0  0  0  0  0  0  0
    4.3832   -0.1753   -0.0935 C   0  0  0  0  0  0  0  0  0  0  0  0
    3.6638    0.4929   -1.0778 C   0  0  0  0  0  0  0  0  0  0  0  0
    2.2669    0.5260   -1.0062 C   0  0  0  0  0  0  0  0  0  0  0  0
    1.5841   -0.1065    0.0461 C   0  0  0  0  0  0  0  0  0  0  0  0
    0.1262   -0.0869    0.1444 C   0  0  0  0  0  0  0  0  0  0  0  0
   -0.6531   -0.6297    1.0644 N   0  0  0  0  0  0  0  0  0  0  0  0
   -1.9210   -0.2994    0.6586 C   0  0  0  0  0  0  0  0  0  0  0  0
   -3.1679   -0.5924    1.2283 C   0  0  0  0  0  0  0  0  0  0  0  0
   -4.3057   -0.1100    0.5724 C   0  0  0  0  0  0  0  0  0  0  0  0
   -5.5545   -0.3562    1.0688 O   0  0  0  0  0  0  0  0  0  0  0  0
   -4.2245    0.6362   -0.6051 C   0  0  0  0  0  0  0  0  0  0  0  0
   -2.9828    0.9304   -1.1763 C   0  0  0  0  0  0  0  0  0  0  0  0
   -2.8544    1.9344   -2.7623 Br  0  0  0  0  0  0  0  0  0  0  0  0
   -1.8643    0.4428   -0.5104 C   0  0  0  0  0  0  0  0  0  0  0  0
   -0.5477    0.5827   -0.8463 O   0  0  0  0  0  0  0  0  0  0  0  0
    2.3360   -0.7737    1.0260 C   0  0  0  0  0  0  0  0  0  0  0  0
    3.7311   -0.8081    0.9567 C   0  0  0  0  0  0  0  0  0  0  0  0
    6.0602    0.2480   -0.9055 H   0  0  0  0  0  0  0  0  0  0  0  0
    4.1644    0.9905   -1.9025 H   0  0  0  0  0  0  0  0  0  0  0  0
    1.7159    1.0525   -1.7833 H   0  0  0  0  0  0  0  0  0  0  0  0
   -3.2209   -1.1717    2.1415 H   0  0  0  0  0  0  0  0  0  0  0  0
   -5.4768   -0.8804    1.8841 H   0  0  0  0  0  0  0  0  0  0  0  0
   -5.1410    0.9870   -1.0743 H   0  0  0  0  0  0  0  0  0  0  0  0
    1.8346   -1.2731    1.8535 H   0  0  0  0  0  0  0  0  0  0  0  0
    4.3038   -1.3272    1.7201 H   0  0  0  0  0  0  0  0  0  0  0  0
  1  2  1  0
  2  3  2  0
  3  4  1  0
  4  5  2  0
  5  6  1  0
  6  7  2  0
  7  8  1  0
  8  9  2  0
  9 10  1  0
 10 11  1  0
 10 12  2  0
 12 13  1  0
 13 14  1  0
 13 15  2  0
 15 16  1  0
  5 17  1  0
 17 18  2  0
 18  2  1  0
 16  6  1  0
 15  8  1  0
  1 19  1  0
  3 20  1  0
  4 21  1  0
  9 22  1  0
 11 23  1  0
 12 24  1  0
 17 25  1  0
 18 26  1  0
M  END
$$$$
