
     RDKit          3D

 61 64  0  0  0  0  0  0  0  0999 V2000
   -5.1217    2.0219   -2.8431 C   0  0  0  0  0  0  0  0  0  0  0  0
   -4.8832    1.3138   -1.5848 N   0  0  0  0  0  0  0  0  0  0  0  0
   -5.8118    1.7951   -0.5579 C   0  0  0  0  0  0  0  0  0  0  0  0
   -5.0111   -0.1406   -1.7887 C   0  0  0  0  0  0  0  0  0  0  0  0
   -4.5385   -0.9624   -0.6059 C   0  0  0  0  0  0  0  0  0  0  0  0
   -5.3727   -1.9266   -0.0256 C   0  0  0  0  0  0  0  0  0  0  0  0
   -4.9321   -2.6736    1.0674 C   0  0  0  0  0  0  0  0  0  0  0  0
   -3.6476   -2.4760    1.5774 C   0  0  0  0  0  0  0  0  0  0  0  0
   -2.7758   -1.5588    0.9823 C   0  0  0  0  0  0  0  0  0  0  0  0
   -1.5126   -1.3324    1.5873 N   0  0  0  0  0  0  0  0  0  0  0  0
   -0.3375   -1.0763    0.8685 C   0  0  0  0  0  0  0  0  0  0  0  0
    0.5593   -0.1143    1.1816 C   0  0  0  0  0  0  0  0  0  0  0  0
    0.2765    0.8540    2.3057 C   0  0  0  0  0  0  0  0  0  0  0  0
   -0.6926    0.8717    3.0427 O   0  0  0  0  0  0  0  0  0  0  0  0
    1.3523    1.7220    2.3282 N   0  0  0  0  0  0  0  0  0  0  0  0
    2.2889    1.3899    1.3564 C   0  0  0  0  0  0  0  0  0  0  0  0
    3.4800    2.0478    1.1203 C   0  0  0  0  0  0  0  0  0  0  0  0
    4.2947    1.5345    0.1070 C   0  0  0  0  0  0  0  0  0  0  0  0
    5.5619    2.2123   -0.2402 C   0  0  0  0  0  0  0  0  0  0  0  0
    5.6601    2.6580   -1.3806 O   0  0  0  0  0  0  0  0  0  0  0  0
    6.5543    2.3255    0.7288 N   0  0  0  0  0  0  0  0  0  0  0  0
    7.7080    3.1658    0.4511 C   0  0  0  0  0  0  0  0  0  0  0  0
    6.5576    1.6302    2.0085 C   0  0  0  0  0  0  0  0  0  0  0  0
    3.8992    0.4126   -0.6455 C   0  0  0  0  0  0  0  0  0  0  0  0
    2.6864   -0.2363   -0.3765 C   0  0  0  0  0  0  0  0  0  0  0  0
    1.8714    0.2669    0.6249 C   0  0  0  0  0  0  0  0  0  0  0  0
   -0.0511   -2.0345   -0.2271 C   0  0  0  0  0  0  0  0  0  0  0  0
    0.3811   -3.3314    0.0830 C   0  0  0  0  0  0  0  0  0  0  0  0
    0.6569   -4.2475   -0.9338 C   0  0  0  0  0  0  0  0  0  0  0  0
    0.4965   -3.8761   -2.2679 C   0  0  0  0  0  0  0  0  0  0  0  0
    0.0593   -2.5915   -2.5880 C   0  0  0  0  0  0  0  0  0  0  0  0
   -0.2147   -1.6731   -1.5724 C   0  0  0  0  0  0  0  0  0  0  0  0
   -3.2447   -0.7826   -0.0852 C   0  0  0  0  0  0  0  0  0  0  0  0
   -6.1300    1.8457   -3.2346 H   0  0  0  0  0  0  0  0  0  0  0  0
   -4.9892    3.1009   -2.7078 H   0  0  0  0  0  0  0  0  0  0  0  0
   -4.3952    1.7125   -3.6043 H   0  0  0  0  0  0  0  0  0  0  0  0
   -6.8588    1.6067   -0.8254 H   0  0  0  0  0  0  0  0  0  0  0  0
   -5.6130    1.3268    0.4130 H   0  0  0  0  0  0  0  0  0  0  0  0
   -5.6852    2.8745   -0.4060 H   0  0  0  0  0  0  0  0  0  0  0  0
   -4.3933   -0.4508   -2.6425 H   0  0  0  0  0  0  0  0  0  0  0  0
   -6.0464   -0.4030   -2.0465 H   0  0  0  0  0  0  0  0  0  0  0  0
   -6.3741   -2.0928   -0.4120 H   0  0  0  0  0  0  0  0  0  0  0  0
   -5.5890   -3.4082    1.5263 H   0  0  0  0  0  0  0  0  0  0  0  0
   -3.3152   -3.0553    2.4348 H   0  0  0  0  0  0  0  0  0  0  0  0
   -1.6428   -0.6399    2.3384 H   0  0  0  0  0  0  0  0  0  0  0  0
    1.4193    2.4851    2.9844 H   0  0  0  0  0  0  0  0  0  0  0  0
    3.7678    2.9287    1.6815 H   0  0  0  0  0  0  0  0  0  0  0  0
    7.6380    3.6560   -0.5249 H   0  0  0  0  0  0  0  0  0  0  0  0
    8.6115    2.5467    0.4727 H   0  0  0  0  0  0  0  0  0  0  0  0
    7.7754    3.9363    1.2270 H   0  0  0  0  0  0  0  0  0  0  0  0
    7.5511    1.2021    2.1789 H   0  0  0  0  0  0  0  0  0  0  0  0
    6.3396    2.3538    2.7989 H   0  0  0  0  0  0  0  0  0  0  0  0
    5.8320    0.8156    2.0432 H   0  0  0  0  0  0  0  0  0  0  0  0
    4.5397    0.0481   -1.4469 H   0  0  0  0  0  0  0  0  0  0  0  0
    2.4164   -1.1101   -0.9583 H   0  0  0  0  0  0  0  0  0  0  0  0
    0.4938   -3.6329    1.1223 H   0  0  0  0  0  0  0  0  0  0  0  0
    0.9881   -5.2517   -0.6827 H   0  0  0  0  0  0  0  0  0  0  0  0
    0.7042   -4.5910   -3.0598 H   0  0  0  0  0  0  0  0  0  0  0  0
   -0.0735   -2.3051   -3.6277 H   0  0  0  0  0  0  0  0  0  0  0  0
   -0.5584   -0.6763   -1.8348 H   0  0  0  0  0  0  0  0  0  0  0  0
   -2.6094   -0.0101   -0.5135 H   0  0  0  0  0  0  0  0  0  0  0  0
  1  2  1  0
  2  3  1  0
  2  4  1  0
  4  5  1  0
  5  6  2  0
  6  7  1  0
  7  8  2  0
  8  9  1  0
  9 10  1  0
 10 11  1  0
 11 12  2  0
 12 13  1  0
 13 14  2  0
 13 15  1  0
 15 16  1  0
 16 17  2  0
 17 18  1  0
 18 19  1  0
 19 20  2  0
 19 21  1  0
 21 22  1  0
 21 23  1  0
 18 24  2  0
 24 25  1  0
 25 26  2  0
 11 27  1  0
 27 28  2  0
 28 29  1  0
 29 30  2  0
 30 31  1  0
 31 32  2  0
  9 33  2  0
 33  5  1  0
 26 12  1  0
 32 27  1  0
 26 16  1  0
  1 34  1  0
  1 35  1  0
  1 36  1  0
  3 37  1  0
  3 38  1  0
  3 39  1  0
  4 40  1  0
  4 41  1  0
  6 42  1  0
  7 43  1  0
  8 44  1  0
 10 45  1  0
 15 46  1  0
 17 47  1  0
 22 48  1  0
 22 49  1  0
 22 50  1  0
 23 51  1  0
 23 52  1  0
 23 53  1  0
 24 54  1  0
 25 55  1  0
 28 56  1  0
 29 57  1  0
 30 58  1  0
 31 59  1  0
 32 60  1  0
 33 61  1  0
M  END
$$$$
