
     RDKit          3D

 54 56  0  0  0  0  0  0  0  0999 V2000
   -6.1233    2.3745    0.7439 C   0  0  0  0  0  0  0  0  0  0  0  0
   -4.7466    1.7984    0.5994 C   0  0  0  0  0  0  0  0  0  0  0  0
   -3.6531    2.4795    1.0564 C   0  0  0  0  0  0  0  0  0  0  0  0
   -2.4011    1.9769    0.9363 C   0  0  0  0  0  0  0  0  0  0  0  0
   -1.2709    2.6849    1.4109 O   0  0  0  0  0  0  0  0  0  0  0  0
   -2.2261    0.7135    0.3209 C   0  0  0  0  0  0  0  0  0  0  0  0
   -0.8296    0.3102    0.3175 C   0  0  0  0  0  0  0  0  0  0  0  0
   -0.0047    0.7553   -0.6791 C   0  0  0  0  0  0  0  0  0  0  0  0
    1.3471    0.4652   -0.7089 C   0  0  0  0  0  0  0  0  0  0  0  0
    1.9019   -0.2929    0.2837 C   0  0  0  0  0  0  0  0  0  0  0  0
    3.3519   -0.6391    0.2831 C   0  0  1  0  0  0  0  0  0  0  0  0
    3.5415   -1.5779   -0.9150 C   0  0  0  0  0  0  0  0  0  0  0  0
    4.2403    0.5427    0.1250 C   0  0  0  0  0  0  0  0  0  0  0  0
    5.6205    0.2878    0.1293 N   0  0  0  0  0  0  0  0  0  0  0  0
    6.1868   -0.1569    1.3533 C   0  0  0  0  0  0  0  0  0  0  0  0
    6.2658   -0.1100   -1.0584 C   0  0  0  0  0  0  0  0  0  0  0  0
    1.0695   -0.7541    1.3103 C   0  0  0  0  0  0  0  0  0  0  0  0
   -0.2748   -0.4603    1.3317 C   0  0  0  0  0  0  0  0  0  0  0  0
   -3.2927    0.0312   -0.1360 C   0  0  0  0  0  0  0  0  0  0  0  0
   -4.5509    0.5546   -0.0050 C   0  0  0  0  0  0  0  0  0  0  0  0
   -5.6933   -0.0257   -0.4143 N   0  0  0  0  0  0  0  0  0  0  0  0
   -5.6010   -1.2063   -0.9973 C   0  0  0  0  0  0  0  0  0  0  0  0
   -6.6397   -1.8144   -1.4090 O   0  0  0  0  0  0  0  0  0  0  0  0
   -4.3461   -1.7634   -1.1481 C   0  0  0  0  0  0  0  0  0  0  0  0
   -3.9277   -3.3615   -1.9259 S   0  0  0  0  0  0  0  0  0  0  0  0
   -2.1787   -3.1777   -1.6613 C   0  0  0  0  0  0  0  0  0  0  0  0
   -2.0440   -1.9435   -1.0151 C   0  0  0  0  0  0  0  0  0  0  0  0
   -3.1496   -1.2507   -0.7671 C   0  0  0  0  0  0  0  0  0  0  0  0
    0.6844    0.0000    0.0000 Cl  0  0  0  0  0  0  0  0  0  0  0  0
   -6.6147    2.4418   -0.2443 H   0  0  0  0  0  0  0  0  0  0  0  0
   -6.6587    1.6765    1.4284 H   0  0  0  0  0  0  0  0  0  0  0  0
   -6.0082    3.3458    1.2308 H   0  0  0  0  0  0  0  0  0  0  0  0
   -3.8024    3.4688    1.5372 H   0  0  0  0  0  0  0  0  0  0  0  0
   -1.4624    3.5812    1.8331 H   0  0  0  0  0  0  0  0  0  0  0  0
   -0.4248    1.3558   -1.4668 H   0  0  0  0  0  0  0  0  0  0  0  0
    1.9703    0.8343   -1.5148 H   0  0  0  0  0  0  0  0  0  0  0  0
    3.5489   -1.2373    1.1842 H   0  0  0  0  0  0  0  0  0  0  0  0
    2.6300   -2.2294   -0.9547 H   0  0  0  0  0  0  0  0  0  0  0  0
    4.3853   -2.2591   -0.7405 H   0  0  0  0  0  0  0  0  0  0  0  0
    3.6895   -1.0508   -1.8541 H   0  0  0  0  0  0  0  0  0  0  0  0
    3.9493    1.1166   -0.7934 H   0  0  0  0  0  0  0  0  0  0  0  0
    3.9967    1.2514    0.9702 H   0  0  0  0  0  0  0  0  0  0  0  0
    5.9996    0.5859    2.1558 H   0  0  0  0  0  0  0  0  0  0  0  0
    7.2767   -0.2881    1.2265 H   0  0  0  0  0  0  0  0  0  0  0  0
    5.7239   -1.1331    1.6209 H   0  0  0  0  0  0  0  0  0  0  0  0
    5.7189    0.1986   -1.9563 H   0  0  0  0  0  0  0  0  0  0  0  0
    7.2429    0.4649   -1.1082 H   0  0  0  0  0  0  0  0  0  0  0  0
    6.6055   -1.1745   -1.0805 H   0  0  0  0  0  0  0  0  0  0  0  0
    1.5547   -1.3508    2.0715 H   0  0  0  0  0  0  0  0  0  0  0  0
   -0.8687   -0.8402    2.1465 H   0  0  0  0  0  0  0  0  0  0  0  0
   -6.6227    0.3983   -0.2969 H   0  0  0  0  0  0  0  0  0  0  0  0
   -1.4244   -3.8875   -1.9499 H   0  0  0  0  0  0  0  0  0  0  0  0
   -0.9768   -1.7097   -0.8060 H   0  0  0  0  0  0  0  0  0  0  0  0
   -0.6844    0.0000    0.0000 H   0  0  0  0  0  0  0  0  0  0  0  0
  1  2  1  0
  2  3  2  0
  3  4  1  0
  4  5  1  0
  4  6  2  0
  6  7  1  0
  7  8  2  0
  8  9  1  0
  9 10  2  0
 10 11  1  0
 11 12  1  0
 11 13  1  0
 13 14  1  0
 14 15  1  0
 14 16  1  0
 10 17  1  0
 17 18  2  0
  6 19  1  0
 19 20  2  0
 20 21  1  0
 21 22  1  0
 22 23  2  0
 22 24  1  0
 24 25  1  0
 25 26  1  0
 26 27  2  0
 27 28  1  0
 20  2  1  0
 28 24  2  0
 18  7  1  0
 28 19  1  0
  1 30  1  0
  1 31  1  0
  1 32  1  0
  3 33  1  0
  5 34  1  0
  8 35  1  0
  9 36  1  0
 11 37  1  1
 12 38  1  0
 12 39  1  0
 12 40  1  0
 13 41  1  0
 13 42  1  0
 15 43  1  0
 15 44  1  0
 15 45  1  0
 16 46  1  0
 16 47  1  0
 16 48  1  0
 17 49  1  0
 18 50  1  0
 21 51  1  0
 26 52  1  0
 27 53  1  0
 29 54  1  0
M  END
$$$$
