
     RDKit          3D

 50 53  0  0  0  0  0  0  0  0999 V2000
   -4.3061   -2.8104    1.4624 C   0  0  0  0  0  0  0  0  0  0  0  0
   -4.3134   -2.0261    0.1542 C   0  0  0  0  0  0  0  0  0  0  0  0
   -2.9806   -1.2928   -0.1577 C   0  0  0  0  0  0  0  0  0  0  0  0
   -3.0527   -0.6744   -1.5776 C   0  0  0  0  0  0  0  0  0  0  0  0
   -2.9384   -1.7068   -2.6912 C   0  0  0  0  0  0  0  0  0  0  0  0
   -2.5851   -0.2390    0.9383 C   0  0  0  0  0  0  0  0  0  0  0  0
   -1.1399    0.2869    0.9308 C   0  0  0  0  0  0  0  0  0  0  0  0
   -0.1426   -0.2146    0.0843 C   0  0  0  0  0  0  0  0  0  0  0  0
    1.1700    0.2822    0.1282 C   0  0  0  0  0  0  0  0  0  0  0  0
    1.5451    1.2883    1.0220 C   0  0  0  0  0  0  0  0  0  0  0  0
    2.8391    1.8320    1.1073 N   0  0  0  0  0  0  0  0  0  0  0  0
    3.9809    1.4376    0.4913 C   0  0  0  0  0  0  0  0  0  0  0  0
    4.1454    0.4192   -0.3163 N   0  0  0  0  0  0  0  0  0  0  0  0
    5.4652    0.3075   -0.7206 C   0  0  0  0  0  0  0  0  0  0  0  0
    5.9918   -0.6856   -1.5767 C   0  0  0  0  0  0  0  0  0  0  0  0
    7.3545   -0.6806   -1.8932 C   0  0  0  0  0  0  0  0  0  0  0  0
    8.1926    0.3026   -1.3752 C   0  0  0  0  0  0  0  0  0  0  0  0
    7.6929    1.3010   -0.5292 C   0  0  0  0  0  0  0  0  0  0  0  0
    6.3242    1.2792   -0.2128 C   0  0  0  0  0  0  0  0  0  0  0  0
    5.4244    2.3401    0.7951 S   0  0  0  0  0  0  0  0  0  0  0  0
    0.5565    1.7731    1.8915 C   0  0  0  0  0  0  0  0  0  0  0  0
   -0.7529    1.2759    1.8593 C   0  0  0  0  0  0  0  0  0  0  0  0
   -3.5561    0.8613    1.0145 N   0  0  0  0  0  0  0  0  0  0  0  0
   -3.6226    2.0019    0.2696 C   0  0  0  0  0  0  0  0  0  0  0  0
   -4.6394    2.7333    0.6663 N   0  0  0  0  0  0  0  0  0  0  0  0
   -5.1759    1.9906    1.6749 C   0  0  0  0  0  0  0  0  0  0  0  0
   -4.5474    0.8407    1.9324 N   0  0  0  0  0  0  0  0  0  0  0  0
   -3.4532   -3.4921    1.5066 H   0  0  0  0  0  0  0  0  0  0  0  0
   -5.2192   -3.4119    1.5424 H   0  0  0  0  0  0  0  0  0  0  0  0
   -4.2745   -2.1528    2.3353 H   0  0  0  0  0  0  0  0  0  0  0  0
   -5.1516   -1.3164    0.1574 H   0  0  0  0  0  0  0  0  0  0  0  0
   -4.5273   -2.7461   -0.6487 H   0  0  0  0  0  0  0  0  0  0  0  0
   -2.2047   -2.0685   -0.1612 H   0  0  0  0  0  0  0  0  0  0  0  0
   -2.2456    0.0535   -1.7215 H   0  0  0  0  0  0  0  0  0  0  0  0
   -3.9941   -0.1277   -1.7056 H   0  0  0  0  0  0  0  0  0  0  0  0
   -3.7948   -2.3879   -2.7054 H   0  0  0  0  0  0  0  0  0  0  0  0
   -2.9047   -1.2002   -3.6604 H   0  0  0  0  0  0  0  0  0  0  0  0
   -2.0216   -2.2971   -2.5926 H   0  0  0  0  0  0  0  0  0  0  0  0
   -2.6523   -0.7461    1.9120 H   0  0  0  0  0  0  0  0  0  0  0  0
   -0.3430   -1.0038   -0.6384 H   0  0  0  0  0  0  0  0  0  0  0  0
    1.8893   -0.1423   -0.5696 H   0  0  0  0  0  0  0  0  0  0  0  0
    2.9312    2.5819    1.7808 H   0  0  0  0  0  0  0  0  0  0  0  0
    5.3333   -1.4487   -1.9758 H   0  0  0  0  0  0  0  0  0  0  0  0
    7.7578   -1.4507   -2.5414 H   0  0  0  0  0  0  0  0  0  0  0  0
    9.2508    0.2964   -1.6262 H   0  0  0  0  0  0  0  0  0  0  0  0
    8.3494    2.0677   -0.1209 H   0  0  0  0  0  0  0  0  0  0  0  0
    0.7935    2.5491    2.6200 H   0  0  0  0  0  0  0  0  0  0  0  0
   -1.4713    1.6789    2.5815 H   0  0  0  0  0  0  0  0  0  0  0  0
   -2.9243    2.2454   -0.5205 H   0  0  0  0  0  0  0  0  0  0  0  0
   -6.0521    2.2962    2.2354 H   0  0  0  0  0  0  0  0  0  0  0  0
  1  2  1  0
  2  3  1  0
  3  4  1  0
  4  5  1  0
  3  6  1  0
  6  7  1  0
  7  8  2  0
  8  9  1  0
  9 10  2  0
 10 11  1  0
 11 12  1  0
 12 13  2  0
 13 14  1  0
 14 15  2  0
 15 16  1  0
 16 17  2  0
 17 18  1  0
 18 19  2  0
 19 20  1  0
 10 21  1  0
 21 22  2  0
  6 23  1  0
 23 24  1  0
 24 25  2  0
 25 26  1  0
 26 27  2  0
 22  7  1  0
 27 23  1  0
 20 12  1  0
 19 14  1  0
  1 28  1  0
  1 29  1  0
  1 30  1  0
  2 31  1  0
  2 32  1  0
  3 33  1  0
  4 34  1  0
  4 35  1  0
  5 36  1  0
  5 37  1  0
  5 38  1  0
  6 39  1  0
  8 40  1  0
  9 41  1  0
 11 42  1  0
 15 43  1  0
 16 44  1  0
 17 45  1  0
 18 46  1  0
 21 47  1  0
 22 48  1  0
 24 49  1  0
 26 50  1  0
M  END
$$$$
