
     RDKit          3D

 50 52  0  0  0  0  0  0  0  0999 V2000
   -7.5356   -1.6796    0.6942 C   0  0  0  0  0  0  0  0  0  0  0  0
   -6.8515   -0.3433    0.4496 C   0  0  0  0  0  0  0  0  0  0  0  0
   -5.3944   -0.5156    0.0985 C   0  0  0  0  0  0  0  0  0  0  0  0
   -4.4300   -0.6231    1.1110 C   0  0  0  0  0  0  0  0  0  0  0  0
   -3.0839   -0.8049    0.7901 C   0  0  0  0  0  0  0  0  0  0  0  0
   -2.6957   -0.8654   -0.5511 C   0  0  0  0  0  0  0  0  0  0  0  0
   -0.9848   -1.1176   -0.9636 S   0  0  0  0  0  6  0  0  0  0  0  0
   -0.3208   -1.6789    0.1958 O   0  0  0  0  0  0  0  0  0  0  0  0
   -0.9272   -1.7729   -2.2510 O   0  0  0  0  0  0  0  0  0  0  0  0
   -0.3909    0.4316   -1.1464 N   0  0  0  0  0  0  0  0  0  0  0  0
   -0.6704    1.1454   -2.3890 C   0  0  0  0  0  0  0  0  0  0  0  0
   -0.6426    2.9102   -2.0387 S   0  0  0  0  0  0  0  0  0  0  0  0
   -0.8452    2.6700   -0.2627 C   0  0  0  0  0  0  0  0  0  0  0  0
   -0.2295    1.3099    0.0428 C   0  0  2  0  0  0  0  0  0  0  0  0
    1.2573    1.3932    0.4193 C   0  0  0  0  0  0  0  0  0  0  0  0
    1.8743    2.4505    0.5167 O   0  0  0  0  0  0  0  0  0  0  0  0
    1.8378    0.1701    0.6952 N   0  0  0  0  0  0  0  0  0  0  0  0
    3.2522    0.0388    0.9949 C   0  0  0  0  0  0  0  0  0  0  0  0
    4.1140    0.0879   -0.2667 C   0  0  0  0  0  0  0  0  0  0  0  0
    5.5724    0.0216    0.0455 C   0  0  0  0  0  0  0  0  0  0  0  0
    6.5059    1.0161   -0.1779 C   0  0  0  0  0  0  0  0  0  0  0  0
    8.0564    0.4943    0.3263 S   0  0  0  0  0  0  0  0  0  0  0  0
    7.3788   -1.0084    0.8101 C   0  0  0  0  0  0  0  0  0  0  0  0
    8.2474   -2.0612    1.4022 C   0  0  0  0  0  0  0  0  0  0  0  0
    6.0829   -1.1352    0.6148 N   0  0  0  0  0  0  0  0  0  0  0  0
   -3.6504   -0.7958   -1.5688 C   0  0  0  0  0  0  0  0  0  0  0  0
   -4.9951   -0.6144   -1.2418 C   0  0  0  0  0  0  0  0  0  0  0  0
   -7.4904   -2.3167   -0.1955 H   0  0  0  0  0  0  0  0  0  0  0  0
   -7.0639   -2.2225    1.5206 H   0  0  0  0  0  0  0  0  0  0  0  0
   -8.5891   -1.5246    0.9480 H   0  0  0  0  0  0  0  0  0  0  0  0
   -7.3659    0.1925   -0.3571 H   0  0  0  0  0  0  0  0  0  0  0  0
   -6.9413    0.2894    1.3407 H   0  0  0  0  0  0  0  0  0  0  0  0
   -4.7281   -0.5792    2.1572 H   0  0  0  0  0  0  0  0  0  0  0  0
   -2.3546   -0.9090    1.5904 H   0  0  0  0  0  0  0  0  0  0  0  0
    0.0919    0.9096   -3.1364 H   0  0  0  0  0  0  0  0  0  0  0  0
   -1.6531    0.8983   -2.7952 H   0  0  0  0  0  0  0  0  0  0  0  0
   -1.9199    2.6532   -0.0522 H   0  0  0  0  0  0  0  0  0  0  0  0
   -0.4024    3.4956    0.3011 H   0  0  0  0  0  0  0  0  0  0  0  0
   -0.7371    0.9003    0.9227 H   0  0  0  0  0  0  0  0  0  0  0  0
    1.2932   -0.6806    0.5492 H   0  0  0  0  0  0  0  0  0  0  0  0
    3.3822   -0.9146    1.5183 H   0  0  0  0  0  0  0  0  0  0  0  0
    3.5375    0.8410    1.6859 H   0  0  0  0  0  0  0  0  0  0  0  0
    3.8992    1.0034   -0.8321 H   0  0  0  0  0  0  0  0  0  0  0  0
    3.8501   -0.7470   -0.9272 H   0  0  0  0  0  0  0  0  0  0  0  0
    6.3517    1.9970   -0.6049 H   0  0  0  0  0  0  0  0  0  0  0  0
    8.9171   -2.4777    0.6437 H   0  0  0  0  0  0  0  0  0  0  0  0
    7.6387   -2.8781    1.8037 H   0  0  0  0  0  0  0  0  0  0  0  0
    8.8510   -1.6593    2.2227 H   0  0  0  0  0  0  0  0  0  0  0  0
   -3.3635   -0.8929   -2.6135 H   0  0  0  0  0  0  0  0  0  0  0  0
   -5.7345   -0.5621   -2.0392 H   0  0  0  0  0  0  0  0  0  0  0  0
  1  2  1  0
  2  3  1  0
  3  4  2  0
  4  5  1  0
  5  6  2  0
  6  7  1  0
  7  8  2  0
  7  9  2  0
  7 10  1  0
 10 11  1  0
 11 12  1  0
 12 13  1  0
 13 14  1  0
 14 15  1  0
 15 16  2  0
 15 17  1  0
 17 18  1  0
 18 19  1  0
 19 20  1  0
 20 21  2  0
 21 22  1  0
 22 23  1  0
 23 24  1  0
 23 25  2  0
  6 26  1  0
 26 27  2  0
 27  3  1  0
 14 10  1  0
 25 20  1  0
  1 28  1  0
  1 29  1  0
  1 30  1  0
  2 31  1  0
  2 32  1  0
  4 33  1  0
  5 34  1  0
 11 35  1  0
 11 36  1  0
 13 37  1  0
 13 38  1  0
 14 39  1  1
 17 40  1  0
 18 41  1  0
 18 42  1  0
 19 43  1  0
 19 44  1  0
 21 45  1  0
 24 46  1  0
 24 47  1  0
 24 48  1  0
 26 49  1  0
 27 50  1  0
M  END
$$$$
