
     RDKit          3D

 40 41  0  0  0  0  0  0  0  0999 V2000
    2.9067   -2.4559    0.7582 C   0  0  0  0  0  0  0  0  0  0  0  0
    2.5640   -0.9685    0.7817 C   0  0  0  0  0  0  0  0  0  0  0  0
    1.1138   -0.8106    0.8663 N   0  0  0  0  0  0  0  0  0  0  0  0
    0.5310    0.1436    1.6757 C   0  0  0  0  0  0  0  0  0  0  0  0
    1.1273    0.7492    2.5631 O   0  0  0  0  0  0  0  0  0  0  0  0
   -0.9597    0.3668    1.4130 C   0  0  0  0  0  0  0  0  0  0  0  0
   -1.4016   -0.3587    0.2665 O   0  0  0  0  0  0  0  0  0  0  0  0
   -2.7224   -0.2478   -0.0687 C   0  0  0  0  0  0  0  0  0  0  0  0
   -3.1024   -0.9891   -1.1899 C   0  0  0  0  0  0  0  0  0  0  0  0
   -4.4203   -0.9673   -1.6458 C   0  0  0  0  0  0  0  0  0  0  0  0
   -5.3730   -0.2006   -0.9783 C   0  0  0  0  0  0  0  0  0  0  0  0
   -5.0142    0.5454    0.1541 C   0  0  0  0  0  0  0  0  0  0  0  0
   -6.0377    1.3959    0.8656 C   0  0  0  0  0  0  0  0  0  0  0  0
   -7.3052    0.9065    0.7651 F   0  0  0  0  0  0  0  0  0  0  0  0
   -5.7928    1.5189    2.2003 F   0  0  0  0  0  0  0  0  0  0  0  0
   -6.0858    2.6650    0.3759 F   0  0  0  0  0  0  0  0  0  0  0  0
   -3.6782    0.5212    0.5977 C   0  0  0  0  0  0  0  0  0  0  0  0
    3.1224   -0.2348   -0.4597 C   0  0  0  0  0  0  0  0  0  0  0  0
    4.6431   -0.2440   -0.5524 C   0  0  0  0  0  0  0  0  0  0  0  0
    4.9191    1.0147   -1.3355 C   0  0  0  0  0  0  0  0  0  0  0  0
    3.8754    1.9569   -0.7804 C   0  0  0  0  0  0  0  0  0  0  0  0
    2.7307    1.1556   -0.4635 O   0  0  0  0  0  0  0  0  0  0  0  0
    2.4959   -2.9431   -0.1331 H   0  0  0  0  0  0  0  0  0  0  0  0
    2.4848   -2.9628    1.6332 H   0  0  0  0  0  0  0  0  0  0  0  0
    3.9888   -2.6178    0.7696 H   0  0  0  0  0  0  0  0  0  0  0  0
    3.0030   -0.5204    1.6810 H   0  0  0  0  0  0  0  0  0  0  0  0
    0.5510   -1.0979    0.0717 H   0  0  0  0  0  0  0  0  0  0  0  0
   -1.4958    0.0264    2.3064 H   0  0  0  0  0  0  0  0  0  0  0  0
   -1.0981    1.4422    1.2528 H   0  0  0  0  0  0  0  0  0  0  0  0
   -2.3640   -1.5884   -1.7169 H   0  0  0  0  0  0  0  0  0  0  0  0
   -4.7015   -1.5469   -2.5217 H   0  0  0  0  0  0  0  0  0  0  0  0
   -6.3992   -0.1868   -1.3434 H   0  0  0  0  0  0  0  0  0  0  0  0
   -3.4168    1.1156    1.4697 H   0  0  0  0  0  0  0  0  0  0  0  0
    2.6925   -0.6715   -1.3707 H   0  0  0  0  0  0  0  0  0  0  0  0
    5.0346   -1.1440   -1.0348 H   0  0  0  0  0  0  0  0  0  0  0  0
    5.0970   -0.1634    0.4428 H   0  0  0  0  0  0  0  0  0  0  0  0
    5.9390    1.3901   -1.2196 H   0  0  0  0  0  0  0  0  0  0  0  0
    4.7353    0.8362   -2.4016 H   0  0  0  0  0  0  0  0  0  0  0  0
    3.5938    2.7398   -1.4900 H   0  0  0  0  0  0  0  0  0  0  0  0
    4.2196    2.4305    0.1454 H   0  0  0  0  0  0  0  0  0  0  0  0
  1  2  1  0
  2  3  1  0
  3  4  1  0
  4  5  2  0
  4  6  1  0
  6  7  1  0
  7  8  1  0
  8  9  2  0
  9 10  1  0
 10 11  2  0
 11 12  1  0
 12 13  1  0
 13 14  1  0
 13 15  1  0
 13 16  1  0
 12 17  2  0
  2 18  1  0
 18 19  1  0
 19 20  1  0
 20 21  1  0
 21 22  1  0
 17  8  1  0
 22 18  1  0
  1 23  1  0
  1 24  1  0
  1 25  1  0
  2 26  1  0
  3 27  1  0
  6 28  1  0
  6 29  1  0
  9 30  1  0
 10 31  1  0
 11 32  1  0
 17 33  1  0
 18 34  1  0
 19 35  1  0
 19 36  1  0
 20 37  1  0
 20 38  1  0
 21 39  1  0
 21 40  1  0
M  END
$$$$
