
     RDKit          3D

 42 43  0  0  0  0  0  0  0  0999 V2000
   -7.0966    0.6193    0.0456 C   0  0  0  0  0  0  0  0  0  0  0  0
   -6.3668   -0.5733    0.3019 O   0  0  0  0  0  0  0  0  0  0  0  0
   -5.0037   -0.5069    0.2049 C   0  0  0  0  0  0  0  0  0  0  0  0
   -4.3467   -1.7100    0.4666 C   0  0  0  0  0  0  0  0  0  0  0  0
   -2.9537   -1.7946    0.4056 C   0  0  0  0  0  0  0  0  0  0  0  0
   -2.2010   -0.6678    0.0823 C   0  0  0  0  0  0  0  0  0  0  0  0
   -0.7903   -0.6657   -0.0055 N   0  0  0  0  0  0  0  0  0  0  0  0
    0.0818   -1.6992    0.2623 C   0  0  0  0  0  0  0  0  0  0  0  0
   -0.2081   -2.8105    0.6897 O   0  0  0  0  0  0  0  0  0  0  0  0
    1.5241   -1.3868    0.0363 C   0  0  0  0  0  0  0  0  0  0  0  0
    1.9484   -0.4914   -0.9537 C   0  0  0  0  0  0  0  0  0  0  0  0
    3.3123   -0.2332   -1.1262 C   0  0  0  0  0  0  0  0  0  0  0  0
    4.2564   -0.8703   -0.3209 C   0  0  0  0  0  0  0  0  0  0  0  0
    5.6471   -0.6130   -0.4708 N   0  0  0  0  0  0  0  0  0  0  0  0
    6.2462    0.9395   -0.2128 S   0  0  0  0  0  6  0  0  0  0  0  0
    5.8477    1.2209    1.5016 C   0  0  0  0  0  0  0  0  0  0  0  0
    5.5141    1.8915   -1.0181 O   0  0  0  0  0  0  0  0  0  0  0  0
    7.6860    0.8242   -0.3084 O   0  0  0  0  0  0  0  0  0  0  0  0
    3.8413   -1.7845    0.6478 C   0  0  0  0  0  0  0  0  0  0  0  0
    2.4790   -2.0429    0.8250 C   0  0  0  0  0  0  0  0  0  0  0  0
   -2.8584    0.5525   -0.1876 C   0  0  0  0  0  0  0  0  0  0  0  0
   -2.0268    1.6055   -0.5036 O   0  0  0  0  0  0  0  0  0  0  0  0
   -2.6407    2.8571   -0.7869 C   0  0  0  0  0  0  0  0  0  0  0  0
   -4.2565    0.6264   -0.1236 C   0  0  0  0  0  0  0  0  0  0  0  0
   -8.1604    0.3928    0.1652 H   0  0  0  0  0  0  0  0  0  0  0  0
   -6.9428    0.9627   -0.9827 H   0  0  0  0  0  0  0  0  0  0  0  0
   -6.8395    1.4019    0.7671 H   0  0  0  0  0  0  0  0  0  0  0  0
   -4.9238   -2.5963    0.7209 H   0  0  0  0  0  0  0  0  0  0  0  0
   -2.4901   -2.7534    0.6128 H   0  0  0  0  0  0  0  0  0  0  0  0
   -0.4128    0.2462   -0.2403 H   0  0  0  0  0  0  0  0  0  0  0  0
    1.2405   -0.0088   -1.6223 H   0  0  0  0  0  0  0  0  0  0  0  0
    3.6275    0.4515   -1.9110 H   0  0  0  0  0  0  0  0  0  0  0  0
    6.2970   -1.3374   -0.1658 H   0  0  0  0  0  0  0  0  0  0  0  0
    4.7640    1.2657    1.6198 H   0  0  0  0  0  0  0  0  0  0  0  0
    6.2795    0.4186    2.1027 H   0  0  0  0  0  0  0  0  0  0  0  0
    6.2878    2.1774    1.7931 H   0  0  0  0  0  0  0  0  0  0  0  0
    4.5618   -2.3049    1.2727 H   0  0  0  0  0  0  0  0  0  0  0  0
    2.1605   -2.7598    1.5804 H   0  0  0  0  0  0  0  0  0  0  0  0
   -3.1870    3.2347    0.0836 H   0  0  0  0  0  0  0  0  0  0  0  0
   -1.8461    3.5734   -1.0167 H   0  0  0  0  0  0  0  0  0  0  0  0
   -3.2902    2.7881   -1.6658 H   0  0  0  0  0  0  0  0  0  0  0  0
   -4.7610    1.5606   -0.3287 H   0  0  0  0  0  0  0  0  0  0  0  0
  1  2  1  0
  2  3  1  0
  3  4  2  0
  4  5  1  0
  5  6  2  0
  6  7  1  0
  7  8  1  0
  8  9  2  0
  8 10  1  0
 10 11  2  0
 11 12  1  0
 12 13  2  0
 13 14  1  0
 14 15  1  0
 15 16  1  0
 15 17  2  0
 15 18  2  0
 13 19  1  0
 19 20  2  0
  6 21  1  0
 21 22  1  0
 22 23  1  0
 21 24  2  0
 24  3  1  0
 20 10  1  0
  1 25  1  0
  1 26  1  0
  1 27  1  0
  4 28  1  0
  5 29  1  0
  7 30  1  0
 11 31  1  0
 12 32  1  0
 14 33  1  0
 16 34  1  0
 16 35  1  0
 16 36  1  0
 19 37  1  0
 20 38  1  0
 23 39  1  0
 23 40  1  0
 23 41  1  0
 24 42  1  0
M  END
$$$$
