
     RDKit          3D

 41 43  0  0  0  0  0  0  0  0999 V2000
   -4.9997    1.5653   -3.1516 C   0  0  0  0  0  0  0  0  0  0  0  0
   -4.7580    0.0773   -2.8666 C   0  0  0  0  0  0  0  0  0  0  0  0
   -5.9369   -0.4918   -2.0704 C   0  0  0  0  0  0  0  0  0  0  0  0
   -3.4486   -0.2200   -2.1590 C   0  0  0  0  0  0  0  0  0  0  0  0
   -2.7634    0.6426   -1.3927 C   0  0  0  0  0  0  0  0  0  0  0  0
   -1.5053    0.1732   -0.8007 C   0  0  0  0  0  0  0  0  0  0  0  0
   -0.9670    1.1939   -0.0372 O   0  0  0  0  0  0  0  0  0  0  0  0
    0.2345    0.8520    0.5951 C   0  0  0  0  0  0  0  0  0  0  0  0
    0.2201    0.2840    1.8672 C   0  0  0  0  0  0  0  0  0  0  0  0
   -1.2657   -0.0169    2.6947 Cl  0  0  0  0  0  0  0  0  0  0  0  0
    1.4236   -0.0415    2.5079 C   0  0  0  0  0  0  0  0  0  0  0  0
    2.6648    0.2043    1.8988 C   0  0  0  0  0  0  0  0  0  0  0  0
    3.9270   -0.1136    2.5273 N   0  0  0  0  0  0  0  0  0  0  0  0
    5.0271    0.3450    1.8096 N   0  0  0  0  0  0  0  0  0  0  0  0
    6.2161    0.1082    2.2691 C   0  0  0  0  0  0  0  0  0  0  0  0
    7.2644    0.6394    1.4385 C   0  0  0  0  0  0  0  0  0  0  0  0
    8.1015    1.0819    0.7635 N   0  0  0  0  0  0  0  0  0  0  0  0
    6.4640   -0.6342    3.5354 C   0  0  0  0  0  0  0  0  0  0  0  0
    7.5969   -0.8977    3.9004 O   0  0  0  0  0  0  0  0  0  0  0  0
    5.3337   -0.9846    4.2076 N   0  0  0  0  0  0  0  0  0  0  0  0
    4.0531   -0.8154    3.7436 C   0  0  0  0  0  0  0  0  0  0  0  0
    3.1479   -1.3023    4.4165 O   0  0  0  0  0  0  0  0  0  0  0  0
    2.6481    0.8045    0.6213 C   0  0  0  0  0  0  0  0  0  0  0  0
    1.4498    1.1280   -0.0236 C   0  0  0  0  0  0  0  0  0  0  0  0
    1.5180    1.8746   -1.5779 Cl  0  0  0  0  0  0  0  0  0  0  0  0
   -0.9727   -0.9944   -0.9545 N   0  0  0  0  0  0  0  0  0  0  0  0
   -1.6772   -1.8561   -1.7467 N   0  0  0  0  0  0  0  0  0  0  0  0
   -2.8736   -1.5885   -2.3678 C   0  0  0  0  0  0  0  0  0  0  0  0
   -3.4397   -2.4290   -3.0595 O   0  0  0  0  0  0  0  0  0  0  0  0
   -4.1605    2.0033   -3.7026 H   0  0  0  0  0  0  0  0  0  0  0  0
   -5.8994    1.6947   -3.7635 H   0  0  0  0  0  0  0  0  0  0  0  0
   -5.1456    2.1399   -2.2304 H   0  0  0  0  0  0  0  0  0  0  0  0
   -4.7380   -0.4159   -3.8475 H   0  0  0  0  0  0  0  0  0  0  0  0
   -6.8784   -0.3317   -2.6072 H   0  0  0  0  0  0  0  0  0  0  0  0
   -5.8303   -1.5698   -1.9091 H   0  0  0  0  0  0  0  0  0  0  0  0
   -6.0234   -0.0119   -1.0887 H   0  0  0  0  0  0  0  0  0  0  0  0
   -3.0859    1.6519   -1.1812 H   0  0  0  0  0  0  0  0  0  0  0  0
    1.3471   -0.4750    3.4996 H   0  0  0  0  0  0  0  0  0  0  0  0
    5.4339   -1.5197    5.0578 H   0  0  0  0  0  0  0  0  0  0  0  0
    3.5776    1.0263    0.1009 H   0  0  0  0  0  0  0  0  0  0  0  0
   -1.2802   -2.7800   -1.8830 H   0  0  0  0  0  0  0  0  0  0  0  0
  1  2  1  0
  2  3  1  0
  2  4  1  0
  4  5  2  0
  5  6  1  0
  6  7  1  0
  7  8  1  0
  8  9  2  0
  9 10  1  0
  9 11  1  0
 11 12  2  0
 12 13  1  0
 13 14  1  0
 14 15  2  0
 15 16  1  0
 16 17  3  0
 15 18  1  0
 18 19  2  0
 18 20  1  0
 20 21  1  0
 21 22  2  0
 12 23  1  0
 23 24  2  0
 24 25  1  0
  6 26  2  0
 26 27  1  0
 27 28  1  0
 28 29  2  0
 28  4  1  0
 24  8  1  0
 21 13  1  0
  1 30  1  0
  1 31  1  0
  1 32  1  0
  2 33  1  0
  3 34  1  0
  3 35  1  0
  3 36  1  0
  5 37  1  0
 11 38  1  0
 20 39  1  0
 23 40  1  0
 27 41  1  0
M  END
$$$$
