
     RDKit          3D

 47 49  0  0  0  0  0  0  0  0999 V2000
    5.7577   -2.1618    1.8207 C   0  0  0  0  0  0  0  0  0  0  0  0
    5.8300   -1.5504    0.4331 C   0  0  0  0  0  0  0  0  0  0  0  0
    4.7071   -0.6741    0.1625 N   0  0  0  0  0  0  0  0  0  0  0  0
    3.5664   -0.9931   -0.5057 C   0  0  0  0  0  0  0  0  0  0  0  0
    2.7845    0.1472   -0.5292 C   0  0  0  0  0  0  0  0  0  0  0  0
    1.4798    0.2498   -1.1413 C   0  0  0  0  0  0  0  0  0  0  0  0
    0.9281   -0.7956   -1.6719 N   0  0  0  0  0  0  0  0  0  0  0  0
   -0.3367   -0.4052   -2.1686 O   0  0  0  0  0  0  0  0  0  0  0  0
   -0.4241    1.0144   -2.1206 C   0  0  0  0  0  0  0  0  0  0  0  0
   -1.7989    1.5569   -1.7018 C   0  0  0  0  0  0  0  0  0  0  0  0
   -2.2100    2.5885   -2.2463 O   0  0  0  0  0  0  0  0  0  0  0  0
   -2.5273    0.9380   -0.6894 N   0  0  0  0  0  0  0  0  0  0  0  0
   -3.8534    1.4685   -0.3684 C   0  0  0  0  0  0  0  0  0  0  0  0
   -4.8433    0.3483   -0.0785 C   0  0  0  0  0  0  0  0  0  0  0  0
   -4.3948   -0.5024    1.1152 C   0  0  0  0  0  0  0  0  0  0  0  0
   -4.9113   -1.9296    1.0142 C   0  0  0  0  0  0  0  0  0  0  0  0
   -4.4462   -2.6903   -0.0148 N   0  0  0  0  0  0  0  0  0  0  0  0
   -5.7002   -2.4041    1.8251 O   0  0  0  0  0  0  0  0  0  0  0  0
   -2.8765   -0.4689    1.3425 C   0  0  0  0  0  0  0  0  0  0  0  0
   -2.0841   -0.2412    0.0583 C   0  0  0  0  0  0  0  0  0  0  0  0
    0.6699    1.4881   -1.1962 C   0  0  0  0  0  0  0  0  0  0  0  0
    3.5684    1.1112    0.1701 C   0  0  0  0  0  0  0  0  0  0  0  0
    3.2597    2.5306    0.4787 C   0  0  0  0  0  0  0  0  0  0  0  0
    4.7360    0.6003    0.5830 N   0  0  0  0  0  0  0  0  0  0  0  0
    4.8421   -2.7499    1.9449 H   0  0  0  0  0  0  0  0  0  0  0  0
    5.7643   -1.3875    2.5951 H   0  0  0  0  0  0  0  0  0  0  0  0
    6.6139   -2.8218    1.9905 H   0  0  0  0  0  0  0  0  0  0  0  0
    5.8328   -2.3351   -0.3313 H   0  0  0  0  0  0  0  0  0  0  0  0
    6.7464   -0.9621    0.3134 H   0  0  0  0  0  0  0  0  0  0  0  0
    3.3946   -1.9831   -0.9068 H   0  0  0  0  0  0  0  0  0  0  0  0
   -0.2363    1.3689   -3.1422 H   0  0  0  0  0  0  0  0  0  0  0  0
   -4.2354    2.0838   -1.1896 H   0  0  0  0  0  0  0  0  0  0  0  0
   -3.7416    2.1236    0.5038 H   0  0  0  0  0  0  0  0  0  0  0  0
   -5.8315    0.7746    0.1331 H   0  0  0  0  0  0  0  0  0  0  0  0
   -4.9659   -0.2606   -0.9822 H   0  0  0  0  0  0  0  0  0  0  0  0
   -4.8593   -0.0855    2.0202 H   0  0  0  0  0  0  0  0  0  0  0  0
   -4.0390   -2.2890   -0.8478 H   0  0  0  0  0  0  0  0  0  0  0  0
   -4.8642   -3.6084   -0.1080 H   0  0  0  0  0  0  0  0  0  0  0  0
   -2.5280   -1.3842    1.8355 H   0  0  0  0  0  0  0  0  0  0  0  0
   -2.6509    0.3566    2.0313 H   0  0  0  0  0  0  0  0  0  0  0  0
   -2.1801   -1.1055   -0.6055 H   0  0  0  0  0  0  0  0  0  0  0  0
   -1.0285   -0.1309    0.3156 H   0  0  0  0  0  0  0  0  0  0  0  0
    1.2272    2.3244   -1.6248 H   0  0  0  0  0  0  0  0  0  0  0  0
    0.3192    1.7593   -0.1968 H   0  0  0  0  0  0  0  0  0  0  0  0
    2.3128    2.6099    1.0211 H   0  0  0  0  0  0  0  0  0  0  0  0
    3.1897    3.1161   -0.4429 H   0  0  0  0  0  0  0  0  0  0  0  0
    4.0369    2.9845    1.1030 H   0  0  0  0  0  0  0  0  0  0  0  0
  1  2  1  0
  2  3  1  0
  3  4  1  0
  4  5  2  0
  5  6  1  0
  6  7  2  0
  7  8  1  0
  8  9  1  0
  9 10  1  0
 10 11  2  0
 10 12  1  0
 12 13  1  0
 13 14  1  0
 14 15  1  0
 15 16  1  0
 16 17  1  0
 16 18  2  0
 15 19  1  0
 19 20  1  0
  9 21  1  0
  5 22  1  0
 22 23  1  0
 22 24  2  0
 24  3  1  0
 21  6  1  0
 20 12  1  0
  1 25  1  0
  1 26  1  0
  1 27  1  0
  2 28  1  0
  2 29  1  0
  4 30  1  0
  9 31  1  0
 13 32  1  0
 13 33  1  0
 14 34  1  0
 14 35  1  0
 15 36  1  0
 17 37  1  0
 17 38  1  0
 19 39  1  0
 19 40  1  0
 20 41  1  0
 20 42  1  0
 21 43  1  0
 21 44  1  0
 23 45  1  0
 23 46  1  0
 23 47  1  0
M  END
$$$$
