
     RDKit          3D

 21 22  0  0  0  0  0  0  0  0999 V2000
    2.9191   -1.0651    0.8730 O   0  0  0  0  0  0  0  0  0  0  0  0
    2.5955   -0.1261    0.1725 C   0  0  0  0  0  0  0  0  0  0  0  0
    3.5186    0.5443   -0.5433 O   0  0  0  0  0  0  0  0  0  0  0  0
    1.2261    0.4199   -0.0368 C   0  0  0  0  0  0  0  0  0  0  0  0
    1.1013    1.7786   -0.3809 C   0  0  0  0  0  0  0  0  0  0  0  0
   -0.1545    2.3417   -0.5623 C   0  0  0  0  0  0  0  0  0  0  0  0
   -1.2754    1.5421   -0.3959 C   0  0  0  0  0  0  0  0  0  0  0  0
   -2.5088    2.1223   -0.5792 O   0  0  0  0  0  0  0  0  0  0  0  0
   -1.2040    0.1945   -0.0568 C   0  0  0  0  0  0  0  0  0  0  0  0
   -2.3704   -0.4742    0.0710 N   0  0  0  0  0  0  0  0  0  0  0  0
   -2.3179   -1.7830    0.3922 C   0  0  0  0  0  0  0  0  0  0  0  0
   -1.1412   -2.4712    0.5918 C   0  0  0  0  0  0  0  0  0  0  0  0
    0.0551   -1.7728    0.4571 C   0  0  0  0  0  0  0  0  0  0  0  0
    0.0653   -0.3957    0.1295 C   0  0  0  0  0  0  0  0  0  0  0  0
    4.3605    0.0879   -0.3328 H   0  0  0  0  0  0  0  0  0  0  0  0
    1.9813    2.4069   -0.5022 H   0  0  0  0  0  0  0  0  0  0  0  0
   -0.2637    3.3893   -0.8271 H   0  0  0  0  0  0  0  0  0  0  0  0
   -3.1396    1.3880   -0.4146 H   0  0  0  0  0  0  0  0  0  0  0  0
   -3.2799   -2.2791    0.4859 H   0  0  0  0  0  0  0  0  0  0  0  0
   -1.1473   -3.5252    0.8467 H   0  0  0  0  0  0  0  0  0  0  0  0
    0.9798   -2.3233    0.6119 H   0  0  0  0  0  0  0  0  0  0  0  0
  1  2  2  0
  2  3  1  0
  2  4  1  0
  4  5  2  0
  5  6  1  0
  6  7  2  0
  7  8  1  0
  7  9  1  0
  9 10  2  0
 10 11  1  0
 11 12  2  0
 12 13  1  0
 13 14  2  0
 14  4  1  0
 14  9  1  0
  3 15  1  0
  5 16  1  0
  6 17  1  0
  8 18  1  0
 11 19  1  0
 12 20  1  0
 13 21  1  0
M  END
$$$$
