
     RDKit          3D

 46 48  0  0  0  0  0  0  0  0999 V2000
   -7.0978    1.6150   -0.9724 C   0  0  0  0  0  0  0  0  0  0  0  0
   -5.8085    0.9769   -1.4573 C   0  0  0  0  0  0  0  0  0  0  0  0
   -5.3580   -0.1655   -0.5674 C   0  0  0  0  0  0  0  0  0  0  0  0
   -5.9686   -0.5320    0.4303 O   0  0  0  0  0  0  0  0  0  0  0  0
   -4.1918   -0.7513   -1.0085 N   0  0  0  0  0  0  0  0  0  0  0  0
   -3.5168   -1.7717   -0.2400 C   0  0  0  0  0  0  0  0  0  0  0  0
   -2.4168   -1.1664    0.5941 C   0  0  0  0  0  0  0  0  0  0  0  0
   -2.6982   -0.6715    1.8842 C   0  0  0  0  0  0  0  0  0  0  0  0
   -1.6994   -0.0813    2.6608 C   0  0  0  0  0  0  0  0  0  0  0  0
   -0.4223    0.0118    2.1306 C   0  0  0  0  0  0  0  0  0  0  0  0
   -0.1338   -0.4608    0.8505 C   0  0  0  0  0  0  0  0  0  0  0  0
   -1.1176   -1.0477    0.0720 C   0  0  0  0  0  0  0  0  0  0  0  0
    1.2228   -0.2447    0.5457 N   0  0  0  0  0  0  0  0  0  0  0  0
    1.8188   -0.4943   -0.6800 C   0  0  0  0  0  0  0  0  0  0  0  0
    1.2505   -0.8631   -1.7042 O   0  0  0  0  0  0  0  0  0  0  0  0
    3.2761   -0.2649   -0.7739 C   0  0  0  0  0  0  0  0  0  0  0  0
    3.7471    0.7706   -1.5835 C   0  0  0  0  0  0  0  0  0  0  0  0
    5.1211    0.9926   -1.6884 C   0  0  0  0  0  0  0  0  0  0  0  0
    6.0267    0.1814   -0.9898 C   0  0  0  0  0  0  0  0  0  0  0  0
    7.5048    0.3981   -1.1364 C   0  0  0  0  0  0  0  0  0  0  0  0
    5.5413   -0.8777   -0.2095 C   0  0  0  0  0  0  0  0  0  0  0  0
    4.1681   -1.1038   -0.1009 C   0  0  0  0  0  0  0  0  0  0  0  0
    1.8741    0.3413    1.7329 C   0  0  0  0  0  0  0  0  0  0  0  0
    0.7770    0.6389    2.7630 C   0  0  0  0  0  0  0  0  0  0  0  0
   -7.3914    2.4337   -1.6365 H   0  0  0  0  0  0  0  0  0  0  0  0
   -7.9132    0.8845   -0.9483 H   0  0  0  0  0  0  0  0  0  0  0  0
   -6.9803    2.0196    0.0384 H   0  0  0  0  0  0  0  0  0  0  0  0
   -5.9502    0.5913   -2.4731 H   0  0  0  0  0  0  0  0  0  0  0  0
   -5.0147    1.7318   -1.4821 H   0  0  0  0  0  0  0  0  0  0  0  0
   -3.6520   -0.2821   -1.7231 H   0  0  0  0  0  0  0  0  0  0  0  0
   -3.1009   -2.4954   -0.9498 H   0  0  0  0  0  0  0  0  0  0  0  0
   -4.2270   -2.3129    0.3951 H   0  0  0  0  0  0  0  0  0  0  0  0
   -3.7121   -0.7394    2.2786 H   0  0  0  0  0  0  0  0  0  0  0  0
   -1.9285    0.3031    3.6497 H   0  0  0  0  0  0  0  0  0  0  0  0
   -0.8966   -1.4176   -0.9239 H   0  0  0  0  0  0  0  0  0  0  0  0
    3.0484    1.3950   -2.1349 H   0  0  0  0  0  0  0  0  0  0  0  0
    5.4824    1.7974   -2.3254 H   0  0  0  0  0  0  0  0  0  0  0  0
    7.7292    1.4566   -1.3045 H   0  0  0  0  0  0  0  0  0  0  0  0
    8.0356    0.0941   -0.2281 H   0  0  0  0  0  0  0  0  0  0  0  0
    7.8861   -0.1836   -1.9812 H   0  0  0  0  0  0  0  0  0  0  0  0
    6.2327   -1.5382    0.3097 H   0  0  0  0  0  0  0  0  0  0  0  0
    3.7997   -1.9371    0.4915 H   0  0  0  0  0  0  0  0  0  0  0  0
    2.5874   -0.3876    2.1335 H   0  0  0  0  0  0  0  0  0  0  0  0
    2.4248    1.2457    1.4526 H   0  0  0  0  0  0  0  0  0  0  0  0
    0.6315    1.7179    2.8771 H   0  0  0  0  0  0  0  0  0  0  0  0
    1.0104    0.1936    3.7346 H   0  0  0  0  0  0  0  0  0  0  0  0
  1  2  1  0
  2  3  1  0
  3  4  2  0
  3  5  1  0
  5  6  1  0
  6  7  1  0
  7  8  2  0
  8  9  1  0
  9 10  2  0
 10 11  1  0
 11 12  2  0
 11 13  1  0
 13 14  1  0
 14 15  2  0
 14 16  1  0
 16 17  2  0
 17 18  1  0
 18 19  2  0
 19 20  1  0
 19 21  1  0
 21 22  2  0
 13 23  1  0
 23 24  1  0
 12  7  1  0
 22 16  1  0
 24 10  1  0
  1 25  1  0
  1 26  1  0
  1 27  1  0
  2 28  1  0
  2 29  1  0
  5 30  1  0
  6 31  1  0
  6 32  1  0
  8 33  1  0
  9 34  1  0
 12 35  1  0
 17 36  1  0
 18 37  1  0
 20 38  1  0
 20 39  1  0
 20 40  1  0
 21 41  1  0
 22 42  1  0
 23 43  1  0
 23 44  1  0
 24 45  1  0
 24 46  1  0
M  END
$$$$
