
     RDKit          3D

 50 52  0  0  0  0  0  0  0  0999 V2000
    4.9718   -0.0083   -2.4095 C   0  0  0  0  0  0  0  0  0  0  0  0
    5.1076    0.3860   -0.9874 C   0  0  0  0  0  0  0  0  0  0  0  0
    5.7995    1.4940   -0.4536 C   0  0  0  0  0  0  0  0  0  0  0  0
    5.6273    1.4152    0.9122 C   0  0  0  0  0  0  0  0  0  0  0  0
    6.1166    2.3037    1.9935 C   0  0  0  0  0  0  0  0  0  0  0  0
    4.8716    0.2903    1.1207 N   0  0  0  0  0  0  0  0  0  0  0  0
    4.3967   -0.2578    2.3818 C   0  0  0  0  0  0  0  0  0  0  0  0
    2.8832   -0.1264    2.5249 C   0  0  0  0  0  0  0  0  0  0  0  0
    2.1602   -0.9276    1.5517 N   0  0  0  0  0  0  0  0  0  0  0  0
    0.7965   -1.0805    1.6232 C   0  0  0  0  0  0  0  0  0  0  0  0
    0.1227   -0.6813    2.5657 O   0  0  0  0  0  0  0  0  0  0  0  0
    0.2182   -1.7940    0.4179 C   0  0  0  0  0  0  0  0  0  0  0  0
   -1.3009   -1.9561    0.4775 C   0  0  0  0  0  0  0  0  0  0  0  0
   -2.0755   -0.6409    0.4319 C   0  0  0  0  0  0  0  0  0  0  0  0
   -1.8209    0.1285   -0.7472 N   0  0  0  0  0  0  0  0  0  0  0  0
   -2.9885    0.4911   -1.3843 C   0  0  0  0  0  0  0  0  0  0  0  0
   -2.9620    1.3107   -2.2901 O   0  0  0  0  0  0  0  0  0  0  0  0
   -4.0474   -0.1685   -0.8014 N   0  0  0  0  0  0  0  0  0  0  0  0
   -5.4091   -0.0953   -1.2343 C   0  0  0  0  0  0  0  0  0  0  0  0
   -5.7668    0.5496   -2.4313 C   0  0  0  0  0  0  0  0  0  0  0  0
   -7.0985    0.6218   -2.8618 C   0  0  0  0  0  0  0  0  0  0  0  0
   -8.1105    0.0478   -2.1044 C   0  0  0  0  0  0  0  0  0  0  0  0
   -7.7884   -0.5979   -0.9183 C   0  0  0  0  0  0  0  0  0  0  0  0
   -6.4553   -0.6681   -0.4911 C   0  0  0  0  0  0  0  0  0  0  0  0
   -3.5805   -0.8833    0.2872 C   0  0  0  0  0  0  0  0  0  0  0  0
   -4.1986   -1.6038    1.0631 O   0  0  0  0  0  0  0  0  0  0  0  0
    4.5304   -0.3429   -0.0255 N   0  0  0  0  0  0  0  0  0  0  0  0
    3.9166   -0.0445   -2.6991 H   0  0  0  0  0  0  0  0  0  0  0  0
    5.4789    0.7047   -3.0673 H   0  0  0  0  0  0  0  0  0  0  0  0
    5.4118   -0.9965   -2.5772 H   0  0  0  0  0  0  0  0  0  0  0  0
    6.3507    2.2512   -0.9943 H   0  0  0  0  0  0  0  0  0  0  0  0
    6.8032    1.7661    2.6551 H   0  0  0  0  0  0  0  0  0  0  0  0
    5.2818    2.6868    2.5890 H   0  0  0  0  0  0  0  0  0  0  0  0
    6.6540    3.1631    1.5794 H   0  0  0  0  0  0  0  0  0  0  0  0
    4.7106   -1.3077    2.4098 H   0  0  0  0  0  0  0  0  0  0  0  0
    4.8997    0.2662    3.1995 H   0  0  0  0  0  0  0  0  0  0  0  0
    2.5654    0.9149    2.3951 H   0  0  0  0  0  0  0  0  0  0  0  0
    2.5732   -0.4473    3.5256 H   0  0  0  0  0  0  0  0  0  0  0  0
    2.6153   -1.0306    0.6421 H   0  0  0  0  0  0  0  0  0  0  0  0
    0.5123   -1.2534   -0.4886 H   0  0  0  0  0  0  0  0  0  0  0  0
    0.6759   -2.7897    0.3727 H   0  0  0  0  0  0  0  0  0  0  0  0
   -1.6086   -2.5913   -0.3639 H   0  0  0  0  0  0  0  0  0  0  0  0
   -1.5763   -2.5035    1.3881 H   0  0  0  0  0  0  0  0  0  0  0  0
   -1.9106   -0.0027    1.3042 H   0  0  0  0  0  0  0  0  0  0  0  0
   -0.9961    0.6932   -0.9067 H   0  0  0  0  0  0  0  0  0  0  0  0
   -5.0262    1.0078   -3.0800 H   0  0  0  0  0  0  0  0  0  0  0  0
   -7.3361    1.1282   -3.7942 H   0  0  0  0  0  0  0  0  0  0  0  0
   -9.1435    0.1028   -2.4365 H   0  0  0  0  0  0  0  0  0  0  0  0
   -8.5713   -1.0507   -0.3146 H   0  0  0  0  0  0  0  0  0  0  0  0
   -6.2802   -1.1786    0.4507 H   0  0  0  0  0  0  0  0  0  0  0  0
  1  2  1  0
  2  3  1  0
  3  4  2  0
  4  5  1  0
  4  6  1  0
  6  7  1  0
  7  8  1  0
  8  9  1  0
  9 10  1  0
 10 11  2  0
 10 12  1  0
 12 13  1  0
 13 14  1  0
 14 15  1  0
 15 16  1  0
 16 17  2  0
 16 18  1  0
 18 19  1  0
 19 20  2  0
 20 21  1  0
 21 22  2  0
 22 23  1  0
 23 24  2  0
 18 25  1  0
 25 26  2  0
  6 27  1  0
 27  2  2  0
 25 14  1  0
 24 19  1  0
  1 28  1  0
  1 29  1  0
  1 30  1  0
  3 31  1  0
  5 32  1  0
  5 33  1  0
  5 34  1  0
  7 35  1  0
  7 36  1  0
  8 37  1  0
  8 38  1  0
  9 39  1  0
 12 40  1  0
 12 41  1  0
 13 42  1  0
 13 43  1  0
 14 44  1  0
 15 45  1  0
 20 46  1  0
 21 47  1  0
 22 48  1  0
 23 49  1  0
 24 50  1  0
M  END
$$$$
