
     RDKit          3D

 56 58  0  0  0  0  0  0  0  0999 V2000
   -6.0283   -3.1242    1.4248 C   0  0  0  0  0  0  0  0  0  0  0  0
   -5.3141   -1.8051    1.1245 C   0  0  0  0  0  0  0  0  0  0  0  0
   -4.2519   -1.5360    2.1917 C   0  0  0  0  0  0  0  0  0  0  0  0
   -4.7146   -1.8526   -0.2897 C   0  0  0  0  0  0  0  0  0  0  0  0
   -4.1517   -0.5885   -0.7318 N   0  0  0  0  0  0  0  0  0  0  0  0
   -4.9866    0.3975   -1.1241 N   0  0  0  0  0  0  0  0  0  0  0  0
   -4.1631    1.3816   -1.4886 C   0  0  0  0  0  0  0  0  0  0  0  0
   -2.8024    1.0360   -1.3457 C   0  0  0  0  0  0  0  0  0  0  0  0
   -1.5717    1.6726   -1.5797 C   0  0  0  0  0  0  0  0  0  0  0  0
   -0.3830    0.9760   -1.2968 C   0  0  0  0  0  0  0  0  0  0  0  0
    0.8208    1.6005   -1.5508 O   0  0  0  0  0  0  0  0  0  0  0  0
    1.1266    2.6959   -0.7719 C   0  0  0  0  0  0  0  0  0  0  0  0
    1.6791    3.7947   -1.4365 C   0  0  0  0  0  0  0  0  0  0  0  0
    2.0518    4.9280   -0.7115 C   0  0  0  0  0  0  0  0  0  0  0  0
    1.8850    4.9477    0.6704 C   0  0  0  0  0  0  0  0  0  0  0  0
    2.2494    6.0342    1.3616 F   0  0  0  0  0  0  0  0  0  0  0  0
    1.3586    3.8550    1.3459 C   0  0  0  0  0  0  0  0  0  0  0  0
    0.9875    2.7289    0.6201 C   0  0  0  0  0  0  0  0  0  0  0  0
    0.5179    1.6675    1.2894 F   0  0  0  0  0  0  0  0  0  0  0  0
   -0.4108   -0.3447   -0.8256 C   0  0  0  0  0  0  0  0  0  0  0  0
    0.8164   -1.1385   -0.5293 C   0  0  0  0  0  0  0  0  0  0  0  0
    0.7898   -2.0121    0.3329 O   0  0  0  0  0  0  0  0  0  0  0  0
    1.9312   -0.8687   -1.2905 N   0  0  0  0  0  0  0  0  0  0  0  0
    3.2181   -1.4756   -1.0034 C   0  0  0  0  0  0  0  0  0  0  0  0
    3.9682   -0.7176    0.1100 C   0  0  0  0  0  0  0  0  0  0  0  0
    5.3632   -1.1664    0.2936 N   0  0  0  0  0  0  0  0  0  0  0  0
    5.4164   -2.5080    0.8831 C   0  0  0  0  0  0  0  0  0  0  0  0
    6.0790   -0.2246    1.1588 C   0  0  0  0  0  0  0  0  0  0  0  0
   -1.6422   -0.9759   -0.5736 C   0  0  0  0  0  0  0  0  0  0  0  0
   -2.8195   -0.2645   -0.8498 C   0  0  0  0  0  0  0  0  0  0  0  0
   -6.8228   -3.3126    0.6945 H   0  0  0  0  0  0  0  0  0  0  0  0
   -6.4871   -3.1024    2.4189 H   0  0  0  0  0  0  0  0  0  0  0  0
   -5.3321   -3.9690    1.3924 H   0  0  0  0  0  0  0  0  0  0  0  0
   -6.0568   -0.9998    1.1754 H   0  0  0  0  0  0  0  0  0  0  0  0
   -4.6953   -1.5580    3.1934 H   0  0  0  0  0  0  0  0  0  0  0  0
   -3.7963   -0.5493    2.0586 H   0  0  0  0  0  0  0  0  0  0  0  0
   -3.4553   -2.2867    2.1585 H   0  0  0  0  0  0  0  0  0  0  0  0
   -3.9357   -2.6196   -0.3598 H   0  0  0  0  0  0  0  0  0  0  0  0
   -5.4862   -2.1174   -1.0240 H   0  0  0  0  0  0  0  0  0  0  0  0
   -4.5863    2.3117   -1.8464 H   0  0  0  0  0  0  0  0  0  0  0  0
   -1.5446    2.6836   -1.9734 H   0  0  0  0  0  0  0  0  0  0  0  0
    1.8191    3.7695   -2.5143 H   0  0  0  0  0  0  0  0  0  0  0  0
    2.4771    5.7926   -1.2124 H   0  0  0  0  0  0  0  0  0  0  0  0
    1.2483    3.8751    2.4240 H   0  0  0  0  0  0  0  0  0  0  0  0
    1.9068   -0.0925   -1.9407 H   0  0  0  0  0  0  0  0  0  0  0  0
    3.0501   -2.5210   -0.7179 H   0  0  0  0  0  0  0  0  0  0  0  0
    3.7908   -1.4613   -1.9396 H   0  0  0  0  0  0  0  0  0  0  0  0
    3.9729    0.3451   -0.1717 H   0  0  0  0  0  0  0  0  0  0  0  0
    3.4065   -0.7824    1.0512 H   0  0  0  0  0  0  0  0  0  0  0  0
    4.9210   -2.5497    1.8603 H   0  0  0  0  0  0  0  0  0  0  0  0
    4.9526   -3.2516    0.2268 H   0  0  0  0  0  0  0  0  0  0  0  0
    6.4577   -2.8266    1.0136 H   0  0  0  0  0  0  0  0  0  0  0  0
    5.6242   -0.1435    2.1524 H   0  0  0  0  0  0  0  0  0  0  0  0
    6.1005    0.7733    0.7051 H   0  0  0  0  0  0  0  0  0  0  0  0
    7.1234   -0.5324    1.2808 H   0  0  0  0  0  0  0  0  0  0  0  0
   -1.6715   -1.9883   -0.1806 H   0  0  0  0  0  0  0  0  0  0  0  0
  1  2  1  0
  2  3  1  0
  2  4  1  0
  4  5  1  0
  5  6  1  0
  6  7  2  0
  7  8  1  0
  8  9  2  0
  9 10  1  0
 10 11  1  0
 11 12  1  0
 12 13  2  0
 13 14  1  0
 14 15  2  0
 15 16  1  0
 15 17  1  0
 17 18  2  0
 18 19  1  0
 10 20  2  0
 20 21  1  0
 21 22  2  0
 21 23  1  0
 23 24  1  0
 24 25  1  0
 25 26  1  0
 26 27  1  0
 26 28  1  0
 20 29  1  0
 29 30  2  0
 30  5  1  0
 30  8  1  0
 18 12  1  0
  1 31  1  0
  1 32  1  0
  1 33  1  0
  2 34  1  0
  3 35  1  0
  3 36  1  0
  3 37  1  0
  4 38  1  0
  4 39  1  0
  7 40  1  0
  9 41  1  0
 13 42  1  0
 14 43  1  0
 17 44  1  0
 23 45  1  0
 24 46  1  0
 24 47  1  0
 25 48  1  0
 25 49  1  0
 27 50  1  0
 27 51  1  0
 27 52  1  0
 28 53  1  0
 28 54  1  0
 28 55  1  0
 29 56  1  0
M  END
$$$$
