
     RDKit          3D

 52 53  0  0  0  0  0  0  0  0999 V2000
   -6.7068    0.7247    1.1474 C   0  0  0  0  0  0  0  0  0  0  0  0
   -6.3398    0.3382   -0.2917 C   0  0  0  0  0  0  0  0  0  0  0  0
   -7.3947   -0.6431   -0.8277 C   0  0  0  0  0  0  0  0  0  0  0  0
   -6.3107    1.5811   -1.1906 C   0  0  0  0  0  0  0  0  0  0  0  0
   -4.9620   -0.3346   -0.3108 C   0  0  0  0  0  0  0  0  0  0  0  0
   -4.7447   -1.4628   -0.7352 O   0  0  0  0  0  0  0  0  0  0  0  0
   -4.0080    0.5343    0.2167 O   0  0  0  0  0  0  0  0  0  0  0  0
   -2.7205   -0.0035    0.2372 C   0  0  0  0  0  0  0  0  0  0  0  0
   -2.3001   -0.7231    1.3561 C   0  0  0  0  0  0  0  0  0  0  0  0
   -0.9979   -1.2196    1.3948 C   0  0  0  0  0  0  0  0  0  0  0  0
   -0.1329   -0.9696    0.3219 C   0  0  0  0  0  0  0  0  0  0  0  0
    1.5244   -1.6093    0.3824 S   0  0  0  0  0  6  0  0  0  0  0  0
    1.4399   -2.9453    0.9320 O   0  0  0  0  0  0  0  0  0  0  0  0
    2.1663   -1.3585   -0.8917 O   0  0  0  0  0  0  0  0  0  0  0  0
    2.2422   -0.6288    1.5730 N   0  0  0  0  0  0  0  0  0  0  0  0
    2.7802    0.6222    1.1158 C   0  0  0  0  0  0  0  0  0  0  0  0
    1.9271    1.7265    1.0457 C   0  0  0  0  0  0  0  0  0  0  0  0
    2.3899    2.9388    0.5311 C   0  0  0  0  0  0  0  0  0  0  0  0
    3.7044    3.0521    0.0795 C   0  0  0  0  0  0  0  0  0  0  0  0
    4.5627    1.9522    0.1379 C   0  0  0  0  0  0  0  0  0  0  0  0
    4.1015    0.7289    0.6457 C   0  0  0  0  0  0  0  0  0  0  0  0
    5.0105   -0.4434    0.7306 C   0  0  0  0  0  0  0  0  0  0  0  0
    4.8874   -1.2486    1.6487 O   0  0  0  0  0  0  0  0  0  0  0  0
    5.9390   -0.5750   -0.2746 N   0  0  0  0  0  0  0  0  0  0  0  0
    6.7485   -1.7786   -0.3715 C   0  0  0  0  0  0  0  0  0  0  0  0
    7.7223   -1.6555   -1.5265 C   0  0  0  0  0  0  0  0  0  0  0  0
    7.7340   -0.7722   -2.3718 O   0  0  0  0  0  0  0  0  0  0  0  0
    8.6151   -2.6634   -1.5725 O   0  0  0  0  0  0  0  0  0  0  0  0
   -0.5601   -0.2414   -0.7952 C   0  0  0  0  0  0  0  0  0  0  0  0
   -1.8627    0.2548   -0.8321 C   0  0  0  0  0  0  0  0  0  0  0  0
   -7.7172    1.1453    1.1997 H   0  0  0  0  0  0  0  0  0  0  0  0
   -6.6677   -0.1468    1.8110 H   0  0  0  0  0  0  0  0  0  0  0  0
   -6.0174    1.4732    1.5541 H   0  0  0  0  0  0  0  0  0  0  0  0
   -7.4366   -1.5530   -0.2176 H   0  0  0  0  0  0  0  0  0  0  0  0
   -8.3939   -0.1933   -0.8266 H   0  0  0  0  0  0  0  0  0  0  0  0
   -7.1674   -0.9491   -1.8556 H   0  0  0  0  0  0  0  0  0  0  0  0
   -7.2986    2.0510   -1.2500 H   0  0  0  0  0  0  0  0  0  0  0  0
   -5.6079    2.3341   -0.8165 H   0  0  0  0  0  0  0  0  0  0  0  0
   -5.9970    1.3232   -2.2087 H   0  0  0  0  0  0  0  0  0  0  0  0
   -2.9798   -0.9055    2.1831 H   0  0  0  0  0  0  0  0  0  0  0  0
   -0.6612   -1.7969    2.2534 H   0  0  0  0  0  0  0  0  0  0  0  0
    2.9329   -1.2096    2.0733 H   0  0  0  0  0  0  0  0  0  0  0  0
    0.9025    1.6547    1.4013 H   0  0  0  0  0  0  0  0  0  0  0  0
    1.7238    3.7975    0.4863 H   0  0  0  0  0  0  0  0  0  0  0  0
    4.0635    4.0014   -0.3125 H   0  0  0  0  0  0  0  0  0  0  0  0
    5.5911    2.0674   -0.1949 H   0  0  0  0  0  0  0  0  0  0  0  0
    5.8294   -0.0335   -1.1265 H   0  0  0  0  0  0  0  0  0  0  0  0
    7.2954   -1.9056    0.5674 H   0  0  0  0  0  0  0  0  0  0  0  0
    6.0844   -2.6308   -0.5433 H   0  0  0  0  0  0  0  0  0  0  0  0
    9.1622   -2.4703   -2.3626 H   0  0  0  0  0  0  0  0  0  0  0  0
    0.1115   -0.0573   -1.6307 H   0  0  0  0  0  0  0  0  0  0  0  0
   -2.2063    0.8265   -1.6891 H   0  0  0  0  0  0  0  0  0  0  0  0
  1  2  1  0
  2  3  1  0
  2  4  1  0
  2  5  1  0
  5  6  2  0
  5  7  1  0
  7  8  1  0
  8  9  2  0
  9 10  1  0
 10 11  2  0
 11 12  1  0
 12 13  2  0
 12 14  2  0
 12 15  1  0
 15 16  1  0
 16 17  2  0
 17 18  1  0
 18 19  2  0
 19 20  1  0
 20 21  2  0
 21 22  1  0
 22 23  2  0
 22 24  1  0
 24 25  1  0
 25 26  1  0
 26 27  2  0
 26 28  1  0
 11 29  1  0
 29 30  2  0
 30  8  1  0
 21 16  1  0
  1 31  1  0
  1 32  1  0
  1 33  1  0
  3 34  1  0
  3 35  1  0
  3 36  1  0
  4 37  1  0
  4 38  1  0
  4 39  1  0
  9 40  1  0
 10 41  1  0
 15 42  1  0
 17 43  1  0
 18 44  1  0
 19 45  1  0
 20 46  1  0
 24 47  1  0
 25 48  1  0
 25 49  1  0
 28 50  1  0
 29 51  1  0
 30 52  1  0
M  END
$$$$
