
     RDKit          3D

 43 46  0  0  0  0  0  0  0  0999 V2000
    6.7755   -1.0704   -2.1727 C   0  0  0  0  0  0  0  0  0  0  0  0
    6.0863   -1.0567   -0.8960 N   0  0  0  0  0  0  0  0  0  0  0  0
    4.8480   -0.4471   -0.8921 N   0  0  0  0  0  0  0  0  0  0  0  0
    4.1881   -0.4376    0.2225 C   0  0  0  0  0  0  0  0  0  0  0  0
    2.8691    0.1993    0.2446 C   0  0  0  0  0  0  0  0  0  0  0  0
    2.4164    0.9911   -0.8013 C   0  0  0  0  0  0  0  0  0  0  0  0
    0.8534    1.6328   -0.5490 S   0  0  0  0  0  0  0  0  0  0  0  0
    0.7167    0.8533    0.9598 C   0  0  0  0  0  0  0  0  0  0  0  0
   -0.8064    1.0992    1.8443 S   0  0  0  0  0  6  0  0  0  0  0  0
   -0.8133    0.0568    2.8502 O   0  0  0  0  0  0  0  0  0  0  0  0
   -0.8058    2.4973    2.2146 O   0  0  0  0  0  0  0  0  0  0  0  0
   -2.1030    0.8094    0.7883 N   0  0  0  0  0  0  0  0  0  0  0  0
   -2.2365   -0.5925    0.3170 C   0  0  0  0  0  0  0  0  0  0  0  0
   -3.1770   -0.6268   -0.8877 C   0  0  0  0  0  0  0  0  0  0  0  0
   -4.4982    0.0330   -0.5833 C   0  0  0  0  0  0  0  0  0  0  0  0
   -5.6256   -0.2613   -1.3619 C   0  0  0  0  0  0  0  0  0  0  0  0
   -6.8436    0.3665   -1.1036 C   0  0  0  0  0  0  0  0  0  0  0  0
   -6.9433    1.2977   -0.0728 C   0  0  0  0  0  0  0  0  0  0  0  0
   -5.8234    1.6073    0.6991 C   0  0  0  0  0  0  0  0  0  0  0  0
   -4.5899    0.9881    0.4460 C   0  0  0  0  0  0  0  0  0  0  0  0
   -3.3936    1.3295    1.3120 C   0  0  0  0  0  0  0  0  0  0  0  0
    1.8540    0.1275    1.2626 C   0  0  0  0  0  0  0  0  0  0  0  0
    4.6637   -1.0182    1.4900 C   0  0  0  0  0  0  0  0  0  0  0  0
    5.8557   -1.6176    1.4560 C   0  0  0  0  0  0  0  0  0  0  0  0
    6.6467   -1.6846    0.2082 C   0  0  0  0  0  0  0  0  0  0  0  0
    7.7250   -2.2712    0.2235 O   0  0  0  0  0  0  0  0  0  0  0  0
    7.8044   -1.4249   -2.0705 H   0  0  0  0  0  0  0  0  0  0  0  0
    6.7861   -0.0562   -2.5827 H   0  0  0  0  0  0  0  0  0  0  0  0
    6.2339   -1.7346   -2.8525 H   0  0  0  0  0  0  0  0  0  0  0  0
    2.9451    1.2341   -1.7148 H   0  0  0  0  0  0  0  0  0  0  0  0
   -1.2641   -0.9911    0.0105 H   0  0  0  0  0  0  0  0  0  0  0  0
   -2.6241   -1.2243    1.1260 H   0  0  0  0  0  0  0  0  0  0  0  0
   -2.7177   -0.1001   -1.7334 H   0  0  0  0  0  0  0  0  0  0  0  0
   -3.3362   -1.6701   -1.1839 H   0  0  0  0  0  0  0  0  0  0  0  0
   -5.5602   -0.9807   -2.1751 H   0  0  0  0  0  0  0  0  0  0  0  0
   -7.7149    0.1314   -1.7093 H   0  0  0  0  0  0  0  0  0  0  0  0
   -7.8934    1.7864    0.1275 H   0  0  0  0  0  0  0  0  0  0  0  0
   -5.9168    2.3396    1.4985 H   0  0  0  0  0  0  0  0  0  0  0  0
   -3.3242    2.4221    1.3738 H   0  0  0  0  0  0  0  0  0  0  0  0
   -3.5749    0.9239    2.3151 H   0  0  0  0  0  0  0  0  0  0  0  0
    1.9238   -0.4346    2.1862 H   0  0  0  0  0  0  0  0  0  0  0  0
    4.0927   -0.9516    2.4027 H   0  0  0  0  0  0  0  0  0  0  0  0
    6.3018   -2.0743    2.3304 H   0  0  0  0  0  0  0  0  0  0  0  0
  1  2  1  0
  2  3  1  0
  3  4  2  0
  4  5  1  0
  5  6  2  0
  6  7  1  0
  7  8  1  0
  8  9  1  0
  9 10  2  0
  9 11  2  0
  9 12  1  0
 12 13  1  0
 13 14  1  0
 14 15  1  0
 15 16  2  0
 16 17  1  0
 17 18  2  0
 18 19  1  0
 19 20  2  0
 20 21  1  0
  8 22  2  0
  4 23  1  0
 23 24  2  0
 24 25  1  0
 25 26  2  0
 25  2  1  0
 22  5  1  0
 21 12  1  0
 20 15  1  0
  1 27  1  0
  1 28  1  0
  1 29  1  0
  6 30  1  0
 13 31  1  0
 13 32  1  0
 14 33  1  0
 14 34  1  0
 16 35  1  0
 17 36  1  0
 18 37  1  0
 19 38  1  0
 21 39  1  0
 21 40  1  0
 22 41  1  0
 23 42  1  0
 24 43  1  0
M  END
$$$$
