
     RDKit          3D

 51 53  0  0  0  0  0  0  0  0999 V2000
   -4.0215    2.3095    2.1050 C   0  0  0  0  0  0  0  0  0  0  0  0
   -4.3284    0.9272    1.5501 C   0  0  0  0  0  0  0  0  0  0  0  0
   -3.5882    0.6615    0.3152 N   0  0  0  0  0  0  0  0  0  0  0  0
   -4.2379    1.0339   -0.9433 C   0  0  0  0  0  0  0  0  0  0  0  0
   -5.1229   -0.0847   -1.4707 C   0  0  0  0  0  0  0  0  0  0  0  0
   -2.3073    0.1175    0.4220 C   0  0  0  0  0  0  0  0  0  0  0  0
   -1.8102   -0.1554    1.5176 O   0  0  0  0  0  0  0  0  0  0  0  0
   -1.5459   -0.1548   -0.8870 C   0  0  0  0  0  0  0  0  0  0  0  0
   -0.2408   -0.7816   -0.6461 N   0  0  0  0  0  0  0  0  0  0  0  0
    0.8108    0.1093   -0.3890 C   0  0  0  0  0  0  0  0  0  0  0  0
    0.6193    1.3259   -0.4223 O   0  0  0  0  0  0  0  0  0  0  0  0
    2.0779   -0.4173   -0.0632 N   0  0  0  0  0  0  0  0  0  0  0  0
    3.1222    0.5445    0.1439 C   0  0  0  0  0  0  0  0  0  0  0  0
    3.8926    1.0305   -0.9190 C   0  0  0  0  0  0  0  0  0  0  0  0
    4.8791    1.9943   -0.6899 C   0  0  0  0  0  0  0  0  0  0  0  0
    5.1004    2.4841    0.6023 C   0  0  0  0  0  0  0  0  0  0  0  0
    6.1320    3.5390    0.8614 C   0  0  0  0  0  0  0  0  0  0  0  0
    4.2987    2.0115    1.6452 C   0  0  0  0  0  0  0  0  0  0  0  0
    4.4722    2.4898    2.8860 F   0  0  0  0  0  0  0  0  0  0  0  0
    3.3150    1.0522    1.4286 C   0  0  0  0  0  0  0  0  0  0  0  0
    2.5535   -1.9137   -0.6091 S   0  0  0  0  0  6  0  0  0  0  0  0
    3.5272   -2.4610    0.3152 O   0  0  0  0  0  0  0  0  0  0  0  0
    2.8300   -1.8431   -2.0302 O   0  0  0  0  0  0  0  0  0  0  0  0
    1.0885   -2.8492   -0.4293 C   0  0  0  0  0  0  0  0  0  0  0  0
    1.2039   -4.2365   -0.2512 C   0  0  0  0  0  0  0  0  0  0  0  0
    0.0578   -5.0136   -0.1459 C   0  0  0  0  0  0  0  0  0  0  0  0
   -1.1875   -4.4011   -0.2175 C   0  0  0  0  0  0  0  0  0  0  0  0
   -1.2861   -3.0131   -0.3883 C   0  0  0  0  0  0  0  0  0  0  0  0
   -0.1427   -2.2000   -0.4894 C   0  0  0  0  0  0  0  0  0  0  0  0
   -2.9553    2.4172    2.3297 H   0  0  0  0  0  0  0  0  0  0  0  0
   -4.5846    2.4824    3.0272 H   0  0  0  0  0  0  0  0  0  0  0  0
   -4.2912    3.0914    1.3879 H   0  0  0  0  0  0  0  0  0  0  0  0
   -5.4009    0.8257    1.3517 H   0  0  0  0  0  0  0  0  0  0  0  0
   -4.0694    0.1720    2.3006 H   0  0  0  0  0  0  0  0  0  0  0  0
   -4.8316    1.9396   -0.7765 H   0  0  0  0  0  0  0  0  0  0  0  0
   -3.4869    1.2852   -1.6961 H   0  0  0  0  0  0  0  0  0  0  0  0
   -5.9208   -0.3254   -0.7609 H   0  0  0  0  0  0  0  0  0  0  0  0
   -5.5870    0.2123   -2.4162 H   0  0  0  0  0  0  0  0  0  0  0  0
   -4.5470   -0.9991   -1.6438 H   0  0  0  0  0  0  0  0  0  0  0  0
   -2.1376   -0.7802   -1.5615 H   0  0  0  0  0  0  0  0  0  0  0  0
   -1.3943    0.8022   -1.3982 H   0  0  0  0  0  0  0  0  0  0  0  0
    3.7300    0.6717   -1.9327 H   0  0  0  0  0  0  0  0  0  0  0  0
    5.4685    2.3609   -1.5275 H   0  0  0  0  0  0  0  0  0  0  0  0
    6.8871    3.5563    0.0684 H   0  0  0  0  0  0  0  0  0  0  0  0
    6.6557    3.3456    1.8034 H   0  0  0  0  0  0  0  0  0  0  0  0
    5.6570    4.5236    0.9117 H   0  0  0  0  0  0  0  0  0  0  0  0
    2.7105    0.7116    2.2626 H   0  0  0  0  0  0  0  0  0  0  0  0
    2.1837   -4.7086   -0.2022 H   0  0  0  0  0  0  0  0  0  0  0  0
    0.1345   -6.0891   -0.0069 H   0  0  0  0  0  0  0  0  0  0  0  0
   -2.0912   -5.0003   -0.1271 H   0  0  0  0  0  0  0  0  0  0  0  0
   -2.2905   -2.6004   -0.3992 H   0  0  0  0  0  0  0  0  0  0  0  0
  1  2  1  0
  2  3  1  0
  3  4  1  0
  4  5  1  0
  3  6  1  0
  6  7  2  0
  6  8  1  0
  8  9  1  0
  9 10  1  0
 10 11  2  0
 10 12  1  0
 12 13  1  0
 13 14  2  0
 14 15  1  0
 15 16  2  0
 16 17  1  0
 16 18  1  0
 18 19  1  0
 18 20  2  0
 12 21  1  0
 21 22  2  0
 21 23  2  0
 21 24  1  0
 24 25  2  0
 25 26  1  0
 26 27  2  0
 27 28  1  0
 28 29  2  0
 29  9  1  0
 20 13  1  0
 29 24  1  0
  1 30  1  0
  1 31  1  0
  1 32  1  0
  2 33  1  0
  2 34  1  0
  4 35  1  0
  4 36  1  0
  5 37  1  0
  5 38  1  0
  5 39  1  0
  8 40  1  0
  8 41  1  0
 14 42  1  0
 15 43  1  0
 17 44  1  0
 17 45  1  0
 17 46  1  0
 20 47  1  0
 25 48  1  0
 26 49  1  0
 27 50  1  0
 28 51  1  0
M  END
$$$$
