
     RDKit          3D

 44 45  0  0  0  0  0  0  0  0999 V2000
    7.4186    0.9495    1.2360 C   0  0  0  0  0  0  0  0  0  0  0  0
    6.0376    1.2705    1.1450 O   0  0  0  0  0  0  0  0  0  0  0  0
    5.2912    0.3464    0.3521 C   0  0  0  0  0  0  0  0  0  0  0  0
    4.9224   -0.9034    1.1474 C   0  0  0  0  0  0  0  0  0  0  0  0
    4.1087   -1.8994    0.3253 C   0  0  0  0  0  0  0  0  0  0  0  0
    2.7860   -1.4167   -0.0143 N   0  0  0  0  0  0  0  0  0  0  0  0
    1.7461   -1.4439    0.8873 C   0  0  0  0  0  0  0  0  0  0  0  0
    1.8597   -1.9176    2.0142 O   0  0  0  0  0  0  0  0  0  0  0  0
    0.4209   -0.9198    0.4420 C   0  0  0  0  0  0  0  0  0  0  0  0
   -0.7019   -1.4738    1.0849 C   0  0  0  0  0  0  0  0  0  0  0  0
   -1.9959   -1.0697    0.7493 C   0  0  0  0  0  0  0  0  0  0  0  0
   -2.1909   -0.1173   -0.2471 C   0  0  0  0  0  0  0  0  0  0  0  0
   -3.5343    0.3220   -0.5047 N   0  0  0  0  0  0  0  0  0  0  0  0
   -3.9913    1.4834    0.3037 C   0  0  0  0  0  0  0  0  0  0  0  0
   -5.4120    1.9223   -0.0649 C   0  0  0  0  0  0  0  0  0  0  0  0
   -6.2645    0.7624   -0.5696 C   0  0  0  0  0  0  0  0  0  0  0  0
   -5.8043    0.2630   -1.9355 C   0  0  0  0  0  0  0  0  0  0  0  0
   -4.0266    0.2958   -2.1321 S   0  0  0  0  0  6  0  0  0  0  0  0
   -3.6125   -0.9583   -2.7248 O   0  0  0  0  0  0  0  0  0  0  0  0
   -3.6492    1.5637   -2.7232 O   0  0  0  0  0  0  0  0  0  0  0  0
   -1.0861    0.4759   -0.8610 C   0  0  0  0  0  0  0  0  0  0  0  0
    0.2159    0.0727   -0.5280 C   0  0  0  0  0  0  0  0  0  0  0  0
    1.4980    0.9035   -1.3399 Cl  0  0  0  0  0  0  0  0  0  0  0  0
    7.9139    1.7345    1.8141 H   0  0  0  0  0  0  0  0  0  0  0  0
    7.8720    0.9151    0.2407 H   0  0  0  0  0  0  0  0  0  0  0  0
    7.5687   -0.0021    1.7524 H   0  0  0  0  0  0  0  0  0  0  0  0
    5.8433    0.0959   -0.5614 H   0  0  0  0  0  0  0  0  0  0  0  0
    4.3798    0.8693    0.0464 H   0  0  0  0  0  0  0  0  0  0  0  0
    4.3811   -0.6091    2.0547 H   0  0  0  0  0  0  0  0  0  0  0  0
    5.8350   -1.4022    1.4919 H   0  0  0  0  0  0  0  0  0  0  0  0
    3.9983   -2.8311    0.8917 H   0  0  0  0  0  0  0  0  0  0  0  0
    4.6207   -2.1379   -0.6128 H   0  0  0  0  0  0  0  0  0  0  0  0
    2.6502   -0.9697   -0.9138 H   0  0  0  0  0  0  0  0  0  0  0  0
   -0.5704   -2.2329    1.8557 H   0  0  0  0  0  0  0  0  0  0  0  0
   -2.8470   -1.5134    1.2596 H   0  0  0  0  0  0  0  0  0  0  0  0
   -3.2998    2.3278    0.2051 H   0  0  0  0  0  0  0  0  0  0  0  0
   -3.9913    1.1792    1.3582 H   0  0  0  0  0  0  0  0  0  0  0  0
   -5.3715    2.7066   -0.8310 H   0  0  0  0  0  0  0  0  0  0  0  0
   -5.8823    2.3791    0.8138 H   0  0  0  0  0  0  0  0  0  0  0  0
   -6.2268   -0.0593    0.1566 H   0  0  0  0  0  0  0  0  0  0  0  0
   -7.3146    1.0688   -0.6370 H   0  0  0  0  0  0  0  0  0  0  0  0
   -6.2166    0.8902   -2.7328 H   0  0  0  0  0  0  0  0  0  0  0  0
   -6.1456   -0.7645   -2.0934 H   0  0  0  0  0  0  0  0  0  0  0  0
   -1.2326    1.2599   -1.6011 H   0  0  0  0  0  0  0  0  0  0  0  0
  1  2  1  0
  2  3  1  0
  3  4  1  0
  4  5  1  0
  5  6  1  0
  6  7  1  0
  7  8  2  0
  7  9  1  0
  9 10  2  0
 10 11  1  0
 11 12  2  0
 12 13  1  0
 13 14  1  0
 14 15  1  0
 15 16  1  0
 16 17  1  0
 17 18  1  0
 18 19  2  0
 18 20  2  0
 12 21  1  0
 21 22  2  0
 22 23  1  0
 22  9  1  0
 18 13  1  0
  1 24  1  0
  1 25  1  0
  1 26  1  0
  3 27  1  0
  3 28  1  0
  4 29  1  0
  4 30  1  0
  5 31  1  0
  5 32  1  0
  6 33  1  0
 10 34  1  0
 11 35  1  0
 14 36  1  0
 14 37  1  0
 15 38  1  0
 15 39  1  0
 16 40  1  0
 16 41  1  0
 17 42  1  0
 17 43  1  0
 21 44  1  0
M  END
$$$$
