
     RDKit          3D

 43 44  0  0  0  0  0  0  0  0999 V2000
   -5.8860   -1.4818    0.8165 C   0  0  0  0  0  0  0  0  0  0  0  0
   -5.1806   -1.1544   -0.4924 C   0  0  0  0  0  0  0  0  0  0  0  0
   -3.9719   -0.3460   -0.2996 N   0  0  0  0  0  0  0  0  0  0  0  0
   -4.0677    1.0827   -0.6265 C   0  0  0  0  0  0  0  0  0  0  0  0
   -5.0311    1.8412    0.2745 C   0  0  0  0  0  0  0  0  0  0  0  0
   -2.8115   -1.0226    0.1040 C   0  0  0  0  0  0  0  0  0  0  0  0
   -2.8524   -2.2352    0.3386 O   0  0  0  0  0  0  0  0  0  0  0  0
   -1.5132   -0.2121    0.2865 C   0  0  0  0  0  0  0  0  0  0  0  0
   -1.5339    0.4806    1.6457 C   0  0  0  0  0  0  0  0  0  0  0  0
   -0.0478   -1.3291    0.1708 S   0  0  0  0  0  0  0  0  0  0  0  0
    1.2768   -0.1686   -0.1229 C   0  0  0  0  0  0  0  0  0  0  0  0
    2.5752   -0.6323   -0.0543 C   0  0  0  0  0  0  0  0  0  0  0  0
    3.5825    0.2828   -0.2975 C   0  0  0  0  0  0  0  0  0  0  0  0
    5.0181   -0.0713   -0.2596 C   0  0  0  0  0  0  0  0  0  0  0  0
    5.9820    0.8784    0.1299 C   0  0  0  0  0  0  0  0  0  0  0  0
    7.3433    0.5628    0.1786 C   0  0  0  0  0  0  0  0  0  0  0  0
    7.7742   -0.7136   -0.1676 C   0  0  0  0  0  0  0  0  0  0  0  0
    6.8459   -1.6706   -0.5661 C   0  0  0  0  0  0  0  0  0  0  0  0
    5.4842   -1.3518   -0.6132 C   0  0  0  0  0  0  0  0  0  0  0  0
    3.3029    1.5748   -0.5788 N   0  0  0  0  0  0  0  0  0  0  0  0
    2.0104    1.9175   -0.6294 C   0  0  0  0  0  0  0  0  0  0  0  0
    0.9699    1.1053   -0.4167 N   0  0  0  0  0  0  0  0  0  0  0  0
   -6.1921   -0.5746    1.3450 H   0  0  0  0  0  0  0  0  0  0  0  0
   -6.7818   -2.0799    0.6221 H   0  0  0  0  0  0  0  0  0  0  0  0
   -5.2387   -2.0522    1.4898 H   0  0  0  0  0  0  0  0  0  0  0  0
   -5.8635   -0.6264   -1.1674 H   0  0  0  0  0  0  0  0  0  0  0  0
   -4.9029   -2.0888   -0.9946 H   0  0  0  0  0  0  0  0  0  0  0  0
   -3.0965    1.5727   -0.5680 H   0  0  0  0  0  0  0  0  0  0  0  0
   -4.3922    1.1592   -1.6707 H   0  0  0  0  0  0  0  0  0  0  0  0
   -5.0019    2.9105    0.0424 H   0  0  0  0  0  0  0  0  0  0  0  0
   -6.0617    1.5014    0.1348 H   0  0  0  0  0  0  0  0  0  0  0  0
   -4.7711    1.7110    1.3296 H   0  0  0  0  0  0  0  0  0  0  0  0
   -1.4301    0.4965   -0.5386 H   0  0  0  0  0  0  0  0  0  0  0  0
   -2.3891    1.1575    1.7320 H   0  0  0  0  0  0  0  0  0  0  0  0
   -1.6253   -0.2451    2.4625 H   0  0  0  0  0  0  0  0  0  0  0  0
   -0.6336    1.0783    1.8189 H   0  0  0  0  0  0  0  0  0  0  0  0
    2.7858   -1.6639    0.1958 H   0  0  0  0  0  0  0  0  0  0  0  0
    5.6699    1.8851    0.4046 H   0  0  0  0  0  0  0  0  0  0  0  0
    8.0629    1.3173    0.4852 H   0  0  0  0  0  0  0  0  0  0  0  0
    8.8320   -0.9602   -0.1327 H   0  0  0  0  0  0  0  0  0  0  0  0
    7.1797   -2.6663   -0.8472 H   0  0  0  0  0  0  0  0  0  0  0  0
    4.7934   -2.1212   -0.9509 H   0  0  0  0  0  0  0  0  0  0  0  0
    1.7879    2.9525   -0.8650 H   0  0  0  0  0  0  0  0  0  0  0  0
  1  2  1  0
  2  3  1  0
  3  4  1  0
  4  5  1  0
  3  6  1  0
  6  7  2  0
  6  8  1  0
  8  9  1  0
  8 10  1  0
 10 11  1  0
 11 12  2  0
 12 13  1  0
 13 14  1  0
 14 15  2  0
 15 16  1  0
 16 17  2  0
 17 18  1  0
 18 19  2  0
 13 20  2  0
 20 21  1  0
 21 22  2  0
 22 11  1  0
 19 14  1  0
  1 23  1  0
  1 24  1  0
  1 25  1  0
  2 26  1  0
  2 27  1  0
  4 28  1  0
  4 29  1  0
  5 30  1  0
  5 31  1  0
  5 32  1  0
  8 33  1  0
  9 34  1  0
  9 35  1  0
  9 36  1  0
 12 37  1  0
 15 38  1  0
 16 39  1  0
 17 40  1  0
 18 41  1  0
 19 42  1  0
 21 43  1  0
M  END
$$$$
