
     RDKit          3D

 28 29  0  0  0  0  0  0  0  0999 V2000
    3.5202    0.9954   -1.1909 C   0  0  0  0  0  0  0  0  0  0  0  0
    3.1972    0.2406    0.0460 C   0  0  0  0  0  0  0  0  0  0  0  0
    3.7024    0.4656    1.3125 C   0  0  0  0  0  0  0  0  0  0  0  0
    3.0305   -0.6568    2.4206 S   0  0  0  0  0  0  0  0  0  0  0  0
    2.1248   -1.3506    1.1437 C   0  0  0  0  0  0  0  0  0  0  0  0
    1.0238   -2.6878    1.3934 S   0  0  0  0  0  0  0  0  0  0  0  0
    0.3021   -2.8502   -0.2671 C   0  0  0  0  0  0  0  0  0  0  0  0
   -0.5635   -1.6704   -0.6965 C   0  0  0  0  0  0  0  0  0  0  0  0
   -0.6996   -1.4128   -1.8924 O   0  0  0  0  0  0  0  0  0  0  0  0
   -1.2245   -1.0372    0.3292 N   0  0  0  0  0  0  0  0  0  0  0  0
   -2.0923    0.0508    0.2735 C   0  0  0  0  0  0  0  0  0  0  0  0
   -2.4707    0.6919   -0.8973 C   0  0  0  0  0  0  0  0  0  0  0  0
   -3.3479    1.7731   -0.8184 C   0  0  0  0  0  0  0  0  0  0  0  0
   -3.8195    2.1811    0.4215 C   0  0  0  0  0  0  0  0  0  0  0  0
   -3.3904    1.4857    1.5369 C   0  0  0  0  0  0  0  0  0  0  0  0
   -2.5415    0.4350    1.4889 N   0  0  0  0  0  0  0  0  0  0  0  0
    2.2986   -0.8100   -0.0389 N   0  0  0  0  0  0  0  0  0  0  0  0
    2.6012    1.3348   -1.6790 H   0  0  0  0  0  0  0  0  0  0  0  0
    4.1353    1.8743   -0.9738 H   0  0  0  0  0  0  0  0  0  0  0  0
    4.0683    0.3565   -1.8901 H   0  0  0  0  0  0  0  0  0  0  0  0
    4.4116    1.2155    1.6324 H   0  0  0  0  0  0  0  0  0  0  0  0
    1.1020   -2.9948   -1.0006 H   0  0  0  0  0  0  0  0  0  0  0  0
   -0.3309   -3.7434   -0.2780 H   0  0  0  0  0  0  0  0  0  0  0  0
   -1.0442   -1.3381    1.2785 H   0  0  0  0  0  0  0  0  0  0  0  0
   -2.1064    0.3824   -1.8692 H   0  0  0  0  0  0  0  0  0  0  0  0
   -3.6566    2.2893   -1.7231 H   0  0  0  0  0  0  0  0  0  0  0  0
   -4.5021    3.0178    0.5155 H   0  0  0  0  0  0  0  0  0  0  0  0
   -3.7277    1.7622    2.5318 H   0  0  0  0  0  0  0  0  0  0  0  0
  1  2  1  0
  2  3  2  0
  3  4  1  0
  4  5  1  0
  5  6  1  0
  6  7  1  0
  7  8  1  0
  8  9  2  0
  8 10  1  0
 10 11  1  0
 11 12  2  0
 12 13  1  0
 13 14  2  0
 14 15  1  0
 15 16  2  0
  5 17  2  0
 17  2  1  0
 16 11  1  0
  1 18  1  0
  1 19  1  0
  1 20  1  0
  3 21  1  0
  7 22  1  0
  7 23  1  0
 10 24  1  0
 12 25  1  0
 13 26  1  0
 14 27  1  0
 15 28  1  0
M  END
$$$$
