
     RDKit          3D

 39 41  0  0  0  0  0  0  0  0999 V2000
   -0.9936    0.1267    1.1394 O   0  0  0  0  0  0  0  0  0  0  0  0
   -0.9961    0.9097    0.1943 C   0  0  0  0  0  0  0  0  0  0  0  0
   -1.9687    0.9817   -0.7809 N   0  0  0  0  0  0  0  0  0  0  0  0
   -3.1979    0.3699   -0.4337 O   0  0  0  0  0  0  0  0  0  0  0  0
   -3.2406   -0.9400   -1.0119 C   0  0  0  0  0  0  0  0  0  0  0  0
   -4.5572   -1.6068   -0.7412 C   0  0  0  0  0  0  0  0  0  0  0  0
   -5.2665   -1.4442    0.5800 C   0  0  0  0  0  0  0  0  0  0  0  0
   -5.8491   -0.8309   -0.6660 C   0  0  0  0  0  0  0  0  0  0  0  0
    0.1437    1.8520    0.0380 C   0  0  0  0  0  0  0  0  0  0  0  0
   -0.1185    3.1998   -0.2736 C   0  0  0  0  0  0  0  0  0  0  0  0
    0.9361    4.0969   -0.4195 C   0  0  0  0  0  0  0  0  0  0  0  0
    2.2379    3.6488   -0.2402 C   0  0  0  0  0  0  0  0  0  0  0  0
    3.2480    4.5197   -0.3726 F   0  0  0  0  0  0  0  0  0  0  0  0
    2.5031    2.3191    0.0859 C   0  0  0  0  0  0  0  0  0  0  0  0
    3.7816    1.9718    0.2996 F   0  0  0  0  0  0  0  0  0  0  0  0
    1.4671    1.3839    0.2413 C   0  0  0  0  0  0  0  0  0  0  0  0
    1.6869    0.0162    0.5243 N   0  0  0  0  0  0  0  0  0  0  0  0
    2.7781   -0.8559    0.3410 C   0  0  0  0  0  0  0  0  0  0  0  0
    3.7393   -0.6503   -0.6568 C   0  0  0  0  0  0  0  0  0  0  0  0
    4.8253   -1.5202   -0.8098 C   0  0  0  0  0  0  0  0  0  0  0  0
    4.9632   -2.6153    0.0391 C   0  0  0  0  0  0  0  0  0  0  0  0
    6.5758   -3.9047   -0.1905 I   0  0  0  0  0  0  0  0  0  0  0  0
    4.0234   -2.8511    1.0375 C   0  0  0  0  0  0  0  0  0  0  0  0
    2.9421   -1.9766    1.1831 C   0  0  0  0  0  0  0  0  0  0  0  0
    1.7959   -2.3120    2.4377 Cl  0  0  0  0  0  0  0  0  0  0  0  0
   -2.0522    1.7772   -1.4005 H   0  0  0  0  0  0  0  0  0  0  0  0
   -3.0971   -0.8610   -2.0960 H   0  0  0  0  0  0  0  0  0  0  0  0
   -2.4350   -1.5535   -0.5927 H   0  0  0  0  0  0  0  0  0  0  0  0
   -4.5912   -2.5889   -1.2008 H   0  0  0  0  0  0  0  0  0  0  0  0
   -5.7608   -2.3122    1.0006 H   0  0  0  0  0  0  0  0  0  0  0  0
   -4.8355   -0.7801    1.3218 H   0  0  0  0  0  0  0  0  0  0  0  0
   -6.7396   -1.2852   -1.0849 H   0  0  0  0  0  0  0  0  0  0  0  0
   -5.8193    0.2489   -0.7560 H   0  0  0  0  0  0  0  0  0  0  0  0
   -1.1379    3.5659   -0.3724 H   0  0  0  0  0  0  0  0  0  0  0  0
    0.7552    5.1420   -0.6535 H   0  0  0  0  0  0  0  0  0  0  0  0
    0.9329   -0.3965    1.0906 H   0  0  0  0  0  0  0  0  0  0  0  0
    3.6492    0.1844   -1.3465 H   0  0  0  0  0  0  0  0  0  0  0  0
    5.5505   -1.3255   -1.5963 H   0  0  0  0  0  0  0  0  0  0  0  0
    4.1215   -3.7036    1.7039 H   0  0  0  0  0  0  0  0  0  0  0  0
  1  2  2  0
  2  3  1  0
  3  4  1  0
  4  5  1  0
  5  6  1  0
  6  7  1  0
  7  8  1  0
  2  9  1  0
  9 10  2  0
 10 11  1  0
 11 12  2  0
 12 13  1  0
 12 14  1  0
 14 15  1  0
 14 16  2  0
 16 17  1  0
 17 18  1  0
 18 19  2  0
 19 20  1  0
 20 21  2  0
 21 22  1  0
 21 23  1  0
 23 24  2  0
 24 25  1  0
  8  6  1  0
 16  9  1  0
 24 18  1  0
  3 26  1  0
  5 27  1  0
  5 28  1  0
  6 29  1  0
  7 30  1  0
  7 31  1  0
  8 32  1  0
  8 33  1  0
 10 34  1  0
 11 35  1  0
 17 36  1  0
 19 37  1  0
 20 38  1  0
 23 39  1  0
M  END
$$$$
