
     RDKit          3D

111118  0  0  0  0  0  0  0  0999 V2000
   -8.1610   -1.8244    2.1374 C   0  0  0  0  0  0  0  0  0  0  0  0
   -8.9445   -2.0467    0.8249 C   0  0  0  0  0  0  0  0  0  0  0  0
  -10.1731   -2.9117    1.1416 C   0  0  0  0  0  0  0  0  0  0  0  0
   -8.0477   -2.7840   -0.1864 C   0  0  0  0  0  0  0  0  0  0  0  0
   -7.3351   -1.8983   -1.2279 C   0  0  0  0  0  0  0  0  0  0  0  0
   -7.2531   -0.4199   -0.9163 C   0  0  0  0  0  0  0  0  0  0  0  0
   -6.0253    0.2918   -1.4688 C   0  0  0  0  0  0  0  0  0  0  0  0
   -5.3671    1.2099   -0.5361 N   0  0  0  0  0  0  0  0  0  0  0  0
   -4.7432    0.5241    0.6089 C   0  0  0  0  0  0  0  0  0  0  0  0
   -3.2444    0.2038    0.4338 C   0  0  0  0  0  0  0  0  0  0  0  0
   -2.4316    1.4262    0.1300 N   0  0  0  0  0  0  0  0  0  0  0  0
   -1.1443    1.1630   -0.3307 C   0  0  0  0  0  0  0  0  0  0  0  0
   -0.5628    1.8037   -1.4306 C   0  0  0  0  0  0  0  0  0  0  0  0
    0.7231    1.4637   -1.8809 C   0  0  0  0  0  0  0  0  0  0  0  0
    1.4766    0.4734   -1.2384 C   0  0  0  0  0  0  0  0  0  0  0  0
    2.8142    0.1549   -1.8119 C   0  0  0  0  0  0  0  0  0  0  0  0
    3.3884    0.9601   -2.5345 O   0  0  0  0  0  0  0  0  0  0  0  0
    3.3399   -1.1015   -1.4960 N   0  0  0  0  0  0  0  0  0  0  0  0
    4.7796   -1.7335   -2.0444 S   0  0  0  0  0  6  0  0  0  0  0  0
    4.8575   -3.0570   -1.4624 O   0  0  0  0  0  0  0  0  0  0  0  0
    4.9128   -1.5329   -3.4692 O   0  0  0  0  0  0  0  0  0  0  0  0
    5.9822   -0.7327   -1.2114 C   0  0  0  0  0  0  0  0  0  0  0  0
    6.4748    0.4145   -1.8212 C   0  0  0  0  0  0  0  0  0  0  0  0
    7.4004    1.2276   -1.1475 C   0  0  0  0  0  0  0  0  0  0  0  0
    7.9033    0.8915    0.1223 C   0  0  0  0  0  0  0  0  0  0  0  0
    8.7437    1.7611    0.8175 N   0  0  0  0  0  0  0  0  0  0  0  0
    9.5766    2.7700    0.1755 C   0  0  0  0  0  0  0  0  0  0  0  0
   10.7333    2.1564   -0.6223 C   0  0  0  0  0  0  0  0  0  0  0  0
   11.4375    3.2375   -1.4627 C   0  0  0  0  0  0  0  0  0  0  0  0
   12.8848    2.8805   -1.7767 C   0  0  0  0  0  0  0  0  0  0  0  0
   13.0379    1.4686   -1.8444 O   0  0  0  0  0  0  0  0  0  0  0  0
   12.8812    0.8392   -0.5699 C   0  0  0  0  0  0  0  0  0  0  0  0
   11.7515    1.4443    0.2690 C   0  0  0  0  0  0  0  0  0  0  0  0
    7.3845   -0.2958    0.7092 C   0  0  0  0  0  0  0  0  0  0  0  0
    7.8379   -0.7495    2.0350 N   0  0  0  0  0  4  0  0  0  0  0  0
    7.0720   -1.4830    2.6854 O   0  0  0  0  0  0  0  0  0  0  0  0
    8.9675   -0.4009    2.4156 O   0  0  0  0  0  1  0  0  0  0  0  0
    6.4368   -1.1021    0.0556 C   0  0  0  0  0  0  0  0  0  0  0  0
    0.9224   -0.1674   -0.1317 C   0  0  0  0  0  0  0  0  0  0  0  0
    1.6607   -1.1184    0.5466 O   0  0  0  0  0  0  0  0  0  0  0  0
    0.9769   -2.2047    1.0335 C   0  0  0  0  0  0  0  0  0  0  0  0
    1.1316   -2.5178    2.3813 C   0  0  0  0  0  0  0  0  0  0  0  0
    0.5216   -3.5410    3.0188 N   0  0  0  0  0  0  0  0  0  0  0  0
   -0.2528   -4.2830    2.2034 C   0  0  0  0  0  0  0  0  0  0  0  0
   -0.9687   -5.3876    2.5886 N   0  0  0  0  0  0  0  0  0  0  0  0
   -1.6435   -5.9036    1.5109 C   0  0  0  0  0  0  0  0  0  0  0  0
   -1.3610   -5.1134    0.4127 C   0  0  0  0  0  0  0  0  0  0  0  0
   -0.4735   -4.0853    0.8390 C   0  0  0  0  0  0  0  0  0  0  0  0
    0.1798   -3.0113    0.2168 C   0  0  0  0  0  0  0  0  0  0  0  0
   -0.3521    0.2050    0.3314 C   0  0  0  0  0  0  0  0  0  0  0  0
   -3.2390    2.5776   -0.3415 C   0  0  0  0  0  0  0  0  0  0  0  0
   -4.4047    2.0863   -1.2394 C   0  0  0  0  0  0  0  0  0  0  0  0
   -8.2891    0.1569   -0.2604 C   0  0  0  0  0  0  0  0  0  0  0  0
   -8.3642    1.5996    0.0172 C   0  0  0  0  0  0  0  0  0  0  0  0
   -8.5939    2.5059   -1.0243 C   0  0  0  0  0  0  0  0  0  0  0  0
   -8.5873    3.8814   -0.7758 C   0  0  0  0  0  0  0  0  0  0  0  0
   -8.3965    4.3475    0.5220 C   0  0  0  0  0  0  0  0  0  0  0  0
   -8.3832    6.0376    0.8268 Cl  0  0  0  0  0  0  0  0  0  0  0  0
   -8.1912    3.4553    1.5723 C   0  0  0  0  0  0  0  0  0  0  0  0
   -8.1771    2.0868    1.3214 C   0  0  0  0  0  0  0  0  0  0  0  0
   -9.4246   -0.6907    0.2627 C   0  0  0  0  0  0  0  0  0  0  0  0
   -7.2374   -1.2580    1.9705 H   0  0  0  0  0  0  0  0  0  0  0  0
   -7.8795   -2.7808    2.5872 H   0  0  0  0  0  0  0  0  0  0  0  0
   -8.7638   -1.2797    2.8693 H   0  0  0  0  0  0  0  0  0  0  0  0
  -10.7638   -3.1020    0.2380 H   0  0  0  0  0  0  0  0  0  0  0  0
   -9.8754   -3.8758    1.5634 H   0  0  0  0  0  0  0  0  0  0  0  0
  -10.8257   -2.4176    1.8692 H   0  0  0  0  0  0  0  0  0  0  0  0
   -8.6185   -3.5492   -0.7344 H   0  0  0  0  0  0  0  0  0  0  0  0
   -7.2792   -3.3612    0.3522 H   0  0  0  0  0  0  0  0  0  0  0  0
   -7.8591   -2.0077   -2.1912 H   0  0  0  0  0  0  0  0  0  0  0  0
   -6.3321   -2.3190   -1.3834 H   0  0  0  0  0  0  0  0  0  0  0  0
   -5.2969   -0.4450   -1.8375 H   0  0  0  0  0  0  0  0  0  0  0  0
   -6.3545    0.8417   -2.3596 H   0  0  0  0  0  0  0  0  0  0  0  0
   -5.2803   -0.3963    0.8677 H   0  0  0  0  0  0  0  0  0  0  0  0
   -4.8659    1.1802    1.4784 H   0  0  0  0  0  0  0  0  0  0  0  0
   -3.1333   -0.5286   -0.3714 H   0  0  0  0  0  0  0  0  0  0  0  0
   -2.9006   -0.2602    1.3609 H   0  0  0  0  0  0  0  0  0  0  0  0
   -1.0991    2.5608   -1.9919 H   0  0  0  0  0  0  0  0  0  0  0  0
    1.1100    1.9741   -2.7557 H   0  0  0  0  0  0  0  0  0  0  0  0
    2.8322   -1.7634   -0.9230 H   0  0  0  0  0  0  0  0  0  0  0  0
    6.1320    0.7054   -2.8173 H   0  0  0  0  0  0  0  0  0  0  0  0
    7.7219    2.1389   -1.6434 H   0  0  0  0  0  0  0  0  0  0  0  0
    9.2380    1.3048    1.5983 H   0  0  0  0  0  0  0  0  0  0  0  0
    8.9645    3.4250   -0.4558 H   0  0  0  0  0  0  0  0  0  0  0  0
    9.9817    3.4145    0.9677 H   0  0  0  0  0  0  0  0  0  0  0  0
   10.3392    1.4049   -1.3196 H   0  0  0  0  0  0  0  0  0  0  0  0
   10.8834    3.3521   -2.4045 H   0  0  0  0  0  0  0  0  0  0  0  0
   11.4155    4.2150   -0.9667 H   0  0  0  0  0  0  0  0  0  0  0  0
   13.1741    3.3031   -2.7455 H   0  0  0  0  0  0  0  0  0  0  0  0
   13.5781    3.2891   -1.0293 H   0  0  0  0  0  0  0  0  0  0  0  0
   12.6787   -0.2158   -0.7590 H   0  0  0  0  0  0  0  0  0  0  0  0
   13.8254    0.8927   -0.0231 H   0  0  0  0  0  0  0  0  0  0  0  0
   12.1846    2.1697    0.9670 H   0  0  0  0  0  0  0  0  0  0  0  0
   11.2864    0.6558    0.8758 H   0  0  0  0  0  0  0  0  0  0  0  0
    6.0579   -2.0115    0.5204 H   0  0  0  0  0  0  0  0  0  0  0  0
    1.7517   -1.8927    3.0174 H   0  0  0  0  0  0  0  0  0  0  0  0
   -0.9751   -5.7386    3.5421 H   0  0  0  0  0  0  0  0  0  0  0  0
   -2.2559   -6.7854    1.6211 H   0  0  0  0  0  0  0  0  0  0  0  0
   -1.7428   -5.2662   -0.5840 H   0  0  0  0  0  0  0  0  0  0  0  0
    0.0478   -2.8175   -0.8470 H   0  0  0  0  0  0  0  0  0  0  0  0
   -0.7346   -0.2560    1.2455 H   0  0  0  0  0  0  0  0  0  0  0  0
   -3.6485    3.1011    0.5300 H   0  0  0  0  0  0  0  0  0  0  0  0
   -2.6428    3.3311   -0.8593 H   0  0  0  0  0  0  0  0  0  0  0  0
   -4.9498    2.9583   -1.6198 H   0  0  0  0  0  0  0  0  0  0  0  0
   -3.9585    1.5594   -2.0955 H   0  0  0  0  0  0  0  0  0  0  0  0
   -8.7574    2.1459   -2.0393 H   0  0  0  0  0  0  0  0  0  0  0  0
   -8.7257    4.5759   -1.5968 H   0  0  0  0  0  0  0  0  0  0  0  0
   -8.0172    3.8217    2.5815 H   0  0  0  0  0  0  0  0  0  0  0  0
   -7.9712    1.3981    2.1371 H   0  0  0  0  0  0  0  0  0  0  0  0
   -9.9766   -0.1592    1.0484 H   0  0  0  0  0  0  0  0  0  0  0  0
  -10.1371   -0.8394   -0.5624 H   0  0  0  0  0  0  0  0  0  0  0  0
  1  2  1  0
  2  3  1  0
  2  4  1  0
  4  5  1  0
  5  6  1  0
  6  7  1  0
  7  8  1  0
  8  9  1  0
  9 10  1  0
 10 11  1  0
 11 12  1  0
 12 13  2  0
 13 14  1  0
 14 15  2  0
 15 16  1  0
 16 17  2  0
 16 18  1  0
 18 19  1  0
 19 20  2  0
 19 21  2  0
 19 22  1  0
 22 23  2  0
 23 24  1  0
 24 25  2  0
 25 26  1  0
 26 27  1  0
 27 28  1  0
 28 29  1  0
 29 30  1  0
 30 31  1  0
 31 32  1  0
 32 33  1  0
 25 34  1  0
 34 35  1  0
 35 36  2  0
 35 37  1  0
 34 38  2  0
 15 39  1  0
 39 40  1  0
 40 41  1  0
 41 42  2  0
 42 43  1  0
 43 44  2  0
 44 45  1  0
 45 46  1  0
 46 47  2  0
 47 48  1  0
 48 49  2  0
 39 50  2  0
 11 51  1  0
 51 52  1  0
  6 53  2  0
 53 54  1  0
 54 55  2  0
 55 56  1  0
 56 57  2  0
 57 58  1  0
 57 59  1  0
 59 60  2  0
 53 61  1  0
 61  2  1  0
 52  8  1  0
 60 54  1  0
 50 12  1  0
 38 22  1  0
 49 41  1  0
 33 28  1  0
 48 44  1  0
  1 62  1  0
  1 63  1  0
  1 64  1  0
  3 65  1  0
  3 66  1  0
  3 67  1  0
  4 68  1  0
  4 69  1  0
  5 70  1  0
  5 71  1  0
  7 72  1  0
  7 73  1  0
  9 74  1  0
  9 75  1  0
 10 76  1  0
 10 77  1  0
 13 78  1  0
 14 79  1  0
 18 80  1  0
 23 81  1  0
 24 82  1  0
 26 83  1  0
 27 84  1  0
 27 85  1  0
 28 86  1  0
 29 87  1  0
 29 88  1  0
 30 89  1  0
 30 90  1  0
 32 91  1  0
 32 92  1  0
 33 93  1  0
 33 94  1  0
 38 95  1  0
 42 96  1  0
 45 97  1  0
 46 98  1  0
 47 99  1  0
 49100  1  0
 50101  1  0
 51102  1  0
 51103  1  0
 52104  1  0
 52105  1  0
 55106  1  0
 56107  1  0
 59108  1  0
 60109  1  0
 61110  1  0
 61111  1  0
M  CHG  2  35   1  37  -1
M  END
$$$$
