
     RDKit          3D

 60 64  0  0  0  0  0  0  0  0999 V2000
    3.9233    2.4727    1.0502 C   0  0  0  0  0  0  0  0  0  0  0  0
    3.1489    1.4348    0.4193 N   0  0  0  0  0  0  0  0  0  0  0  0
    2.0957    0.7507    0.9735 C   0  0  0  0  0  0  0  0  0  0  0  0
    1.4560    1.0920    2.5424 S   0  0  0  0  0  0  0  0  0  0  0  0
    1.4951   -0.5460    3.3083 C   0  0  0  0  0  0  0  0  0  0  0  0
    0.7669   -1.6349    2.5382 C   0  0  0  0  0  0  0  0  0  0  0  0
    1.3937   -2.6010    2.0976 O   0  0  0  0  0  0  0  0  0  0  0  0
   -0.6093   -1.5706    2.4296 N   0  0  0  0  0  0  0  0  0  0  0  0
   -1.4928   -0.7005    3.1911 C   0  0  0  0  0  0  0  0  0  0  0  0
   -2.8951   -1.1457    2.8109 C   0  0  0  0  0  0  0  0  0  0  0  0
   -2.7194   -2.6297    2.5173 C   0  0  0  0  0  0  0  0  0  0  0  0
   -1.3373   -2.7116    1.8619 C   0  0  1  0  0  0  0  0  0  0  0  0
   -1.4728   -2.7106    0.3211 C   0  0  0  0  0  0  0  0  0  0  0  0
   -1.8307   -3.7395   -0.2545 O   0  0  0  0  0  0  0  0  0  0  0  0
   -1.3531   -1.4604   -0.2606 N   0  0  0  0  0  0  0  0  0  0  0  0
   -1.5262   -1.1097   -1.6240 C   0  0  0  0  0  0  0  0  0  0  0  0
   -1.6249   -2.0832   -2.6288 C   0  0  0  0  0  0  0  0  0  0  0  0
   -1.7392   -1.7251   -3.9748 C   0  0  0  0  0  0  0  0  0  0  0  0
   -1.7631   -0.3858   -4.3399 C   0  0  0  0  0  0  0  0  0  0  0  0
   -1.6809    0.5967   -3.3552 C   0  0  0  0  0  0  0  0  0  0  0  0
   -1.5687    0.2615   -1.9883 C   0  0  0  0  0  0  0  0  0  0  0  0
   -1.5694    1.3628   -1.0062 C   0  0  0  0  0  0  0  0  0  0  0  0
   -0.5292    2.3035   -0.9704 C   0  0  0  0  0  0  0  0  0  0  0  0
   -0.5428    3.3552   -0.0510 C   0  0  0  0  0  0  0  0  0  0  0  0
   -1.6032    3.4863    0.8421 C   0  0  0  0  0  0  0  0  0  0  0  0
   -2.6548    2.5739    0.8103 C   0  0  0  0  0  0  0  0  0  0  0  0
   -2.6387    1.5235   -0.1101 C   0  0  0  0  0  0  0  0  0  0  0  0
    1.5951   -0.1392    0.1531 N   0  0  0  0  0  0  0  0  0  0  0  0
    2.3574   -0.0493   -0.9813 C   0  0  0  0  0  0  0  0  0  0  0  0
    2.2592   -0.7786   -2.1761 C   0  0  0  0  0  0  0  0  0  0  0  0
    3.1450   -0.4836   -3.2186 C   0  0  0  0  0  0  0  0  0  0  0  0
    4.1172    0.5093   -3.0703 C   0  0  0  0  0  0  0  0  0  0  0  0
    4.2355    1.2415   -1.8820 C   0  0  0  0  0  0  0  0  0  0  0  0
    3.3364    0.9393   -0.8526 C   0  0  0  0  0  0  0  0  0  0  0  0
    3.2977    3.3638    1.1435 H   0  0  0  0  0  0  0  0  0  0  0  0
    4.8059    2.7031    0.4484 H   0  0  0  0  0  0  0  0  0  0  0  0
    4.2507    2.1239    2.0318 H   0  0  0  0  0  0  0  0  0  0  0  0
    1.0764   -0.4821    4.3176 H   0  0  0  0  0  0  0  0  0  0  0  0
    2.5422   -0.8492    3.4213 H   0  0  0  0  0  0  0  0  0  0  0  0
   -1.3016   -0.8623    4.2578 H   0  0  0  0  0  0  0  0  0  0  0  0
   -1.3184    0.3500    2.9520 H   0  0  0  0  0  0  0  0  0  0  0  0
   -3.2296   -0.6278    1.9066 H   0  0  0  0  0  0  0  0  0  0  0  0
   -3.6255   -0.9510    3.6014 H   0  0  0  0  0  0  0  0  0  0  0  0
   -2.7109   -3.1840    3.4632 H   0  0  0  0  0  0  0  0  0  0  0  0
   -3.5292   -3.0269    1.8989 H   0  0  0  0  0  0  0  0  0  0  0  0
   -0.8350   -3.6456    2.1383 H   0  0  0  0  0  0  0  0  0  0  0  0
   -1.0106   -0.7207    0.3490 H   0  0  0  0  0  0  0  0  0  0  0  0
   -1.5819   -3.1434   -2.3987 H   0  0  0  0  0  0  0  0  0  0  0  0
   -1.8038   -2.5007   -4.7337 H   0  0  0  0  0  0  0  0  0  0  0  0
   -1.8537   -0.1038   -5.3858 H   0  0  0  0  0  0  0  0  0  0  0  0
   -1.7255    1.6428   -3.6556 H   0  0  0  0  0  0  0  0  0  0  0  0
    0.3093    2.2088   -1.6574 H   0  0  0  0  0  0  0  0  0  0  0  0
    0.2776    4.0669   -0.0325 H   0  0  0  0  0  0  0  0  0  0  0  0
   -1.6142    4.3042    1.5573 H   0  0  0  0  0  0  0  0  0  0  0  0
   -3.4904    2.6821    1.4953 H   0  0  0  0  0  0  0  0  0  0  0  0
   -3.4758    0.8277   -0.1380 H   0  0  0  0  0  0  0  0  0  0  0  0
    1.5056   -1.5572   -2.2808 H   0  0  0  0  0  0  0  0  0  0  0  0
    3.0726   -1.0404   -4.1503 H   0  0  0  0  0  0  0  0  0  0  0  0
    4.7975    0.7160   -3.8940 H   0  0  0  0  0  0  0  0  0  0  0  0
    4.9967    2.0071   -1.7779 H   0  0  0  0  0  0  0  0  0  0  0  0
  1  2  1  0
  2  3  1  0
  3  4  1  0
  4  5  1  0
  5  6  1  0
  6  7  2  0
  6  8  1  0
  8  9  1  0
  9 10  1  0
 10 11  1  0
 11 12  1  0
 12 13  1  0
 13 14  2  0
 13 15  1  0
 15 16  1  0
 16 17  2  0
 17 18  1  0
 18 19  2  0
 19 20  1  0
 20 21  2  0
 21 22  1  0
 22 23  2  0
 23 24  1  0
 24 25  2  0
 25 26  1  0
 26 27  2  0
  3 28  2  0
 28 29  1  0
 29 30  2  0
 30 31  1  0
 31 32  2  0
 32 33  1  0
 33 34  2  0
 34  2  1  0
 12  8  1  0
 21 16  1  0
 27 22  1  0
 34 29  1  0
  1 35  1  0
  1 36  1  0
  1 37  1  0
  5 38  1  0
  5 39  1  0
  9 40  1  0
  9 41  1  0
 10 42  1  0
 10 43  1  0
 11 44  1  0
 11 45  1  0
 12 46  1  1
 15 47  1  0
 17 48  1  0
 18 49  1  0
 19 50  1  0
 20 51  1  0
 23 52  1  0
 24 53  1  0
 25 54  1  0
 26 55  1  0
 27 56  1  0
 30 57  1  0
 31 58  1  0
 32 59  1  0
 33 60  1  0
M  END
$$$$
