
     RDKit          3D

 37 38  0  0  0  0  0  0  0  0999 V2000
    6.3121    1.5878   -1.3059 O   0  0  0  0  0  0  0  0  0  0  0  0
    5.8454    0.7392   -0.5451 C   0  0  0  0  0  0  0  0  0  0  0  0
    6.6511   -0.1017    0.1695 N   0  0  0  0  0  0  0  0  0  0  0  0
    8.0455    0.0743    0.0425 O   0  0  0  0  0  0  0  0  0  0  0  0
    4.3861    0.5752   -0.3451 C   0  0  0  0  0  0  0  0  0  0  0  0
    3.5429    1.3674   -1.0222 C   0  0  0  0  0  0  0  0  0  0  0  0
    2.1882    1.2645   -0.8677 N   0  0  0  0  0  0  0  0  0  0  0  0
    1.6679    0.2743   -0.0905 C   0  0  0  0  0  0  0  0  0  0  0  0
    0.3058    0.2395   -0.1321 N   0  0  0  0  0  0  0  0  0  0  0  0
   -0.4307   -0.6656    0.7338 C   0  0  0  0  0  0  0  0  0  0  0  0
   -1.9065   -0.5497    0.4268 C   0  0  0  0  0  0  0  0  0  0  0  0
   -2.7705    0.1285    1.2986 C   0  0  0  0  0  0  0  0  0  0  0  0
   -4.1412    0.2436    1.0142 C   0  0  0  0  0  0  0  0  0  0  0  0
   -5.0574    0.9900    1.9571 C   0  0  0  0  0  0  0  0  0  0  0  0
   -4.6866    0.8718    3.2618 F   0  0  0  0  0  0  0  0  0  0  0  0
   -6.3494    0.5662    1.8952 F   0  0  0  0  0  0  0  0  0  0  0  0
   -5.0847    2.3248    1.6937 F   0  0  0  0  0  0  0  0  0  0  0  0
   -4.6379   -0.3123   -0.1764 C   0  0  0  0  0  0  0  0  0  0  0  0
   -3.7890   -0.9818   -1.0725 C   0  0  0  0  0  0  0  0  0  0  0  0
   -4.3316   -1.5964   -2.3422 C   0  0  0  0  0  0  0  0  0  0  0  0
   -4.6192   -2.9177   -2.1946 F   0  0  0  0  0  0  0  0  0  0  0  0
   -5.4810   -1.0057   -2.7720 F   0  0  0  0  0  0  0  0  0  0  0  0
   -3.4593   -1.5134   -3.3848 F   0  0  0  0  0  0  0  0  0  0  0  0
   -2.4267   -1.0996   -0.7552 C   0  0  0  0  0  0  0  0  0  0  0  0
    2.3894   -0.5481    0.6015 N   0  0  0  0  0  0  0  0  0  0  0  0
    3.7668   -0.4266    0.5751 C   0  0  0  0  0  0  0  0  0  0  0  0
    4.4954   -1.1256    1.2766 O   0  0  0  0  0  0  0  0  0  0  0  0
    6.3134   -0.7755    0.8607 H   0  0  0  0  0  0  0  0  0  0  0  0
    8.1068    0.8187   -0.5943 H   0  0  0  0  0  0  0  0  0  0  0  0
    3.8732    2.1234   -1.7291 H   0  0  0  0  0  0  0  0  0  0  0  0
    1.6062    1.6810   -1.5847 H   0  0  0  0  0  0  0  0  0  0  0  0
   -0.1338    1.1491   -0.2056 H   0  0  0  0  0  0  0  0  0  0  0  0
   -0.1133   -1.7036    0.5760 H   0  0  0  0  0  0  0  0  0  0  0  0
   -0.2416   -0.4205    1.7858 H   0  0  0  0  0  0  0  0  0  0  0  0
   -2.3777    0.5680    2.2165 H   0  0  0  0  0  0  0  0  0  0  0  0
   -5.7008   -0.2216   -0.4091 H   0  0  0  0  0  0  0  0  0  0  0  0
   -1.7573   -1.6219   -1.4411 H   0  0  0  0  0  0  0  0  0  0  0  0
  1  2  2  0
  2  3  1  0
  3  4  1  0
  2  5  1  0
  5  6  2  0
  6  7  1  0
  7  8  1  0
  8  9  1  0
  9 10  1  0
 10 11  1  0
 11 12  2  0
 12 13  1  0
 13 14  1  0
 14 15  1  0
 14 16  1  0
 14 17  1  0
 13 18  2  0
 18 19  1  0
 19 20  1  0
 20 21  1  0
 20 22  1  0
 20 23  1  0
 19 24  2  0
  8 25  2  0
 25 26  1  0
 26 27  2  0
 26  5  1  0
 24 11  1  0
  3 28  1  0
  4 29  1  0
  6 30  1  0
  7 31  1  0
  9 32  1  0
 10 33  1  0
 10 34  1  0
 12 35  1  0
 18 36  1  0
 24 37  1  0
M  END
$$$$
