
     RDKit          3D

 52 53  0  0  0  0  0  0  0  0999 V2000
    7.1967    1.1262   -2.6065 C   0  0  0  0  0  0  0  0  0  0  0  0
    6.5666    0.5059   -1.3948 C   0  0  0  0  0  0  0  0  0  0  0  0
    5.9977    1.3207   -0.4087 C   0  0  0  0  0  0  0  0  0  0  0  0
    5.4018    0.7529    0.7202 C   0  0  0  0  0  0  0  0  0  0  0  0
    5.3660   -0.6397    0.8876 C   0  0  0  0  0  0  0  0  0  0  0  0
    4.7041   -1.2476    2.0990 C   0  0  0  0  0  0  0  0  0  0  0  0
    2.8886   -1.1289    2.0364 S   0  0  0  0  0  0  0  0  0  0  0  0
    2.5614   -2.4367    0.8070 C   0  0  0  0  0  0  0  0  0  0  0  0
    1.0670   -2.6226    0.5973 C   0  0  0  0  0  0  0  0  0  0  0  0
    0.5341   -3.7279    0.6733 O   0  0  0  0  0  0  0  0  0  0  0  0
    0.3945   -1.4747    0.2371 N   0  0  0  0  0  0  0  0  0  0  0  0
   -1.0283   -1.4442   -0.0311 C   0  0  0  0  0  0  0  0  0  0  0  0
   -1.7488   -0.4758    0.9026 C   0  0  0  0  0  0  0  0  0  0  0  0
   -3.2504   -0.4492    0.5902 C   0  0  0  0  0  0  0  0  0  0  0  0
   -3.9648    0.5053    1.4578 N   0  0  0  0  0  0  0  0  0  0  0  0
   -5.3991    0.1612    1.5318 C   0  0  0  0  0  0  0  0  0  0  0  0
   -6.1954    0.3378    0.2107 C   0  0  0  0  0  0  0  0  0  0  0  0
   -5.6626    1.3811   -0.6883 N   0  0  0  0  0  0  0  0  0  0  0  0
   -6.7008    1.9124   -1.5621 C   0  0  0  0  0  0  0  0  0  0  0  0
   -5.0067    2.4402    0.0911 C   0  0  0  0  0  0  0  0  0  0  0  0
   -3.8353    1.9007    0.9620 C   0  0  0  0  0  0  0  0  0  0  0  0
    5.9459   -1.4519   -0.0964 C   0  0  0  0  0  0  0  0  0  0  0  0
    6.5396   -0.8846   -1.2277 C   0  0  0  0  0  0  0  0  0  0  0  0
    6.4582    1.7241   -3.1495 H   0  0  0  0  0  0  0  0  0  0  0  0
    8.0314    1.7710   -2.3104 H   0  0  0  0  0  0  0  0  0  0  0  0
    7.5836    0.3656   -3.2940 H   0  0  0  0  0  0  0  0  0  0  0  0
    6.0158    2.4042   -0.5126 H   0  0  0  0  0  0  0  0  0  0  0  0
    4.9566    1.4081    1.4678 H   0  0  0  0  0  0  0  0  0  0  0  0
    5.0526   -0.7220    2.9961 H   0  0  0  0  0  0  0  0  0  0  0  0
    4.9954   -2.2978    2.2266 H   0  0  0  0  0  0  0  0  0  0  0  0
    3.0114   -2.1831   -0.1585 H   0  0  0  0  0  0  0  0  0  0  0  0
    2.9824   -3.3815    1.1659 H   0  0  0  0  0  0  0  0  0  0  0  0
    0.8995   -0.5969    0.2971 H   0  0  0  0  0  0  0  0  0  0  0  0
   -1.4515   -2.4510    0.0631 H   0  0  0  0  0  0  0  0  0  0  0  0
   -1.1464   -1.1274   -1.0747 H   0  0  0  0  0  0  0  0  0  0  0  0
   -1.5927   -0.7868    1.9435 H   0  0  0  0  0  0  0  0  0  0  0  0
   -1.3027    0.5208    0.8038 H   0  0  0  0  0  0  0  0  0  0  0  0
   -3.4169   -0.2381   -0.4739 H   0  0  0  0  0  0  0  0  0  0  0  0
   -3.6310   -1.4648    0.7712 H   0  0  0  0  0  0  0  0  0  0  0  0
   -5.5299   -0.8619    1.9073 H   0  0  0  0  0  0  0  0  0  0  0  0
   -5.8530    0.8060    2.2969 H   0  0  0  0  0  0  0  0  0  0  0  0
   -7.2392    0.5413    0.4815 H   0  0  0  0  0  0  0  0  0  0  0  0
   -6.1841   -0.6114   -0.3395 H   0  0  0  0  0  0  0  0  0  0  0  0
   -7.1452    1.1130   -2.1629 H   0  0  0  0  0  0  0  0  0  0  0  0
   -6.2790    2.6395   -2.2649 H   0  0  0  0  0  0  0  0  0  0  0  0
   -7.5006    2.4060   -0.9994 H   0  0  0  0  0  0  0  0  0  0  0  0
   -5.7405    2.9343    0.7459 H   0  0  0  0  0  0  0  0  0  0  0  0
   -4.6078    3.2110   -0.5816 H   0  0  0  0  0  0  0  0  0  0  0  0
   -2.8964    2.0321    0.4077 H   0  0  0  0  0  0  0  0  0  0  0  0
   -3.7483    2.5575    1.8402 H   0  0  0  0  0  0  0  0  0  0  0  0
    5.9334   -2.5367    0.0010 H   0  0  0  0  0  0  0  0  0  0  0  0
    6.9735   -1.5365   -1.9859 H   0  0  0  0  0  0  0  0  0  0  0  0
  1  2  1  0
  2  3  2  0
  3  4  1  0
  4  5  2  0
  5  6  1  0
  6  7  1  0
  7  8  1  0
  8  9  1  0
  9 10  2  0
  9 11  1  0
 11 12  1  0
 12 13  1  0
 13 14  1  0
 14 15  1  0
 15 16  1  0
 16 17  1  0
 17 18  1  0
 18 19  1  0
 18 20  1  0
 20 21  1  0
  5 22  1  0
 22 23  2  0
 23  2  1  0
 21 15  1  0
  1 24  1  0
  1 25  1  0
  1 26  1  0
  3 27  1  0
  4 28  1  0
  6 29  1  0
  6 30  1  0
  8 31  1  0
  8 32  1  0
 11 33  1  0
 12 34  1  0
 12 35  1  0
 13 36  1  0
 13 37  1  0
 14 38  1  0
 14 39  1  0
 16 40  1  0
 16 41  1  0
 17 42  1  0
 17 43  1  0
 19 44  1  0
 19 45  1  0
 19 46  1  0
 20 47  1  0
 20 48  1  0
 21 49  1  0
 21 50  1  0
 22 51  1  0
 23 52  1  0
M  END
$$$$
