
     RDKit          3D

 54 55  0  0  0  0  0  0  0  0999 V2000
   -1.5410   -3.3491    1.7944 C   0  0  0  0  0  0  0  0  0  0  0  0
   -2.4249   -2.3297    1.0273 C   0  0  0  0  0  0  0  0  0  0  0  0
   -3.3761   -3.1680    0.1446 C   0  0  0  0  0  0  0  0  0  0  0  0
   -3.2335   -1.5762    2.1080 C   0  0  0  0  0  0  0  0  0  0  0  0
   -1.6152   -1.3350    0.1582 C   0  0  0  0  0  0  0  0  0  0  0  0
   -0.2175   -1.4389    0.0633 C   0  0  0  0  0  0  0  0  0  0  0  0
    0.5353   -0.5619   -0.7232 C   0  0  0  0  0  0  0  0  0  0  0  0
    2.0385   -0.6974   -0.7897 C   0  0  0  0  0  0  0  0  0  0  0  0
    2.7158    0.1009    0.3213 C   0  0  0  0  0  0  0  0  0  0  0  0
    4.2248   -0.0170    0.2553 C   0  0  0  0  0  0  0  0  0  0  0  0
    4.8073   -0.7300   -0.5582 O   0  0  0  0  0  0  0  0  0  0  0  0
    4.8941    0.7448    1.1765 N   0  0  0  0  0  0  0  0  0  0  0  0
    4.4580    1.3188    2.4367 C   0  0  0  0  0  0  0  0  0  0  0  0
    5.9397    1.6100    2.7052 C   0  0  0  0  0  0  0  0  0  0  0  0
    6.2828    0.6181    1.5873 C   0  0  0  0  0  0  0  0  0  0  0  0
   -0.1120    0.4694   -1.4129 C   0  0  0  0  0  0  0  0  0  0  0  0
   -1.5058    0.6554   -1.3501 C   0  0  0  0  0  0  0  0  0  0  0  0
   -2.1536    1.8518   -2.0937 C   0  0  0  0  0  0  0  0  0  0  0  0
   -3.2533    2.5492   -1.2569 C   0  0  0  0  0  0  0  0  0  0  0  0
   -2.7459    1.3618   -3.4309 C   0  0  0  0  0  0  0  0  0  0  0  0
   -1.1375    2.9766   -2.4387 C   0  0  0  0  0  0  0  0  0  0  0  0
   -2.2295   -0.2937   -0.5844 C   0  0  0  0  0  0  0  0  0  0  0  0
   -3.5965   -0.2445   -0.5527 O   0  0  0  0  0  0  0  0  0  0  0  0
   -2.1533   -4.0215    2.4079 H   0  0  0  0  0  0  0  0  0  0  0  0
   -0.9654   -3.9829    1.1095 H   0  0  0  0  0  0  0  0  0  0  0  0
   -0.8408   -2.8471    2.4725 H   0  0  0  0  0  0  0  0  0  0  0  0
   -3.8930   -3.9318    0.7377 H   0  0  0  0  0  0  0  0  0  0  0  0
   -2.8228   -3.6826   -0.6500 H   0  0  0  0  0  0  0  0  0  0  0  0
   -4.1545   -2.5680   -0.3345 H   0  0  0  0  0  0  0  0  0  0  0  0
   -4.0159   -0.9368    1.6903 H   0  0  0  0  0  0  0  0  0  0  0  0
   -3.7369   -2.2776    2.7843 H   0  0  0  0  0  0  0  0  0  0  0  0
   -2.5788   -0.9405    2.7160 H   0  0  0  0  0  0  0  0  0  0  0  0
    0.3234   -2.2161    0.5959 H   0  0  0  0  0  0  0  0  0  0  0  0
    2.3133   -1.7581   -0.7226 H   0  0  0  0  0  0  0  0  0  0  0  0
    2.3940   -0.3634   -1.7731 H   0  0  0  0  0  0  0  0  0  0  0  0
    2.3821   -0.2630    1.3004 H   0  0  0  0  0  0  0  0  0  0  0  0
    2.4469    1.1614    0.2426 H   0  0  0  0  0  0  0  0  0  0  0  0
    3.8219    2.2002    2.3306 H   0  0  0  0  0  0  0  0  0  0  0  0
    3.9980    0.5862    3.1062 H   0  0  0  0  0  0  0  0  0  0  0  0
    6.2358    2.6430    2.4891 H   0  0  0  0  0  0  0  0  0  0  0  0
    6.2987    1.3372    3.7013 H   0  0  0  0  0  0  0  0  0  0  0  0
    7.0002    0.9778    0.8465 H   0  0  0  0  0  0  0  0  0  0  0  0
    6.5399   -0.3923    1.9181 H   0  0  0  0  0  0  0  0  0  0  0  0
    0.5138    1.1330   -2.0032 H   0  0  0  0  0  0  0  0  0  0  0  0
   -4.1694    1.9596   -1.1727 H   0  0  0  0  0  0  0  0  0  0  0  0
   -2.8974    2.7722   -0.2445 H   0  0  0  0  0  0  0  0  0  0  0  0
   -3.5599    3.4973   -1.7157 H   0  0  0  0  0  0  0  0  0  0  0  0
   -3.1826    2.1935   -3.9963 H   0  0  0  0  0  0  0  0  0  0  0  0
   -1.9739    0.9027   -4.0600 H   0  0  0  0  0  0  0  0  0  0  0  0
   -3.5346    0.6168   -3.2948 H   0  0  0  0  0  0  0  0  0  0  0  0
   -1.6404    3.8446   -2.8828 H   0  0  0  0  0  0  0  0  0  0  0  0
   -0.3939    2.6508   -3.1746 H   0  0  0  0  0  0  0  0  0  0  0  0
   -0.6091    3.3261   -1.5439 H   0  0  0  0  0  0  0  0  0  0  0  0
   -3.8993   -0.1364   -1.4670 H   0  0  0  0  0  0  0  0  0  0  0  0
  1  2  1  0
  2  3  1  0
  2  4  1  0
  2  5  1  0
  5  6  2  0
  6  7  1  0
  7  8  1  0
  8  9  1  0
  9 10  1  0
 10 11  2  0
 10 12  1  0
 12 13  1  0
 13 14  1  0
 14 15  1  0
  7 16  2  0
 16 17  1  0
 17 18  1  0
 18 19  1  0
 18 20  1  0
 18 21  1  0
 17 22  2  0
 22 23  1  0
 22  5  1  0
 15 12  1  0
  1 24  1  0
  1 25  1  0
  1 26  1  0
  3 27  1  0
  3 28  1  0
  3 29  1  0
  4 30  1  0
  4 31  1  0
  4 32  1  0
  6 33  1  0
  8 34  1  0
  8 35  1  0
  9 36  1  0
  9 37  1  0
 13 38  1  0
 13 39  1  0
 14 40  1  0
 14 41  1  0
 15 42  1  0
 15 43  1  0
 16 44  1  0
 19 45  1  0
 19 46  1  0
 19 47  1  0
 20 48  1  0
 20 49  1  0
 20 50  1  0
 21 51  1  0
 21 52  1  0
 21 53  1  0
 23 54  1  0
M  END
$$$$
