
     RDKit          3D

 53 56  0  0  0  0  0  0  0  0999 V2000
    3.2085    1.4028    2.1613 C   0  0  0  0  0  0  0  0  0  0  0  0
    3.4281    0.2962    1.1656 C   0  0  0  0  0  0  0  0  0  0  0  0
    4.4954    0.4170    0.2561 C   0  0  0  0  0  0  0  0  0  0  0  0
    4.7583   -0.5901   -0.6755 C   0  0  0  0  0  0  0  0  0  0  0  0
    3.9694   -1.7387   -0.7130 C   0  0  0  0  0  0  0  0  0  0  0  0
    2.9126   -1.8817    0.1819 C   0  0  0  0  0  0  0  0  0  0  0  0
    2.6379   -0.8706    1.1159 C   0  0  0  0  0  0  0  0  0  0  0  0
    1.2633   -1.1244    2.2292 S   0  0  0  0  0  6  0  0  0  0  0  0
    0.6808   -2.4217    1.9583 O   0  0  0  0  0  0  0  0  0  0  0  0
    1.7058   -0.7718    3.5605 O   0  0  0  0  0  0  0  0  0  0  0  0
    0.1368    0.0468    1.7031 N   0  0  0  0  0  0  0  0  0  0  0  0
   -0.9885    0.2497    2.6734 C   0  0  0  0  0  0  0  0  0  0  0  0
   -1.8194    1.4722    2.2624 C   0  0  0  0  0  0  0  0  0  0  0  0
   -2.2716    1.4210    0.8654 N   0  0  0  0  0  0  0  0  0  0  0  0
   -3.4096    2.1533    0.5400 C   0  0  0  0  0  0  0  0  0  0  0  0
   -4.1044    2.6913    1.4068 O   0  0  0  0  0  0  0  0  0  0  0  0
   -3.8118    2.2722   -0.9248 C   0  0  0  0  0  0  0  0  0  0  0  0
   -4.4618    1.0288   -1.4899 C   0  0  0  0  0  0  0  0  0  0  0  0
   -5.4926    0.3761   -0.7943 C   0  0  0  0  0  0  0  0  0  0  0  0
   -6.1058   -0.7569   -1.3331 C   0  0  0  0  0  0  0  0  0  0  0  0
   -5.7025   -1.2372   -2.5761 C   0  0  0  0  0  0  0  0  0  0  0  0
   -6.4571   -2.6348   -3.2381 Cl  0  0  0  0  0  0  0  0  0  0  0  0
   -4.6960   -0.5883   -3.2896 C   0  0  0  0  0  0  0  0  0  0  0  0
   -4.0827    0.5460   -2.7520 C   0  0  0  0  0  0  0  0  0  0  0  0
   -1.2421    1.0389   -0.1092 C   0  0  0  0  0  0  0  0  0  0  0  0
   -0.4208   -0.1818    0.3337 C   0  0  0  0  0  0  0  0  0  0  0  0
    4.1343   -2.7467   -1.6195 O   0  0  0  0  0  0  0  0  0  0  0  0
    5.3508   -2.7059   -2.3505 C   0  0  0  0  0  0  0  0  0  0  0  0
    6.1240   -1.3951   -2.4913 C   0  0  0  0  0  0  0  0  0  0  0  0
    7.0098   -1.2245   -3.3246 O   0  0  0  0  0  0  0  0  0  0  0  0
    5.7998   -0.4240   -1.5866 N   0  0  0  0  0  0  0  0  0  0  0  0
    2.1634    1.7242    2.1759 H   0  0  0  0  0  0  0  0  0  0  0  0
    3.5194    1.0850    3.1600 H   0  0  0  0  0  0  0  0  0  0  0  0
    3.7980    2.2892    1.9017 H   0  0  0  0  0  0  0  0  0  0  0  0
    5.1247    1.3056    0.2816 H   0  0  0  0  0  0  0  0  0  0  0  0
    2.3058   -2.7845    0.1423 H   0  0  0  0  0  0  0  0  0  0  0  0
   -1.6216   -0.6455    2.6932 H   0  0  0  0  0  0  0  0  0  0  0  0
   -0.5950    0.4223    3.6802 H   0  0  0  0  0  0  0  0  0  0  0  0
   -1.2183    2.3848    2.3644 H   0  0  0  0  0  0  0  0  0  0  0  0
   -2.6772    1.5674    2.9374 H   0  0  0  0  0  0  0  0  0  0  0  0
   -4.5268    3.1009   -1.0134 H   0  0  0  0  0  0  0  0  0  0  0  0
   -2.9399    2.5771   -1.5131 H   0  0  0  0  0  0  0  0  0  0  0  0
   -5.8299    0.7475    0.1732 H   0  0  0  0  0  0  0  0  0  0  0  0
   -6.8986   -1.2549   -0.7804 H   0  0  0  0  0  0  0  0  0  0  0  0
   -4.3901   -0.9561   -4.2660 H   0  0  0  0  0  0  0  0  0  0  0  0
   -3.3080    1.0494   -3.3293 H   0  0  0  0  0  0  0  0  0  0  0  0
   -0.5868    1.9099   -0.2319 H   0  0  0  0  0  0  0  0  0  0  0  0
   -1.6867    0.8240   -1.0818 H   0  0  0  0  0  0  0  0  0  0  0  0
    0.3852   -0.3332   -0.3895 H   0  0  0  0  0  0  0  0  0  0  0  0
   -1.0582   -1.0739    0.3377 H   0  0  0  0  0  0  0  0  0  0  0  0
    5.1189   -3.0491   -3.3657 H   0  0  0  0  0  0  0  0  0  0  0  0
    6.0330   -3.4385   -1.9033 H   0  0  0  0  0  0  0  0  0  0  0  0
    6.3399    0.4303   -1.6190 H   0  0  0  0  0  0  0  0  0  0  0  0
  1  2  1  0
  2  3  2  0
  3  4  1  0
  4  5  2  0
  5  6  1  0
  6  7  2  0
  7  8  1  0
  8  9  2  0
  8 10  2  0
  8 11  1  0
 11 12  1  0
 12 13  1  0
 13 14  1  0
 14 15  1  0
 15 16  2  0
 15 17  1  0
 17 18  1  0
 18 19  2  0
 19 20  1  0
 20 21  2  0
 21 22  1  0
 21 23  1  0
 23 24  2  0
 14 25  1  0
 25 26  1  0
  5 27  1  0
 27 28  1  0
 28 29  1  0
 29 30  2  0
 29 31  1  0
  7  2  1  0
 26 11  1  0
 31  4  1  0
 24 18  1  0
  1 32  1  0
  1 33  1  0
  1 34  1  0
  3 35  1  0
  6 36  1  0
 12 37  1  0
 12 38  1  0
 13 39  1  0
 13 40  1  0
 17 41  1  0
 17 42  1  0
 19 43  1  0
 20 44  1  0
 23 45  1  0
 24 46  1  0
 25 47  1  0
 25 48  1  0
 26 49  1  0
 26 50  1  0
 28 51  1  0
 28 52  1  0
 31 53  1  0
M  END
$$$$
