
     RDKit          3D

 19 19  0  0  0  0  0  0  0  0999 V2000
   -3.2854    0.8513    0.0720 N   0  0  0  0  0  0  0  0  0  0  0  0
   -1.9730    0.3820    0.1901 C   0  0  0  0  0  0  0  0  0  0  0  0
   -1.5315   -0.6778   -0.6091 C   0  0  0  0  0  0  0  0  0  0  0  0
   -0.1926   -1.0761   -0.5922 C   0  0  0  0  0  0  0  0  0  0  0  0
    0.7215   -0.3732    0.1947 C   0  0  0  0  0  0  0  0  0  0  0  0
    2.4211   -0.8739    0.2083 S   0  0  0  0  0  6  0  0  0  0  0  0
    3.0148   -0.0809   -1.1543 N   0  0  0  0  0  0  0  0  0  0  0  0
    2.4817   -2.2943   -0.0394 O   0  0  0  0  0  0  0  0  0  0  0  0
    3.0760   -0.2511    1.3357 O   0  0  0  0  0  0  0  0  0  0  0  0
    0.3080    0.7142    0.9651 C   0  0  0  0  0  0  0  0  0  0  0  0
   -1.0345    1.1010    0.9383 C   0  0  0  0  0  0  0  0  0  0  0  0
   -3.6079    1.3824    0.8754 H   0  0  0  0  0  0  0  0  0  0  0  0
   -3.9543    0.1399   -0.2075 H   0  0  0  0  0  0  0  0  0  0  0  0
   -2.2324   -1.2082   -1.2493 H   0  0  0  0  0  0  0  0  0  0  0  0
    0.1274   -1.9222   -1.1970 H   0  0  0  0  0  0  0  0  0  0  0  0
    2.2820    0.3409   -1.7240 H   0  0  0  0  0  0  0  0  0  0  0  0
    3.7093    0.6068   -0.8576 H   0  0  0  0  0  0  0  0  0  0  0  0
    1.0154    1.2697    1.5766 H   0  0  0  0  0  0  0  0  0  0  0  0
   -1.3457    1.9696    1.5140 H   0  0  0  0  0  0  0  0  0  0  0  0
  1  2  1  0
  2  3  2  0
  3  4  1  0
  4  5  2  0
  5  6  1  0
  6  7  1  0
  6  8  2  0
  6  9  2  0
  5 10  1  0
 10 11  2  0
 11  2  1  0
  1 12  1  0
  1 13  1  0
  3 14  1  0
  4 15  1  0
  7 16  1  0
  7 17  1  0
 10 18  1  0
 11 19  1  0
M  END
$$$$
