
     RDKit          3D

 45 49  0  0  0  0  0  0  0  0999 V2000
    3.2506   -2.3150   -1.6267 O   0  0  0  0  0  0  0  0  0  0  0  0
    3.7599   -1.2857   -1.2264 C   0  0  0  0  0  0  0  0  0  0  0  0
    5.0341   -1.2282   -0.5252 C   0  0  0  0  0  0  0  0  0  0  0  0
    5.9184   -2.2099   -0.1346 C   0  0  0  0  0  0  0  0  0  0  0  0
    7.0730   -1.7833    0.5261 C   0  0  0  0  0  0  0  0  0  0  0  0
    7.2697   -0.4131    0.7493 C   0  0  0  0  0  0  0  0  0  0  0  0
    6.4042    0.5563    0.3634 N   0  0  0  0  0  0  0  0  0  0  0  0
    5.3081    0.0921   -0.2620 C   0  0  0  0  0  0  0  0  0  0  0  0
    4.2006    0.8972   -0.7979 C   0  0  0  0  0  0  0  0  0  0  0  0
    4.1191    2.1108   -0.7809 O   0  0  0  0  0  0  0  0  0  0  0  0
    3.3125    0.0005   -1.3339 N   0  0  0  0  0  0  0  0  0  0  0  0
    2.0635    0.3757   -1.9569 C   0  0  0  0  0  0  0  0  0  0  0  0
    0.9452    0.1970   -0.9700 C   0  0  0  0  0  0  0  0  0  0  0  0
    0.2196   -0.9480   -0.7036 C   0  0  0  0  0  0  0  0  0  0  0  0
   -0.7611   -0.7420    0.3072 C   0  0  0  0  0  0  0  0  0  0  0  0
   -0.7668    0.5569    0.7814 C   0  0  0  0  0  0  0  0  0  0  0  0
   -1.7816    1.3485    2.0270 S   0  0  0  0  0  6  0  0  0  0  0  0
   -1.1952    2.6479    2.2838 O   0  0  0  0  0  0  0  0  0  0  0  0
   -1.8523    0.3573    3.0817 O   0  0  0  0  0  0  0  0  0  0  0  0
   -3.3408    1.5920    1.3591 N   0  0  0  0  0  0  0  0  0  0  0  0
   -3.4815    2.7283    0.4110 C   0  0  0  0  0  0  0  0  0  0  0  0
   -3.3443    2.2318   -1.0224 C   0  0  0  0  0  0  0  0  0  0  0  0
   -4.3086    1.2294   -1.3583 O   0  0  0  0  0  0  0  0  0  0  0  0
   -4.5086    0.2866   -0.3803 C   0  0  0  0  0  0  0  0  0  0  0  0
   -5.2332   -0.8389   -0.7777 C   0  0  0  0  0  0  0  0  0  0  0  0
   -5.5326   -1.8404    0.1446 C   0  0  0  0  0  0  0  0  0  0  0  0
   -5.1252   -1.7075    1.4701 C   0  0  0  0  0  0  0  0  0  0  0  0
   -4.4091   -0.5779    1.8740 C   0  0  0  0  0  0  0  0  0  0  0  0
   -4.0789    0.4185    0.9514 C   0  0  0  0  0  0  0  0  0  0  0  0
    0.4265    1.5054    0.0070 S   0  0  0  0  0  0  0  0  0  0  0  0
    5.7241   -3.2586   -0.3313 H   0  0  0  0  0  0  0  0  0  0  0  0
    7.8145   -2.5009    0.8656 H   0  0  0  0  0  0  0  0  0  0  0  0
    8.1613   -0.0573    1.2616 H   0  0  0  0  0  0  0  0  0  0  0  0
    1.8941   -0.2729   -2.8244 H   0  0  0  0  0  0  0  0  0  0  0  0
    2.1204    1.4107   -2.3117 H   0  0  0  0  0  0  0  0  0  0  0  0
    0.3954   -1.8955   -1.2027 H   0  0  0  0  0  0  0  0  0  0  0  0
   -1.4325   -1.5070    0.6804 H   0  0  0  0  0  0  0  0  0  0  0  0
   -4.4781    3.1618    0.5650 H   0  0  0  0  0  0  0  0  0  0  0  0
   -2.7610    3.5253    0.6129 H   0  0  0  0  0  0  0  0  0  0  0  0
   -3.4982    3.0693   -1.7112 H   0  0  0  0  0  0  0  0  0  0  0  0
   -2.3488    1.8303   -1.2287 H   0  0  0  0  0  0  0  0  0  0  0  0
   -5.5690   -0.9315   -1.8073 H   0  0  0  0  0  0  0  0  0  0  0  0
   -6.0974   -2.7157   -0.1670 H   0  0  0  0  0  0  0  0  0  0  0  0
   -5.3746   -2.4772    2.1970 H   0  0  0  0  0  0  0  0  0  0  0  0
   -4.1353   -0.4814    2.9217 H   0  0  0  0  0  0  0  0  0  0  0  0
  1  2  2  0
  2  3  1  0
  3  4  2  0
  4  5  1  0
  5  6  2  0
  6  7  1  0
  7  8  2  0
  8  9  1  0
  9 10  2  0
  9 11  1  0
 11 12  1  0
 12 13  1  0
 13 14  2  0
 14 15  1  0
 15 16  2  0
 16 17  1  0
 17 18  2  0
 17 19  2  0
 17 20  1  0
 20 21  1  0
 21 22  1  0
 22 23  1  0
 23 24  1  0
 24 25  2  0
 25 26  1  0
 26 27  2  0
 27 28  1  0
 28 29  2  0
 16 30  1  0
 11  2  1  0
 30 13  1  0
  8  3  1  0
 29 20  1  0
 29 24  1  0
  4 31  1  0
  5 32  1  0
  6 33  1  0
 12 34  1  0
 12 35  1  0
 14 36  1  0
 15 37  1  0
 21 38  1  0
 21 39  1  0
 22 40  1  0
 22 41  1  0
 25 42  1  0
 26 43  1  0
 27 44  1  0
 28 45  1  0
M  END
$$$$
