
     RDKit          3D

 18 19  0  0  0  0  0  0  0  0999 V2000
    2.2575    1.8123    1.8362 S   0  0  0  0  0  0  0  0  0  0  0  0
    2.2941    0.7746    0.5479 C   0  0  0  0  0  0  0  0  0  0  0  0
    3.4741    0.4347   -0.0823 N   0  0  0  0  0  0  0  0  0  0  0  0
    3.2354   -0.4233   -1.0994 N   0  0  0  0  0  0  0  0  0  0  0  0
    1.9901   -0.6490   -1.1562 N   0  0  0  0  0  0  0  0  0  0  0  0
    1.3344    0.0598   -0.1639 N   0  0  0  0  0  0  0  0  0  0  0  0
   -0.0741   -0.0663   -0.0686 C   0  0  0  0  0  0  0  0  0  0  0  0
   -0.7606   -0.8987   -0.9744 C   0  0  0  0  0  0  0  0  0  0  0  0
   -2.1500   -1.0551   -0.9200 C   0  0  0  0  0  0  0  0  0  0  0  0
   -2.8872   -0.3804    0.0446 C   0  0  0  0  0  0  0  0  0  0  0  0
   -2.2331    0.4471    0.9502 C   0  0  0  0  0  0  0  0  0  0  0  0
   -0.8411    0.6017    0.8931 C   0  0  0  0  0  0  0  0  0  0  0  0
    4.4047    0.7519    0.1437 H   0  0  0  0  0  0  0  0  0  0  0  0
   -0.2246   -1.4464   -1.7465 H   0  0  0  0  0  0  0  0  0  0  0  0
   -2.6506   -1.7048   -1.6334 H   0  0  0  0  0  0  0  0  0  0  0  0
   -3.9665   -0.4982    0.0915 H   0  0  0  0  0  0  0  0  0  0  0  0
   -2.8031    0.9789    1.7087 H   0  0  0  0  0  0  0  0  0  0  0  0
   -0.3995    1.2611    1.6289 H   0  0  0  0  0  0  0  0  0  0  0  0
  1  2  2  0
  2  3  1  0
  3  4  1  0
  4  5  2  0
  5  6  1  0
  6  7  1  0
  7  8  2  0
  8  9  1  0
  9 10  2  0
 10 11  1  0
 11 12  2  0
  6  2  1  0
 12  7  1  0
  3 13  1  0
  8 14  1  0
  9 15  1  0
 10 16  1  0
 11 17  1  0
 12 18  1  0
M  END
$$$$
