
     RDKit          3D

 66 67  0  0  0  0  0  0  0  0999 V2000
   -1.8933   -2.8679   -1.2320 C   0  0  0  0  0  0  0  0  0  0  0  0
   -2.4232   -1.6125   -0.5239 C   0  0  1  0  0  0  0  0  0  0  0  0
   -1.4874   -0.3854   -0.6776 C   0  0  0  0  0  0  0  0  0  0  0  0
   -0.1058   -0.6463   -0.2390 N   0  0  0  0  0  0  0  0  0  0  0  0
    0.4141    0.4569    0.5849 C   0  0  0  0  0  0  0  0  0  0  0  0
    1.9274    0.3572    0.7652 C   0  0  0  0  0  0  0  0  0  0  0  0
    2.6625    0.5293   -0.5780 C   0  0  0  0  0  0  0  0  0  0  0  0
    4.0059   -0.2292   -0.5962 C   0  0  0  0  0  0  0  0  0  0  0  0
    4.9916    0.2525    0.4416 C   0  0  0  0  0  0  0  0  0  0  0  0
    5.6225    1.4964    0.3051 C   0  0  0  0  0  0  0  0  0  0  0  0
    6.5290    1.9383    1.2698 C   0  0  0  0  0  0  0  0  0  0  0  0
    6.8146    1.1427    2.3782 C   0  0  0  0  0  0  0  0  0  0  0  0
    6.1953   -0.0970    2.5217 C   0  0  0  0  0  0  0  0  0  0  0  0
    5.2876   -0.5404    1.5586 C   0  0  0  0  0  0  0  0  0  0  0  0
    1.7659    0.0914   -1.7523 C   0  0  0  0  0  0  0  0  0  0  0  0
    0.7923   -1.0158   -1.3458 C   0  0  0  0  0  0  0  0  0  0  0  0
   -3.8440   -1.2718   -1.0498 C   0  0  1  0  0  0  0  0  0  0  0  0
   -4.7111   -2.4052   -0.9756 O   0  0  0  0  0  0  0  0  0  0  0  0
   -4.5372   -0.1289   -0.3355 C   0  0  0  0  0  0  0  0  0  0  0  0
   -4.8425   -0.1917    1.0352 C   0  0  0  0  0  0  0  0  0  0  0  0
   -5.4853    0.8730    1.6730 C   0  0  0  0  0  0  0  0  0  0  0  0
   -5.8230    2.0057    0.9410 C   0  0  0  0  0  0  0  0  0  0  0  0
   -6.4548    3.0648    1.5200 O   0  0  0  0  0  0  0  0  0  0  0  0
   -5.5317    2.0902   -0.4140 C   0  0  0  0  0  0  0  0  0  0  0  0
   -4.8962    1.0243   -1.0522 C   0  0  0  0  0  0  0  0  0  0  0  0
    1.4522   -1.9608   -1.2515 O   0  0  0  0  0  0  0  0  0  0  0  0
    1.1875   -1.0464   -0.4956 C   0  0  0  0  0  0  0  0  0  0  0  0
    1.8511    0.1189   -0.4955 O   0  0  0  0  0  0  0  0  0  0  0  0
    0.2140   -1.1134    0.5962 C   0  0  0  0  0  0  0  0  0  0  0  0
   -0.7487   -0.2072    0.8107 C   0  0  0  0  0  0  0  0  0  0  0  0
   -1.0190    0.9322   -0.0757 C   0  0  0  0  0  0  0  0  0  0  0  0
   -0.7237    1.0608   -1.2465 O   0  0  0  0  0  0  0  0  0  0  0  0
   -1.7134    1.8660    0.5954 O   0  0  0  0  0  0  0  0  0  0  0  0
   -1.7877   -2.7003   -2.3080 H   0  0  0  0  0  0  0  0  0  0  0  0
   -2.5690   -3.7181   -1.0915 H   0  0  0  0  0  0  0  0  0  0  0  0
   -0.9239   -3.1769   -0.8297 H   0  0  0  0  0  0  0  0  0  0  0  0
   -2.4885   -1.8633    0.5439 H   0  0  0  0  0  0  0  0  0  0  0  0
   -1.5079   -0.0028   -1.7069 H   0  0  0  0  0  0  0  0  0  0  0  0
   -1.9126    0.4177   -0.0617 H   0  0  0  0  0  0  0  0  0  0  0  0
    0.1720    1.4331    0.1428 H   0  0  0  0  0  0  0  0  0  0  0  0
   -0.0645    0.4183    1.5709 H   0  0  0  0  0  0  0  0  0  0  0  0
    2.1684   -0.6115    1.2214 H   0  0  0  0  0  0  0  0  0  0  0  0
    2.2659    1.1267    1.4698 H   0  0  0  0  0  0  0  0  0  0  0  0
    2.8721    1.5991   -0.7205 H   0  0  0  0  0  0  0  0  0  0  0  0
    4.4793   -0.1216   -1.5816 H   0  0  0  0  0  0  0  0  0  0  0  0
    3.8292   -1.3059   -0.4708 H   0  0  0  0  0  0  0  0  0  0  0  0
    5.4135    2.1270   -0.5557 H   0  0  0  0  0  0  0  0  0  0  0  0
    7.0151    2.9034    1.1566 H   0  0  0  0  0  0  0  0  0  0  0  0
    7.5212    1.4891    3.1279 H   0  0  0  0  0  0  0  0  0  0  0  0
    6.4184   -0.7207    3.3832 H   0  0  0  0  0  0  0  0  0  0  0  0
    4.8100   -1.5095    1.6876 H   0  0  0  0  0  0  0  0  0  0  0  0
    2.3719   -0.2405   -2.6045 H   0  0  0  0  0  0  0  0  0  0  0  0
    1.1906    0.9566   -2.1080 H   0  0  0  0  0  0  0  0  0  0  0  0
    0.2365   -1.3440   -2.2322 H   0  0  0  0  0  0  0  0  0  0  0  0
    1.3714   -1.8906   -1.0226 H   0  0  0  0  0  0  0  0  0  0  0  0
   -3.7661   -1.0321   -2.1182 H   0  0  0  0  0  0  0  0  0  0  0  0
   -4.6102   -2.8002   -0.0928 H   0  0  0  0  0  0  0  0  0  0  0  0
   -4.5855   -1.0732    1.6172 H   0  0  0  0  0  0  0  0  0  0  0  0
   -5.7087    0.8015    2.7322 H   0  0  0  0  0  0  0  0  0  0  0  0
   -6.6961    2.8244    2.4298 H   0  0  0  0  0  0  0  0  0  0  0  0
   -5.8032    2.9818   -0.9746 H   0  0  0  0  0  0  0  0  0  0  0  0
   -4.6849    1.1021   -2.1168 H   0  0  0  0  0  0  0  0  0  0  0  0
    2.4445    0.0574   -1.2733 H   0  0  0  0  0  0  0  0  0  0  0  0
    0.3110   -1.9806    1.2363 H   0  0  0  0  0  0  0  0  0  0  0  0
   -1.4126   -0.3099    1.6615 H   0  0  0  0  0  0  0  0  0  0  0  0
   -1.8428    2.5829   -0.0620 H   0  0  0  0  0  0  0  0  0  0  0  0
  1  2  1  0
  2  3  1  0
  3  4  1  0
  4  5  1  0
  5  6  1  0
  6  7  1  0
  7  8  1  0
  8  9  1  0
  9 10  2  0
 10 11  1  0
 11 12  2  0
 12 13  1  0
 13 14  2  0
  7 15  1  0
 15 16  1  0
  2 17  1  0
 17 18  1  0
 17 19  1  0
 19 20  2  0
 20 21  1  0
 21 22  2  0
 22 23  1  0
 22 24  1  0
 24 25  2  0
 26 27  2  0
 27 28  1  0
 27 29  1  0
 29 30  2  0
 30 31  1  0
 31 32  2  0
 31 33  1  0
 16  4  1  0
 25 19  1  0
 14  9  1  0
  1 34  1  0
  1 35  1  0
  1 36  1  0
  2 37  1  1
  3 38  1  0
  3 39  1  0
  5 40  1  0
  5 41  1  0
  6 42  1  0
  6 43  1  0
  7 44  1  0
  8 45  1  0
  8 46  1  0
 10 47  1  0
 11 48  1  0
 12 49  1  0
 13 50  1  0
 14 51  1  0
 15 52  1  0
 15 53  1  0
 16 54  1  0
 16 55  1  0
 17 56  1  6
 18 57  1  0
 20 58  1  0
 21 59  1  0
 23 60  1  0
 24 61  1  0
 25 62  1  0
 28 63  1  0
 29 64  1  0
 30 65  1  0
 33 66  1  0
M  END
$$$$
