
     RDKit          3D

 84 88  0  0  0  0  0  0  0  0999 V2000
   -4.8047    8.4692    1.5101 C   0  0  0  0  0  0  0  0  0  0  0  0
   -5.6194    7.4359    1.2514 C   0  0  0  0  0  0  0  0  0  0  0  0
   -5.2935    5.9988    1.4707 C   0  0  0  0  0  0  0  0  0  0  0  0
   -6.2076    5.2422    1.7746 O   0  0  0  0  0  0  0  0  0  0  0  0
   -3.9743    5.6805    1.2380 N   0  0  0  0  0  0  0  0  0  0  0  0
   -3.3691    4.4095    1.3312 C   0  0  0  0  0  0  0  0  0  0  0  0
   -2.0089    4.3203    1.0123 C   0  0  0  0  0  0  0  0  0  0  0  0
   -1.3345    3.0945    1.0745 C   0  0  0  0  0  0  0  0  0  0  0  0
   -2.0092    1.9294    1.4516 C   0  0  0  0  0  0  0  0  0  0  0  0
   -1.3065    0.5864    1.5003 C   0  0  0  0  0  0  0  0  0  0  0  0
   -1.6563   -0.2759    0.3668 N   0  0  0  0  0  0  0  0  0  0  0  0
   -2.6440   -1.2435    0.6092 C   0  0  0  0  0  0  0  0  0  0  0  0
   -3.2227   -1.3317    1.6921 O   0  0  0  0  0  0  0  0  0  0  0  0
   -2.8980   -2.1087   -0.4360 N   0  0  0  0  0  0  0  0  0  0  0  0
   -3.8311   -3.1774   -0.3429 C   0  0  0  0  0  0  0  0  0  0  0  0
   -3.7543   -4.1736    0.6519 C   0  0  0  0  0  0  0  0  0  0  0  0
   -2.3755   -4.2686    1.7149 Cl  0  0  0  0  0  0  0  0  0  0  0  0
   -4.7164   -5.2057    0.7105 C   0  0  0  0  0  0  0  0  0  0  0  0
   -4.5585   -6.1433    1.7017 O   0  0  0  0  0  0  0  0  0  0  0  0
   -5.4638   -7.2404    1.7398 C   0  0  0  0  0  0  0  0  0  0  0  0
   -5.7463   -5.2394   -0.2328 C   0  0  0  0  0  0  0  0  0  0  0  0
   -5.8156   -4.2734   -1.2420 C   0  0  0  0  0  0  0  0  0  0  0  0
   -6.7852   -4.3132   -2.2146 O   0  0  0  0  0  0  0  0  0  0  0  0
   -8.1036   -4.5512   -1.7234 C   0  0  0  0  0  0  0  0  0  0  0  0
   -4.8412   -3.2685   -1.3183 C   0  0  0  0  0  0  0  0  0  0  0  0
   -4.9210   -2.0951   -2.6005 Cl  0  0  0  0  0  0  0  0  0  0  0  0
   -1.1029   -0.0025   -0.9264 C   0  0  0  0  0  0  0  0  0  0  0  0
    0.1039    0.6541   -1.0718 C   0  0  0  0  0  0  0  0  0  0  0  0
    0.5709    0.8746   -2.3556 C   0  0  0  0  0  0  0  0  0  0  0  0
    1.8131    1.4921   -2.5819 N   0  0  0  0  0  0  0  0  0  0  0  0
    3.0605    1.1401   -2.0174 C   0  0  0  0  0  0  0  0  0  0  0  0
    4.1390    2.0129   -2.1690 C   0  0  0  0  0  0  0  0  0  0  0  0
    5.4087    1.6966   -1.6567 C   0  0  0  0  0  0  0  0  0  0  0  0
    5.6616    0.4915   -0.9870 C   0  0  0  0  0  0  0  0  0  0  0  0
    6.9087    0.1697   -0.4787 N   0  0  0  0  0  0  0  0  0  0  0  0
    7.2868   -1.2366   -0.2462 C   0  0  0  0  0  0  0  0  0  0  0  0
    8.8184   -1.4355   -0.3366 C   0  0  0  0  0  0  0  0  0  0  0  0
    9.6254   -0.5808    0.5581 N   0  0  0  0  0  0  0  0  0  0  0  0
    9.8707   -1.2331    1.8407 C   0  0  0  0  0  0  0  0  0  0  0  0
    8.9776    0.7343    0.7672 C   0  0  0  0  0  0  0  0  0  0  0  0
    7.9868    1.1625   -0.3450 C   0  0  0  0  0  0  0  0  0  0  0  0
    4.5664   -0.3750   -0.8519 C   0  0  0  0  0  0  0  0  0  0  0  0
    3.2942   -0.0650   -1.3580 C   0  0  0  0  0  0  0  0  0  0  0  0
   -0.1355    0.5372   -3.4395 N   0  0  0  0  0  0  0  0  0  0  0  0
   -1.2880   -0.0951   -3.2121 C   0  0  0  0  0  0  0  0  0  0  0  0
   -1.7949   -0.4047   -2.0112 N   0  0  0  0  0  0  0  0  0  0  0  0
   -3.3697    2.0242    1.7731 C   0  0  0  0  0  0  0  0  0  0  0  0
   -4.0410    3.2517    1.7172 C   0  0  0  0  0  0  0  0  0  0  0  0
   -5.1511    9.4865    1.3508 H   0  0  0  0  0  0  0  0  0  0  0  0
   -3.8136    8.3445    1.9292 H   0  0  0  0  0  0  0  0  0  0  0  0
   -6.6367    7.6089    0.9132 H   0  0  0  0  0  0  0  0  0  0  0  0
   -3.3758    6.4288    0.9192 H   0  0  0  0  0  0  0  0  0  0  0  0
   -1.4488    5.2022    0.7107 H   0  0  0  0  0  0  0  0  0  0  0  0
   -0.2777    3.0671    0.8227 H   0  0  0  0  0  0  0  0  0  0  0  0
   -0.2212    0.7068    1.5728 H   0  0  0  0  0  0  0  0  0  0  0  0
   -1.5721    0.1005    2.4480 H   0  0  0  0  0  0  0  0  0  0  0  0
   -2.8850   -1.6112   -1.3256 H   0  0  0  0  0  0  0  0  0  0  0  0
   -6.4932   -6.9019    1.9048 H   0  0  0  0  0  0  0  0  0  0  0  0
   -5.3866   -7.8469    0.8319 H   0  0  0  0  0  0  0  0  0  0  0  0
   -5.1864   -7.8764    2.5847 H   0  0  0  0  0  0  0  0  0  0  0  0
   -6.4796   -6.0368   -0.2218 H   0  0  0  0  0  0  0  0  0  0  0  0
   -8.2656   -5.6201   -1.5549 H   0  0  0  0  0  0  0  0  0  0  0  0
   -8.8070   -4.2242   -2.4940 H   0  0  0  0  0  0  0  0  0  0  0  0
   -8.3127   -3.9757   -0.8149 H   0  0  0  0  0  0  0  0  0  0  0  0
    0.7091    0.9709   -0.2371 H   0  0  0  0  0  0  0  0  0  0  0  0
    1.9082    1.5747   -3.5936 H   0  0  0  0  0  0  0  0  0  0  0  0
    4.0026    2.9599   -2.6868 H   0  0  0  0  0  0  0  0  0  0  0  0
    6.2060    2.4162   -1.8217 H   0  0  0  0  0  0  0  0  0  0  0  0
    6.8324   -1.8912   -1.0002 H   0  0  0  0  0  0  0  0  0  0  0  0
    6.9271   -1.5504    0.7413 H   0  0  0  0  0  0  0  0  0  0  0  0
    9.0649   -2.4953   -0.1953 H   0  0  0  0  0  0  0  0  0  0  0  0
    9.1283   -1.2033   -1.3634 H   0  0  0  0  0  0  0  0  0  0  0  0
   10.4276   -2.1648    1.6975 H   0  0  0  0  0  0  0  0  0  0  0  0
   10.4891   -0.5978    2.4826 H   0  0  0  0  0  0  0  0  0  0  0  0
    8.9421   -1.4653    2.3725 H   0  0  0  0  0  0  0  0  0  0  0  0
    9.7636    1.4920    0.8579 H   0  0  0  0  0  0  0  0  0  0  0  0
    8.4175    0.7374    1.7123 H   0  0  0  0  0  0  0  0  0  0  0  0
    8.5105    1.2740   -1.3015 H   0  0  0  0  0  0  0  0  0  0  0  0
    7.5859    2.1422   -0.0610 H   0  0  0  0  0  0  0  0  0  0  0  0
    4.6761   -1.3215   -0.3280 H   0  0  0  0  0  0  0  0  0  0  0  0
    2.5076   -0.8047   -1.2402 H   0  0  0  0  0  0  0  0  0  0  0  0
   -1.8637   -0.3919   -4.0807 H   0  0  0  0  0  0  0  0  0  0  0  0
   -3.9258    1.1355    2.0705 H   0  0  0  0  0  0  0  0  0  0  0  0
   -5.0951    3.2607    1.9793 H   0  0  0  0  0  0  0  0  0  0  0  0
  1  2  2  3
  2  3  1  0
  3  4  2  0
  3  5  1  0
  5  6  1  0
  6  7  2  0
  7  8  1  0
  8  9  2  0
  9 10  1  0
 10 11  1  0
 11 12  1  0
 12 13  2  0
 12 14  1  0
 14 15  1  0
 15 16  2  0
 16 17  1  0
 16 18  1  0
 18 19  1  0
 19 20  1  0
 18 21  2  0
 21 22  1  0
 22 23  1  0
 23 24  1  0
 22 25  2  0
 25 26  1  0
 11 27  1  0
 27 28  2  0
 28 29  1  0
 29 30  1  0
 30 31  1  0
 31 32  2  0
 32 33  1  0
 33 34  2  0
 34 35  1  0
 35 36  1  0
 36 37  1  0
 37 38  1  0
 38 39  1  0
 38 40  1  0
 40 41  1  0
 34 42  1  0
 42 43  2  0
 29 44  2  0
 44 45  1  0
 45 46  2  0
  9 47  1  0
 47 48  2  0
 48  6  1  0
 25 15  1  0
 46 27  1  0
 43 31  1  0
 41 35  1  0
  1 49  1  0
  1 50  1  0
  2 51  1  0
  5 52  1  0
  7 53  1  0
  8 54  1  0
 10 55  1  0
 10 56  1  0
 14 57  1  0
 20 58  1  0
 20 59  1  0
 20 60  1  0
 21 61  1  0
 24 62  1  0
 24 63  1  0
 24 64  1  0
 28 65  1  0
 30 66  1  0
 32 67  1  0
 33 68  1  0
 36 69  1  0
 36 70  1  0
 37 71  1  0
 37 72  1  0
 39 73  1  0
 39 74  1  0
 39 75  1  0
 40 76  1  0
 40 77  1  0
 41 78  1  0
 41 79  1  0
 42 80  1  0
 43 81  1  0
 45 82  1  0
 47 83  1  0
 48 84  1  0
M  END
$$$$
