
     RDKit          3D

 51 54  0  0  0  0  0  0  0  0999 V2000
    3.4100    1.0119    2.6441 C   0  0  0  0  0  0  0  0  0  0  0  0
    3.4062    1.8644    1.3795 C   0  0  0  0  0  0  0  0  0  0  0  0
    2.8263    1.1818    0.1194 C   0  0  2  0  0  0  0  0  0  0  0  0
    1.5625    0.5034    0.3940 N   0  0  0  0  0  0  0  0  0  0  0  0
    0.3914    1.1930    0.6004 C   0  0  0  0  0  0  0  0  0  0  0  0
    0.3171    2.4179    0.6455 O   0  0  0  0  0  0  0  0  0  0  0  0
   -0.8647    0.3999    0.6259 C   0  0  0  0  0  0  0  0  0  0  0  0
   -1.9394    0.9031   -0.1276 C   0  0  0  0  0  0  0  0  0  0  0  0
   -1.8546    2.1078   -0.7837 O   0  0  0  0  0  0  0  0  0  0  0  0
   -3.0957    0.1342   -0.2317 C   0  0  0  0  0  0  0  0  0  0  0  0
   -4.2983    0.5196   -1.0041 C   0  0  0  0  0  0  0  0  0  0  0  0
   -4.9964   -0.4410   -1.7615 C   0  0  0  0  0  0  0  0  0  0  0  0
   -6.1409   -0.1066   -2.4917 C   0  0  0  0  0  0  0  0  0  0  0  0
   -6.6187    1.1999   -2.4753 C   0  0  0  0  0  0  0  0  0  0  0  0
   -5.9559    2.1678   -1.7264 C   0  0  0  0  0  0  0  0  0  0  0  0
   -4.8112    1.8289   -0.9968 C   0  0  0  0  0  0  0  0  0  0  0  0
   -3.1956   -1.0733    0.3852 N   0  0  0  0  0  0  0  0  0  0  0  0
   -2.1956   -1.5219    1.1555 C   0  0  0  0  0  0  0  0  0  0  0  0
   -2.3805   -2.7366    1.8016 C   0  0  0  0  0  0  0  0  0  0  0  0
   -1.4148   -3.2801    2.6492 C   0  0  0  0  0  0  0  0  0  0  0  0
   -0.2345   -2.5896    2.8690 C   0  0  0  0  0  0  0  0  0  0  0  0
   -0.0249   -1.3701    2.2264 C   0  0  0  0  0  0  0  0  0  0  0  0
   -0.9893   -0.8204    1.3385 C   0  0  0  0  0  0  0  0  0  0  0  0
    3.7485    0.2384   -0.6472 C   0  0  0  0  0  0  0  0  0  0  0  0
    3.3370   -0.2042   -1.9212 C   0  0  0  0  0  0  0  0  0  0  0  0
    4.1260   -1.0729   -2.6774 C   0  0  0  0  0  0  0  0  0  0  0  0
    5.3467   -1.5135   -2.1777 C   0  0  0  0  0  0  0  0  0  0  0  0
    5.7775   -1.0812   -0.9265 C   0  0  0  0  0  0  0  0  0  0  0  0
    4.9870   -0.2109   -0.1686 C   0  0  0  0  0  0  0  0  0  0  0  0
    2.3938    0.8747    3.0248 H   0  0  0  0  0  0  0  0  0  0  0  0
    3.9829    1.5156    3.4296 H   0  0  0  0  0  0  0  0  0  0  0  0
    3.8502    0.0248    2.4847 H   0  0  0  0  0  0  0  0  0  0  0  0
    2.8110    2.7600    1.6002 H   0  0  0  0  0  0  0  0  0  0  0  0
    4.4208    2.2276    1.1762 H   0  0  0  0  0  0  0  0  0  0  0  0
    2.6018    2.0017   -0.5788 H   0  0  0  0  0  0  0  0  0  0  0  0
    1.5219   -0.4886    0.1922 H   0  0  0  0  0  0  0  0  0  0  0  0
   -1.1022    2.6183   -0.4090 H   0  0  0  0  0  0  0  0  0  0  0  0
   -4.6424   -1.4705   -1.7828 H   0  0  0  0  0  0  0  0  0  0  0  0
   -6.6567   -0.8694   -3.0684 H   0  0  0  0  0  0  0  0  0  0  0  0
   -7.5083    1.4627   -3.0410 H   0  0  0  0  0  0  0  0  0  0  0  0
   -6.3276    3.1888   -1.7045 H   0  0  0  0  0  0  0  0  0  0  0  0
   -4.3235    2.6051   -0.4108 H   0  0  0  0  0  0  0  0  0  0  0  0
   -3.3144   -3.2742    1.6476 H   0  0  0  0  0  0  0  0  0  0  0  0
   -1.5979   -4.2309    3.1430 H   0  0  0  0  0  0  0  0  0  0  0  0
    0.5180   -2.9905    3.5437 H   0  0  0  0  0  0  0  0  0  0  0  0
    0.8973   -0.8404    2.4489 H   0  0  0  0  0  0  0  0  0  0  0  0
    2.3889    0.1359   -2.3361 H   0  0  0  0  0  0  0  0  0  0  0  0
    3.7883   -1.4005   -3.6574 H   0  0  0  0  0  0  0  0  0  0  0  0
    5.9650   -2.1876   -2.7645 H   0  0  0  0  0  0  0  0  0  0  0  0
    6.7355   -1.4184   -0.5382 H   0  0  0  0  0  0  0  0  0  0  0  0
    5.3723    0.1068    0.7956 H   0  0  0  0  0  0  0  0  0  0  0  0
  1  2  1  0
  2  3  1  0
  3  4  1  0
  4  5  1  0
  5  6  2  0
  5  7  1  0
  7  8  2  0
  8  9  1  0
  8 10  1  0
 10 11  1  0
 11 12  2  0
 12 13  1  0
 13 14  2  0
 14 15  1  0
 15 16  2  0
 10 17  2  0
 17 18  1  0
 18 19  2  0
 19 20  1  0
 20 21  2  0
 21 22  1  0
 22 23  2  0
  3 24  1  0
 24 25  2  0
 25 26  1  0
 26 27  2  0
 27 28  1  0
 28 29  2  0
 23  7  1  0
 29 24  1  0
 16 11  1  0
 23 18  1  0
  1 30  1  0
  1 31  1  0
  1 32  1  0
  2 33  1  0
  2 34  1  0
  3 35  1  6
  4 36  1  0
  9 37  1  0
 12 38  1  0
 13 39  1  0
 14 40  1  0
 15 41  1  0
 16 42  1  0
 19 43  1  0
 20 44  1  0
 21 45  1  0
 22 46  1  0
 25 47  1  0
 26 48  1  0
 27 49  1  0
 28 50  1  0
 29 51  1  0
M  END
$$$$
