
     RDKit          3D

 42 44  0  0  0  0  0  0  0  0999 V2000
    5.3880    0.6919    1.1783 C   0  0  0  0  0  0  0  0  0  0  0  0
    4.4433    0.1199    0.1852 C   0  0  0  0  0  0  0  0  0  0  0  0
    4.8346   -0.3334   -1.0248 N   0  0  0  0  0  0  0  0  0  0  0  0
    3.7196   -0.7705   -1.6380 C   0  0  0  0  0  0  0  0  0  0  0  0
    2.6453   -0.5892   -0.8137 N   0  0  0  0  0  0  0  0  0  0  0  0
    3.0850   -0.0347    0.3258 C   0  0  0  0  0  0  0  0  0  0  0  0
    2.2460    0.3288    1.4908 C   0  0  0  0  0  0  0  0  0  0  0  0
    0.8597    0.0232    1.2870 N   0  0  0  0  0  0  0  0  0  0  0  0
    0.3478   -1.2712    1.6728 C   0  0  0  0  0  0  0  0  0  0  0  0
   -0.6114   -1.8370    0.6819 C   0  0  0  0  0  0  0  0  0  0  0  0
   -1.5668   -0.8874    0.1168 C   0  0  0  0  0  0  0  0  0  0  0  0
   -1.3218    0.4672    0.1123 C   0  0  0  0  0  0  0  0  0  0  0  0
   -2.3656    1.1268   -0.4794 C   0  0  0  0  0  0  0  0  0  0  0  0
   -2.6036    2.4408   -0.7251 C   0  0  0  0  0  0  0  0  0  0  0  0
   -3.7797    2.8516   -1.3596 C   0  0  0  0  0  0  0  0  0  0  0  0
   -4.6833    1.8978   -1.7261 C   0  0  0  0  0  0  0  0  0  0  0  0
   -4.4324    0.5712   -1.4727 C   0  0  0  0  0  0  0  0  0  0  0  0
   -3.2700    0.1665   -0.8457 C   0  0  0  0  0  0  0  0  0  0  0  0
   -2.7880   -1.0378   -0.4871 N   0  0  0  0  0  0  0  0  0  0  0  0
   -3.4648   -2.3005   -0.7094 C   0  0  0  0  0  0  0  0  0  0  0  0
   -0.0621    0.9297    0.7199 C   0  0  0  0  0  0  0  0  0  0  0  0
    0.1771    2.1473    0.7238 O   0  0  0  0  0  0  0  0  0  0  0  0
    0.6844    0.0000    0.0000 Cl  0  0  0  0  0  0  0  0  0  0  0  0
    6.4300    0.4223    0.9477 H   0  0  0  0  0  0  0  0  0  0  0  0
    5.2052    1.7852    1.2056 H   0  0  0  0  0  0  0  0  0  0  0  0
    5.1634    0.3041    2.1927 H   0  0  0  0  0  0  0  0  0  0  0  0
    5.7783   -0.3722   -1.4660 H   0  0  0  0  0  0  0  0  0  0  0  0
    3.6012   -1.2034   -2.6109 H   0  0  0  0  0  0  0  0  0  0  0  0
    2.4050    1.4105    1.7629 H   0  0  0  0  0  0  0  0  0  0  0  0
    2.5878   -0.2281    2.4118 H   0  0  0  0  0  0  0  0  0  0  0  0
   -0.2028   -1.1720    2.6460 H   0  0  0  0  0  0  0  0  0  0  0  0
    1.1983   -1.9663    1.7937 H   0  0  0  0  0  0  0  0  0  0  0  0
   -0.0485   -2.3756   -0.1343 H   0  0  0  0  0  0  0  0  0  0  0  0
   -1.2101   -2.6210    1.2208 H   0  0  0  0  0  0  0  0  0  0  0  0
   -1.9191    3.2416   -0.4548 H   0  0  0  0  0  0  0  0  0  0  0  0
   -3.9944    3.8790   -1.5661 H   0  0  0  0  0  0  0  0  0  0  0  0
   -5.6139    2.1878   -2.2249 H   0  0  0  0  0  0  0  0  0  0  0  0
   -5.1761   -0.1444   -1.7811 H   0  0  0  0  0  0  0  0  0  0  0  0
   -3.8959   -2.3510   -1.7461 H   0  0  0  0  0  0  0  0  0  0  0  0
   -2.8024   -3.1546   -0.4892 H   0  0  0  0  0  0  0  0  0  0  0  0
   -4.3036   -2.3428    0.0412 H   0  0  0  0  0  0  0  0  0  0  0  0
   -0.6844    0.0000    0.0000 H   0  0  0  0  0  0  0  0  0  0  0  0
  1  2  1  0
  2  3  1  0
  3  4  1  0
  4  5  2  0
  5  6  1  0
  6  7  1  0
  7  8  1  0
  8  9  1  0
  9 10  1  0
 10 11  1  0
 11 12  2  0
 12 13  1  0
 13 14  2  0
 14 15  1  0
 15 16  2  0
 16 17  1  0
 17 18  2  0
 18 19  1  0
 19 20  1  0
 12 21  1  0
 21 22  2  0
  6  2  2  0
 21  8  1  0
 19 11  1  0
 18 13  1  0
  1 24  1  0
  1 25  1  0
  1 26  1  0
  3 27  1  0
  4 28  1  0
  7 29  1  0
  7 30  1  0
  9 31  1  0
  9 32  1  0
 10 33  1  0
 10 34  1  0
 14 35  1  0
 15 36  1  0
 16 37  1  0
 17 38  1  0
 20 39  1  0
 20 40  1  0
 20 41  1  0
 23 42  1  0
M  END
$$$$
