
     RDKit          3D

 50 52  0  0  0  0  0  0  0  0999 V2000
    6.6288   -3.2611   -2.9010 C   0  0  0  0  0  0  0  0  0  0  0  0
    5.3066   -2.6459   -2.7917 C   0  0  0  0  0  0  0  0  0  0  0  0
    4.2145   -2.1509   -2.7057 C   0  0  0  0  0  0  0  0  0  0  0  0
    2.9030   -1.5530   -2.6000 C   0  0  0  0  0  0  0  0  0  0  0  0
    1.9172   -2.1861   -2.9457 O   0  0  0  0  0  0  0  0  0  0  0  0
    2.8900   -0.2771   -2.0994 N   0  0  0  0  0  0  0  0  0  0  0  0
    1.6745    0.5058   -1.9186 C   0  0  1  0  0  0  0  0  0  0  0  0
    1.0329    0.9136   -3.2572 C   0  0  0  0  0  0  0  0  0  0  0  0
   -0.4952    0.9666   -3.1876 C   0  0  0  0  0  0  0  0  0  0  0  0
   -0.9983    1.5384   -1.8631 C   0  0  0  0  0  0  0  0  0  0  0  0
   -0.4345    0.8351   -0.6957 N   0  0  0  0  0  0  0  0  0  0  0  0
   -1.3939    0.3025    0.1919 C   0  0  0  0  0  0  0  0  0  0  0  0
   -2.3790   -0.6290   -0.2174 C   0  0  0  0  0  0  0  0  0  0  0  0
   -2.4236   -1.0207   -1.5020 F   0  0  0  0  0  0  0  0  0  0  0  0
   -3.3175   -1.1787    0.6491 C   0  0  0  0  0  0  0  0  0  0  0  0
   -3.3267   -0.8186    1.9976 C   0  0  0  0  0  0  0  0  0  0  0  0
   -4.3028   -1.3577    2.9817 C   0  0  0  0  0  0  0  0  0  0  0  0
   -5.4062   -2.0075    2.5041 N   0  0  0  0  0  0  0  0  0  0  0  0
   -4.1497   -1.1992    4.1883 O   0  0  0  0  0  0  0  0  0  0  0  0
   -2.3405    0.0892    2.4233 C   0  0  0  0  0  0  0  0  0  0  0  0
   -2.1008    0.5864    3.6863 N   0  0  0  0  0  0  0  0  0  0  0  0
   -1.0496    1.4627    3.6754 C   0  0  0  0  0  0  0  0  0  0  0  0
   -0.5949    2.1415    4.9158 C   0  0  0  0  0  0  0  0  0  0  0  0
   -0.5820    1.5382    2.3732 C   0  0  0  0  0  0  0  0  0  0  0  0
    0.5495    2.3729    1.8833 C   0  0  0  0  0  0  0  0  0  0  0  0
   -1.3916    0.6561    1.5702 C   0  0  0  0  0  0  0  0  0  0  0  0
    0.6357   -0.1441   -0.9782 C   0  0  0  0  0  0  0  0  0  0  0  0
    6.7999   -3.6386   -3.9136 H   0  0  0  0  0  0  0  0  0  0  0  0
    6.7266   -4.0997   -2.2050 H   0  0  0  0  0  0  0  0  0  0  0  0
    7.4154   -2.5360   -2.6715 H   0  0  0  0  0  0  0  0  0  0  0  0
    3.7772    0.1426   -1.8551 H   0  0  0  0  0  0  0  0  0  0  0  0
    2.0169    1.4291   -1.4302 H   0  0  0  0  0  0  0  0  0  0  0  0
    1.3217    0.2381   -4.0710 H   0  0  0  0  0  0  0  0  0  0  0  0
    1.4193    1.9008   -3.5420 H   0  0  0  0  0  0  0  0  0  0  0  0
   -0.8794    1.5640   -4.0223 H   0  0  0  0  0  0  0  0  0  0  0  0
   -0.8938   -0.0465   -3.3230 H   0  0  0  0  0  0  0  0  0  0  0  0
   -2.0955    1.5486   -1.8621 H   0  0  0  0  0  0  0  0  0  0  0  0
   -0.6873    2.5881   -1.7909 H   0  0  0  0  0  0  0  0  0  0  0  0
   -4.0142   -1.9030    0.2440 H   0  0  0  0  0  0  0  0  0  0  0  0
   -5.7065   -1.9564    1.5423 H   0  0  0  0  0  0  0  0  0  0  0  0
   -6.1016   -2.2683    3.1921 H   0  0  0  0  0  0  0  0  0  0  0  0
   -2.6446    0.3094    4.4975 H   0  0  0  0  0  0  0  0  0  0  0  0
   -0.6903    3.2270    4.8119 H   0  0  0  0  0  0  0  0  0  0  0  0
    0.4548    1.9042    5.1164 H   0  0  0  0  0  0  0  0  0  0  0  0
   -1.1831    1.8322    5.7860 H   0  0  0  0  0  0  0  0  0  0  0  0
    1.3637    1.7384    1.5195 H   0  0  0  0  0  0  0  0  0  0  0  0
    0.9530    3.0104    2.6762 H   0  0  0  0  0  0  0  0  0  0  0  0
    0.2215    3.0268    1.0691 H   0  0  0  0  0  0  0  0  0  0  0  0
    1.1330   -0.4284   -0.0415 H   0  0  0  0  0  0  0  0  0  0  0  0
    0.2274   -1.0621   -1.4185 H   0  0  0  0  0  0  0  0  0  0  0  0
  1  2  1  0
  2  3  3  0
  3  4  1  0
  4  5  2  0
  4  6  1  0
  6  7  1  0
  7  8  1  0
  8  9  1  0
  9 10  1  0
 10 11  1  0
 11 12  1  0
 12 13  2  0
 13 14  1  0
 13 15  1  0
 15 16  2  0
 16 17  1  0
 17 18  1  0
 17 19  2  0
 16 20  1  0
 20 21  1  0
 21 22  1  0
 22 23  1  0
 22 24  2  0
 24 25  1  0
 24 26  1  0
 11 27  1  0
 27  7  1  0
 26 12  1  0
 26 20  2  0
  1 28  1  0
  1 29  1  0
  1 30  1  0
  6 31  1  0
  7 32  1  1
  8 33  1  0
  8 34  1  0
  9 35  1  0
  9 36  1  0
 10 37  1  0
 10 38  1  0
 15 39  1  0
 18 40  1  0
 18 41  1  0
 21 42  1  0
 23 43  1  0
 23 44  1  0
 23 45  1  0
 25 46  1  0
 25 47  1  0
 25 48  1  0
 27 49  1  0
 27 50  1  0
M  END
$$$$
