
     RDKit          3D

 49 53  0  0  0  0  0  0  0  0999 V2000
   -6.7934   -2.6452   -1.5687 C   0  0  0  0  0  0  0  0  0  0  0  0
   -6.0097   -1.8730   -0.5435 C   0  0  0  0  0  0  0  0  0  0  0  0
   -5.7476   -2.4805    0.6980 C   0  0  0  0  0  0  0  0  0  0  0  0
   -5.0085   -1.8177    1.6787 C   0  0  0  0  0  0  0  0  0  0  0  0
   -4.5133   -0.5433    1.4248 C   0  0  0  0  0  0  0  0  0  0  0  0
   -3.8015    0.0857    2.4134 O   0  0  0  0  0  0  0  0  0  0  0  0
   -2.5075    0.3641    2.2495 C   0  0  0  0  0  0  0  0  0  0  0  0
   -1.8240    1.1092    3.0883 N   0  0  0  0  0  0  0  0  0  0  0  0
   -0.5446    1.1373    2.5918 C   0  0  0  0  0  0  0  0  0  0  0  0
    0.5912    1.7881    3.0852 C   0  0  0  0  0  0  0  0  0  0  0  0
    1.7994    1.6565    2.3832 C   0  0  0  0  0  0  0  0  0  0  0  0
    3.1735    2.4937    3.0299 Cl  0  0  0  0  0  0  0  0  0  0  0  0
    1.8938    0.8880    1.2024 C   0  0  0  0  0  0  0  0  0  0  0  0
    3.1512    0.7343    0.4533 C   0  0  0  0  0  0  0  0  0  0  0  0
    3.3776    1.4747   -0.7146 C   0  0  0  0  0  0  0  0  0  0  0  0
    4.5570    1.3390   -1.4567 C   0  0  0  0  0  0  0  0  0  0  0  0
    5.5212    0.4308   -0.9969 C   0  0  0  0  0  0  0  0  0  0  0  0
    5.3317   -0.3260    0.1615 C   0  0  0  0  0  0  0  0  0  0  0  0
    6.4906   -1.1308    0.3352 C   0  0  0  0  0  0  0  0  0  0  0  0
    7.3529   -0.8542   -0.7011 C   0  0  0  0  0  0  0  0  0  0  0  0
    6.7601    0.0888   -1.4992 N   0  0  0  0  0  0  0  0  0  0  0  0
    7.3540    0.6492   -2.6922 C   0  0  0  0  0  0  0  0  0  0  0  0
    4.1344   -0.1725    0.8896 C   0  0  0  0  0  0  0  0  0  0  0  0
    0.7428    0.2352    0.7109 C   0  0  0  0  0  0  0  0  0  0  0  0
   -0.4452    0.3841    1.4294 C   0  0  0  0  0  0  0  0  0  0  0  0
   -1.7109   -0.1074    1.2367 N   0  0  0  0  0  0  0  0  0  0  0  0
   -4.7881    0.0959    0.2179 C   0  0  0  0  0  0  0  0  0  0  0  0
   -5.5429   -0.5610   -0.7661 C   0  0  0  0  0  0  0  0  0  0  0  0
   -5.7687    0.1973   -2.0181 C   0  0  0  0  0  0  0  0  0  0  0  0
   -4.9742    0.9698   -2.5212 O   0  0  0  0  0  0  0  0  0  0  0  0
   -6.9955    0.0138   -2.5294 O   0  0  0  0  0  0  0  0  0  0  0  0
   -7.8297   -2.2952   -1.5990 H   0  0  0  0  0  0  0  0  0  0  0  0
   -6.3382   -2.5526   -2.5597 H   0  0  0  0  0  0  0  0  0  0  0  0
   -6.8077   -3.7146   -1.3310 H   0  0  0  0  0  0  0  0  0  0  0  0
   -6.1190   -3.4825    0.9088 H   0  0  0  0  0  0  0  0  0  0  0  0
   -4.8182   -2.2977    2.6358 H   0  0  0  0  0  0  0  0  0  0  0  0
    0.5217    2.3800    3.9910 H   0  0  0  0  0  0  0  0  0  0  0  0
    2.6255    2.1826   -1.0587 H   0  0  0  0  0  0  0  0  0  0  0  0
    4.7120    1.9264   -2.3560 H   0  0  0  0  0  0  0  0  0  0  0  0
    6.6730   -1.8344    1.1366 H   0  0  0  0  0  0  0  0  0  0  0  0
    8.3342   -1.2505   -0.9274 H   0  0  0  0  0  0  0  0  0  0  0  0
    7.4494    1.7294   -2.5570 H   0  0  0  0  0  0  0  0  0  0  0  0
    8.3414    0.2086   -2.8521 H   0  0  0  0  0  0  0  0  0  0  0  0
    6.7056    0.4198   -3.5415 H   0  0  0  0  0  0  0  0  0  0  0  0
    3.9803   -0.7563    1.7934 H   0  0  0  0  0  0  0  0  0  0  0  0
    0.7850   -0.3658   -0.1935 H   0  0  0  0  0  0  0  0  0  0  0  0
   -2.0081   -0.7182    0.4905 H   0  0  0  0  0  0  0  0  0  0  0  0
   -4.4330    1.1112    0.0485 H   0  0  0  0  0  0  0  0  0  0  0  0
   -7.0301    0.6181   -3.3004 H   0  0  0  0  0  0  0  0  0  0  0  0
  1  2  1  0
  2  3  2  0
  3  4  1  0
  4  5  2  0
  5  6  1  0
  6  7  1  0
  7  8  2  0
  8  9  1  0
  9 10  2  0
 10 11  1  0
 11 12  1  0
 11 13  2  0
 13 14  1  0
 14 15  2  0
 15 16  1  0
 16 17  2  0
 17 18  1  0
 18 19  1  0
 19 20  2  0
 20 21  1  0
 21 22  1  0
 18 23  2  0
 13 24  1  0
 24 25  2  0
 25 26  1  0
  5 27  1  0
 27 28  2  0
 28 29  1  0
 29 30  2  0
 29 31  1  0
 28  2  1  0
 26  7  1  0
 25  9  1  0
 23 14  1  0
 21 17  1  0
  1 32  1  0
  1 33  1  0
  1 34  1  0
  3 35  1  0
  4 36  1  0
 10 37  1  0
 15 38  1  0
 16 39  1  0
 19 40  1  0
 20 41  1  0
 22 42  1  0
 22 43  1  0
 22 44  1  0
 23 45  1  0
 24 46  1  0
 26 47  1  0
 27 48  1  0
 31 49  1  0
M  END
$$$$
