
     RDKit          3D

 58 59  0  0  0  0  0  0  0  0999 V2000
   -2.8549    4.7408    1.0707 C   0  0  0  0  0  0  0  0  0  0  0  0
   -3.2865    3.5964    1.7936 O   0  0  0  0  0  0  0  0  0  0  0  0
   -3.5139    2.4654    0.9598 C   0  0  0  0  0  0  0  0  0  0  0  0
   -2.2644    1.6980    0.4807 C   0  0  0  0  0  0  0  0  0  0  0  0
   -1.1438    2.1739    0.6853 O   0  0  0  0  0  0  0  0  0  0  0  0
   -2.4250    0.4980   -0.2360 N   0  0  0  0  0  0  0  0  0  0  0  0
   -3.6218   -0.3855   -0.1739 C   0  0  0  0  0  0  0  0  0  0  0  0
   -3.8427   -1.0161    1.2061 C   0  0  0  0  0  0  0  0  0  0  0  0
   -5.0291   -1.9710    1.1592 C   0  0  0  0  0  0  0  0  0  0  0  0
   -6.1895   -1.3175    0.6451 O   0  0  0  0  0  0  0  0  0  0  0  0
   -6.0166   -0.8616   -0.6958 C   0  0  0  0  0  0  0  0  0  0  0  0
   -4.9179    0.1932   -0.7525 C   0  0  0  0  0  0  0  0  0  0  0  0
   -1.2016   -0.1445   -0.7663 C   0  0  0  0  0  0  0  0  0  0  0  0
   -0.3468    0.6953   -1.7268 C   0  0  0  0  0  0  0  0  0  0  0  0
    0.9659   -0.0811   -1.7726 C   0  0  0  0  0  0  0  0  0  0  0  0
    1.0559   -0.7729   -0.4945 N   0  0  0  0  0  0  0  0  0  0  0  0
    2.0731   -1.5688   -0.0311 C   0  0  0  0  0  0  0  0  0  0  0  0
    1.9901   -2.2016    1.0173 O   0  0  0  0  0  0  0  0  0  0  0  0
    3.1716   -1.6300   -0.8481 N   0  0  0  0  0  0  0  0  0  0  0  0
    4.3512   -2.3775   -0.4615 C   0  0  0  0  0  0  0  0  0  0  0  0
    5.2243   -1.6382    0.5566 C   0  0  0  0  0  0  0  0  0  0  0  0
    5.7740   -0.2790    0.0800 C   0  0  0  0  0  0  0  0  0  0  0  0
    6.5683    0.3804    1.2111 C   0  0  0  0  0  0  0  0  0  0  0  0
    6.6560   -0.4090   -1.1621 C   0  0  0  0  0  0  0  0  0  0  0  0
   -0.1792   -0.6392    0.2651 C   0  0  0  0  0  0  0  0  0  0  0  0
   -2.6953    5.5541    1.7838 H   0  0  0  0  0  0  0  0  0  0  0  0
   -1.9155    4.5548    0.5446 H   0  0  0  0  0  0  0  0  0  0  0  0
   -3.6256    5.0544    0.3594 H   0  0  0  0  0  0  0  0  0  0  0  0
   -4.0823    2.7836    0.0800 H   0  0  0  0  0  0  0  0  0  0  0  0
   -4.1293    1.7954    1.5581 H   0  0  0  0  0  0  0  0  0  0  0  0
   -3.3992   -1.2278   -0.8435 H   0  0  0  0  0  0  0  0  0  0  0  0
   -2.9450   -1.5516    1.5341 H   0  0  0  0  0  0  0  0  0  0  0  0
   -4.0401   -0.2457    1.9563 H   0  0  0  0  0  0  0  0  0  0  0  0
   -4.8082   -2.8521    0.5452 H   0  0  0  0  0  0  0  0  0  0  0  0
   -5.2626   -2.3241    2.1685 H   0  0  0  0  0  0  0  0  0  0  0  0
   -5.7973   -1.7135   -1.3507 H   0  0  0  0  0  0  0  0  0  0  0  0
   -6.9656   -0.4267   -1.0262 H   0  0  0  0  0  0  0  0  0  0  0  0
   -4.7639    0.5335   -1.7821 H   0  0  0  0  0  0  0  0  0  0  0  0
   -5.2678    1.0481   -0.1741 H   0  0  0  0  0  0  0  0  0  0  0  0
   -1.5109   -1.0155   -1.3607 H   0  0  0  0  0  0  0  0  0  0  0  0
   -0.8041    0.7942   -2.7166 H   0  0  0  0  0  0  0  0  0  0  0  0
   -0.1544    1.7064   -1.3589 H   0  0  0  0  0  0  0  0  0  0  0  0
    0.9575   -0.8361   -2.5660 H   0  0  0  0  0  0  0  0  0  0  0  0
    1.8256    0.5791   -1.9183 H   0  0  0  0  0  0  0  0  0  0  0  0
    3.3156   -0.8455   -1.4621 H   0  0  0  0  0  0  0  0  0  0  0  0
    4.0315   -3.3346   -0.0323 H   0  0  0  0  0  0  0  0  0  0  0  0
    4.9097   -2.6021   -1.3750 H   0  0  0  0  0  0  0  0  0  0  0  0
    6.0622   -2.2923    0.8292 H   0  0  0  0  0  0  0  0  0  0  0  0
    4.6447   -1.4804    1.4750 H   0  0  0  0  0  0  0  0  0  0  0  0
    4.9344    0.3836   -0.1631 H   0  0  0  0  0  0  0  0  0  0  0  0
    7.4296   -0.2314    1.5007 H   0  0  0  0  0  0  0  0  0  0  0  0
    6.9396    1.3647    0.9047 H   0  0  0  0  0  0  0  0  0  0  0  0
    5.9394    0.5222    2.0965 H   0  0  0  0  0  0  0  0  0  0  0  0
    7.1021    0.5561   -1.4261 H   0  0  0  0  0  0  0  0  0  0  0  0
    7.4699   -1.1232   -0.9971 H   0  0  0  0  0  0  0  0  0  0  0  0
    6.0777   -0.7445   -2.0280 H   0  0  0  0  0  0  0  0  0  0  0  0
    0.0068    0.0662    1.0798 H   0  0  0  0  0  0  0  0  0  0  0  0
   -0.4759   -1.5970    0.7052 H   0  0  0  0  0  0  0  0  0  0  0  0
  1  2  1  0
  2  3  1  0
  3  4  1  0
  4  5  2  0
  4  6  1  0
  6  7  1  0
  7  8  1  0
  8  9  1  0
  9 10  1  0
 10 11  1  0
 11 12  1  0
  6 13  1  0
 13 14  1  0
 14 15  1  0
 15 16  1  0
 16 17  1  0
 17 18  2  0
 17 19  1  0
 19 20  1  0
 20 21  1  0
 21 22  1  0
 22 23  1  0
 22 24  1  0
 16 25  1  0
 12  7  1  0
 25 13  1  0
  1 26  1  0
  1 27  1  0
  1 28  1  0
  3 29  1  0
  3 30  1  0
  7 31  1  0
  8 32  1  0
  8 33  1  0
  9 34  1  0
  9 35  1  0
 11 36  1  0
 11 37  1  0
 12 38  1  0
 12 39  1  0
 13 40  1  0
 14 41  1  0
 14 42  1  0
 15 43  1  0
 15 44  1  0
 19 45  1  0
 20 46  1  0
 20 47  1  0
 21 48  1  0
 21 49  1  0
 22 50  1  0
 23 51  1  0
 23 52  1  0
 23 53  1  0
 24 54  1  0
 24 55  1  0
 24 56  1  0
 25 57  1  0
 25 58  1  0
M  END
$$$$
