
     RDKit          3D

 43 45  0  0  0  0  0  0  0  0999 V2000
   -8.1331    0.0417    0.4889 C   0  0  0  0  0  0  0  0  0  0  0  0
   -7.3360   -0.3359   -0.6268 O   0  0  0  0  0  0  0  0  0  0  0  0
   -6.0107   -0.5761   -0.3927 C   0  0  0  0  0  0  0  0  0  0  0  0
   -5.2773   -0.9442   -1.5207 C   0  0  0  0  0  0  0  0  0  0  0  0
   -3.9117   -1.2208   -1.4259 C   0  0  0  0  0  0  0  0  0  0  0  0
   -3.2495   -1.1412   -0.1917 C   0  0  0  0  0  0  0  0  0  0  0  0
   -1.7692   -1.4325   -0.1422 C   0  0  0  0  0  0  0  0  0  0  0  0
   -0.9327   -0.1820   -0.3392 C   0  0  0  0  0  0  0  0  0  0  0  0
   -0.6315    0.2468   -1.4485 O   0  0  0  0  0  0  0  0  0  0  0  0
   -0.5265    0.4291    0.8319 N   0  0  0  0  0  0  0  0  0  0  0  0
    0.0774    1.7563    0.7767 C   0  0  0  0  0  0  0  0  0  0  0  0
    1.5778    1.7746    0.4538 C   0  0  0  0  0  0  0  0  0  0  0  0
    2.1783    2.8312    0.2492 O   0  0  0  0  0  0  0  0  0  0  0  0
    2.1792    0.5388    0.5175 N   0  0  0  0  0  0  0  0  0  0  0  0
    3.5151    0.3412    0.3060 C   0  0  0  0  0  0  0  0  0  0  0  0
    4.1111   -0.8268    0.3600 N   0  0  0  0  0  0  0  0  0  0  0  0
    5.4352   -0.5689    0.0899 C   0  0  0  0  0  0  0  0  0  0  0  0
    6.5239   -1.4500    0.0163 C   0  0  0  0  0  0  0  0  0  0  0  0
    7.7908   -0.9294   -0.2788 C   0  0  0  0  0  0  0  0  0  0  0  0
    7.9699    0.4394   -0.4961 C   0  0  0  0  0  0  0  0  0  0  0  0
    6.8959    1.3347   -0.4270 C   0  0  0  0  0  0  0  0  0  0  0  0
    5.6458    0.7885   -0.1311 C   0  0  0  0  0  0  0  0  0  0  0  0
    4.4029    1.3441    0.0128 N   0  0  0  0  0  0  0  0  0  0  0  0
   -3.9924   -0.7555    0.9350 C   0  0  0  0  0  0  0  0  0  0  0  0
   -3.2573   -0.5927    2.4931 Cl  0  0  0  0  0  0  0  0  0  0  0  0
   -5.3628   -0.4797    0.8372 C   0  0  0  0  0  0  0  0  0  0  0  0
   -7.7878    0.9883    0.9177 H   0  0  0  0  0  0  0  0  0  0  0  0
   -9.1571    0.1909    0.1332 H   0  0  0  0  0  0  0  0  0  0  0  0
   -8.1546   -0.7506    1.2445 H   0  0  0  0  0  0  0  0  0  0  0  0
   -5.7731   -1.0126   -2.4869 H   0  0  0  0  0  0  0  0  0  0  0  0
   -3.3665   -1.4922   -2.3291 H   0  0  0  0  0  0  0  0  0  0  0  0
   -1.4955   -2.1448   -0.9313 H   0  0  0  0  0  0  0  0  0  0  0  0
   -1.4923   -1.9334    0.7923 H   0  0  0  0  0  0  0  0  0  0  0  0
   -1.0683    0.2100    1.6625 H   0  0  0  0  0  0  0  0  0  0  0  0
   -0.0545    2.2093    1.7644 H   0  0  0  0  0  0  0  0  0  0  0  0
   -0.4484    2.3594    0.0292 H   0  0  0  0  0  0  0  0  0  0  0  0
    1.6198   -0.2868    0.6826 H   0  0  0  0  0  0  0  0  0  0  0  0
    6.3780   -2.5108    0.1849 H   0  0  0  0  0  0  0  0  0  0  0  0
    8.6435   -1.6015   -0.3399 H   0  0  0  0  0  0  0  0  0  0  0  0
    8.9643    0.8180   -0.7249 H   0  0  0  0  0  0  0  0  0  0  0  0
    7.0337    2.3969   -0.5969 H   0  0  0  0  0  0  0  0  0  0  0  0
    4.1463    2.3187   -0.0788 H   0  0  0  0  0  0  0  0  0  0  0  0
   -5.9000   -0.1893    1.7338 H   0  0  0  0  0  0  0  0  0  0  0  0
  1  2  1  0
  2  3  1  0
  3  4  2  0
  4  5  1  0
  5  6  2  0
  6  7  1  0
  7  8  1  0
  8  9  2  0
  8 10  1  0
 10 11  1  0
 11 12  1  0
 12 13  2  0
 12 14  1  0
 14 15  1  0
 15 16  2  0
 16 17  1  0
 17 18  2  0
 18 19  1  0
 19 20  2  0
 20 21  1  0
 21 22  2  0
 22 23  1  0
  6 24  1  0
 24 25  1  0
 24 26  2  0
 26  3  1  0
 23 15  1  0
 22 17  1  0
  1 27  1  0
  1 28  1  0
  1 29  1  0
  4 30  1  0
  5 31  1  0
  7 32  1  0
  7 33  1  0
 10 34  1  0
 11 35  1  0
 11 36  1  0
 14 37  1  0
 18 38  1  0
 19 39  1  0
 20 40  1  0
 21 41  1  0
 23 42  1  0
 26 43  1  0
M  END
$$$$
