
     RDKit          3D

 54 56  0  0  0  0  0  0  0  0999 V2000
    4.7629   -3.0736   -1.0564 C   0  0  0  0  0  0  0  0  0  0  0  0
    4.5218   -1.9202   -0.2622 O   0  0  0  0  0  0  0  0  0  0  0  0
    3.2914   -1.3252   -0.3575 C   0  0  0  0  0  0  0  0  0  0  0  0
    2.1982   -1.8926   -1.0224 C   0  0  0  0  0  0  0  0  0  0  0  0
    0.9778   -1.2028   -1.1369 C   0  0  0  0  0  0  0  0  0  0  0  0
    0.8362    0.0910   -0.5859 C   0  0  0  0  0  0  0  0  0  0  0  0
    1.9174    0.6207    0.1515 C   0  0  0  0  0  0  0  0  0  0  0  0
    1.7940    1.8643    0.7346 O   0  0  0  0  0  0  0  0  0  0  0  0
    1.3971    1.7271    2.0990 C   0  0  0  0  0  0  0  0  0  0  0  0
    3.1360   -0.0740    0.2618 C   0  0  0  0  0  0  0  0  0  0  0  0
    4.1557    0.5709    0.9243 O   0  0  0  0  0  0  0  0  0  0  0  0
    4.7348   -0.2055    1.9712 C   0  0  0  0  0  0  0  0  0  0  0  0
   -0.4552    0.8643   -0.7769 C   0  0  0  0  0  0  0  0  0  0  0  0
   -0.2437    1.9927   -1.4900 C   0  0  0  0  0  0  0  0  0  0  0  0
   -1.0201    2.9855   -1.9364 C   0  0  0  0  0  0  0  0  0  0  0  0
   -2.3140    3.2132   -1.7122 C   0  0  0  0  0  0  0  0  0  0  0  0
   -2.9411    4.2742   -2.3555 O   0  0  0  0  0  0  0  0  0  0  0  0
   -3.1075    5.3833   -1.4720 C   0  0  0  0  0  0  0  0  0  0  0  0
   -3.1509    2.3130   -0.8158 C   0  0  0  0  0  0  0  0  0  0  0  0
   -4.2152    2.7352   -0.3943 O   0  0  0  0  0  0  0  0  0  0  0  0
   -2.8130    0.9088   -0.3506 C   0  0  0  0  0  0  0  0  0  0  0  0
   -1.6076    0.3087   -0.2965 C   0  0  0  0  0  0  0  0  0  0  0  0
   -1.5177   -1.1144    0.3353 C   0  0  1  0  0  0  0  0  0  0  0  0
   -2.6911   -1.4652    1.1354 N   0  0  0  0  0  0  0  0  0  0  0  0
   -2.5756   -2.2490    2.2644 C   0  0  0  0  0  0  0  0  0  0  0  0
   -3.8980   -2.6096    2.8861 C   0  0  0  0  0  0  0  0  0  0  0  0
   -1.5091   -2.6431    2.7239 O   0  0  0  0  0  0  0  0  0  0  0  0
   -1.2820   -2.2123   -0.7296 C   0  0  0  0  0  0  0  0  0  0  0  0
   -0.2090   -1.8815   -1.7745 C   0  0  0  0  0  0  0  0  0  0  0  0
    4.5561   -2.8843   -2.1150 H   0  0  0  0  0  0  0  0  0  0  0  0
    5.8236   -3.3267   -0.9652 H   0  0  0  0  0  0  0  0  0  0  0  0
    4.1849   -3.9267   -0.6862 H   0  0  0  0  0  0  0  0  0  0  0  0
    2.2679   -2.8854   -1.4578 H   0  0  0  0  0  0  0  0  0  0  0  0
    1.2233    2.7311    2.4986 H   0  0  0  0  0  0  0  0  0  0  0  0
    0.4656    1.1591    2.1923 H   0  0  0  0  0  0  0  0  0  0  0  0
    2.1850    1.2598    2.6983 H   0  0  0  0  0  0  0  0  0  0  0  0
    5.0298    0.4840    2.7688 H   0  0  0  0  0  0  0  0  0  0  0  0
    5.6403   -0.7039    1.6140 H   0  0  0  0  0  0  0  0  0  0  0  0
    4.0359   -0.9327    2.4021 H   0  0  0  0  0  0  0  0  0  0  0  0
    0.7936    2.1462   -1.8184 H   0  0  0  0  0  0  0  0  0  0  0  0
   -0.5227    3.7251   -2.5686 H   0  0  0  0  0  0  0  0  0  0  0  0
   -3.7848    5.1498   -0.6442 H   0  0  0  0  0  0  0  0  0  0  0  0
   -3.5517    6.2025   -2.0465 H   0  0  0  0  0  0  0  0  0  0  0  0
   -2.1388    5.7254   -1.0873 H   0  0  0  0  0  0  0  0  0  0  0  0
   -3.6968    0.4109    0.0262 H   0  0  0  0  0  0  0  0  0  0  0  0
   -0.6816   -1.1143    1.0467 H   0  0  0  0  0  0  0  0  0  0  0  0
   -3.5888   -1.4872    0.6716 H   0  0  0  0  0  0  0  0  0  0  0  0
   -3.7859   -2.6456    3.9745 H   0  0  0  0  0  0  0  0  0  0  0  0
   -4.6632   -1.8654    2.6458 H   0  0  0  0  0  0  0  0  0  0  0  0
   -4.2159   -3.5885    2.5168 H   0  0  0  0  0  0  0  0  0  0  0  0
   -1.0026   -3.1407   -0.2123 H   0  0  0  0  0  0  0  0  0  0  0  0
   -2.2189   -2.4364   -1.2589 H   0  0  0  0  0  0  0  0  0  0  0  0
    0.0939   -2.8033   -2.2866 H   0  0  0  0  0  0  0  0  0  0  0  0
   -0.6207   -1.2368   -2.5621 H   0  0  0  0  0  0  0  0  0  0  0  0
  1  2  1  0
  2  3  1  0
  3  4  2  0
  4  5  1  0
  5  6  2  0
  6  7  1  0
  7  8  1  0
  8  9  1  0
  7 10  2  0
 10 11  1  0
 11 12  1  0
  6 13  1  0
 13 14  2  0
 14 15  1  0
 15 16  2  0
 16 17  1  0
 17 18  1  0
 16 19  1  0
 19 20  2  0
 19 21  1  0
 21 22  2  0
 22 23  1  0
 23 24  1  0
 24 25  1  0
 25 26  1  0
 25 27  2  0
 23 28  1  0
 28 29  1  0
 10  3  1  0
 22 13  1  0
 29  5  1  0
  1 30  1  0
  1 31  1  0
  1 32  1  0
  4 33  1  0
  9 34  1  0
  9 35  1  0
  9 36  1  0
 12 37  1  0
 12 38  1  0
 12 39  1  0
 14 40  1  0
 15 41  1  0
 18 42  1  0
 18 43  1  0
 18 44  1  0
 21 45  1  0
 23 46  1  1
 24 47  1  0
 26 48  1  0
 26 49  1  0
 26 50  1  0
 28 51  1  0
 28 52  1  0
 29 53  1  0
 29 54  1  0
M  END
$$$$
