
     RDKit          3D

 27 27  0  0  0  0  0  0  0  0999 V2000
    0.6857    0.0000    0.0000 Cl  0  0  0  0  0  0  0  0  0  0  0  0
    4.4571    0.7137   -0.6922 N   0  0  0  0  0  0  0  0  0  0  0  0
    3.1974    0.3650   -0.1567 C   0  0  0  0  0  0  0  0  0  0  0  0
    2.6133   -0.8349   -0.5000 C   0  0  0  0  0  0  0  0  0  0  0  0
    1.3934   -1.1450    0.0344 C   0  0  0  0  0  0  0  0  0  0  0  0
    0.6707   -2.6904   -0.4250 Cl  0  0  0  0  0  0  0  0  0  0  0  0
    0.7056   -0.3131    0.9093 C   0  0  0  0  0  0  0  0  0  0  0  0
   -0.5590   -0.7114    1.4194 N   0  0  0  0  0  0  0  0  0  0  0  0
   -1.7276   -0.3582    0.7084 C   0  0  0  0  0  0  0  0  0  0  0  0
   -1.7428    0.5246   -0.2194 N   0  0  0  0  0  0  0  0  0  0  0  0
   -3.0280    0.7258   -0.8054 C   0  0  0  0  0  0  0  0  0  0  0  0
   -3.8776   -0.3386   -0.1867 C   0  0  0  0  0  0  0  0  0  0  0  0
   -3.0524   -0.8823    0.8699 N   0  0  0  0  0  0  0  0  0  0  0  0
    1.2936    0.8796    1.2463 C   0  0  0  0  0  0  0  0  0  0  0  0
    0.4408    1.9438    2.3497 Cl  0  0  0  0  0  0  0  0  0  0  0  0
    2.5193    1.1965    0.7124 C   0  0  0  0  0  0  0  0  0  0  0  0
   -0.6857    0.0000    0.0000 H   0  0  0  0  0  0  0  0  0  0  0  0
    4.8326    1.6670   -0.4969 H   0  0  0  0  0  0  0  0  0  0  0  0
    5.0019    0.0599   -1.2600 H   0  0  0  0  0  0  0  0  0  0  0  0
    3.1334   -1.5168   -1.1918 H   0  0  0  0  0  0  0  0  0  0  0  0
   -0.6048   -1.2469    2.2913 H   0  0  0  0  0  0  0  0  0  0  0  0
   -2.9064    0.5997   -1.9171 H   0  0  0  0  0  0  0  0  0  0  0  0
   -3.4352    1.7387   -0.6061 H   0  0  0  0  0  0  0  0  0  0  0  0
   -4.1464   -1.1175   -0.9426 H   0  0  0  0  0  0  0  0  0  0  0  0
   -4.8009    0.1103    0.2327 H   0  0  0  0  0  0  0  0  0  0  0  0
   -3.3507   -1.5271    1.6067 H   0  0  0  0  0  0  0  0  0  0  0  0
    2.9727    2.1578    0.9959 H   0  0  0  0  0  0  0  0  0  0  0  0
  2  3  1  0
  3  4  2  0
  4  5  1  0
  5  6  1  0
  5  7  2  0
  7  8  1  0
  8  9  1  0
  9 10  2  0
 10 11  1  0
 11 12  1  0
 12 13  1  0
  7 14  1  0
 14 15  1  0
 14 16  2  0
 16  3  1  0
 13  9  1  0
  1 17  1  0
  2 18  1  0
  2 19  1  0
  4 20  1  0
  8 21  1  0
 11 22  1  0
 11 23  1  0
 12 24  1  0
 12 25  1  0
 13 26  1  0
 16 27  1  0
M  END
$$$$
