
     RDKit          3D

 24 25  0  0  0  0  0  0  0  0999 V2000
   -3.3729   -1.8073   -0.1529 C   0  0  0  0  0  0  0  0  0  0  0  0
   -2.2162   -0.8488   -0.1023 C   0  0  0  0  0  0  0  0  0  0  0  0
   -0.9786   -1.4413   -0.1153 N   0  0  0  0  0  0  0  0  0  0  0  0
    0.0671   -0.6751   -0.0377 C   0  0  0  0  0  0  0  0  0  0  0  0
    1.4428   -1.2679   -0.0502 C   0  0  0  0  0  0  0  0  0  0  0  0
    1.5883   -2.4820   -0.0907 O   0  0  0  0  0  0  0  0  0  0  0  0
    2.4564   -0.3348    0.0114 N   0  0  0  0  0  0  0  0  0  0  0  0
    3.8217   -0.8217    0.0429 C   0  0  0  0  0  0  0  0  0  0  0  0
    2.2487    1.0164    0.2659 C   0  0  0  0  0  0  0  0  0  0  0  0
    3.1938    1.7456    0.5571 O   0  0  0  0  0  0  0  0  0  0  0  0
    0.9868    1.5416    0.1999 N   0  0  0  0  0  0  0  0  0  0  0  0
   -0.0650    0.8067    0.0602 C   0  0  0  0  0  0  0  0  0  0  0  0
   -1.3631    1.2673   -0.0105 N   0  0  0  0  0  0  0  0  0  0  0  0
   -1.6704    2.6796    0.1574 C   0  0  0  0  0  0  0  0  0  0  0  0
   -2.4458    0.4291   -0.0498 N   0  0  0  0  0  0  0  0  0  0  0  0
   -4.3233   -1.2668   -0.1452 H   0  0  0  0  0  0  0  0  0  0  0  0
   -3.3315   -2.4726    0.7141 H   0  0  0  0  0  0  0  0  0  0  0  0
   -3.3086   -2.4069   -1.0652 H   0  0  0  0  0  0  0  0  0  0  0  0
    4.1290   -0.9249    1.0886 H   0  0  0  0  0  0  0  0  0  0  0  0
    3.9099   -1.7934   -0.4516 H   0  0  0  0  0  0  0  0  0  0  0  0
    4.4907   -0.1118   -0.4534 H   0  0  0  0  0  0  0  0  0  0  0  0
   -1.0159    3.2976   -0.4661 H   0  0  0  0  0  0  0  0  0  0  0  0
   -2.7035    2.8987   -0.1340 H   0  0  0  0  0  0  0  0  0  0  0  0
   -1.5403    2.9728    1.2041 H   0  0  0  0  0  0  0  0  0  0  0  0
  1  2  1  0
  2  3  1  0
  3  4  2  0
  4  5  1  0
  5  6  2  0
  5  7  1  0
  7  8  1  0
  7  9  1  0
  9 10  2  0
  9 11  1  0
 11 12  2  0
 12 13  1  0
 13 14  1  0
 13 15  1  0
 15  2  2  0
 12  4  1  0
  1 16  1  0
  1 17  1  0
  1 18  1  0
  8 19  1  0
  8 20  1  0
  8 21  1  0
 14 22  1  0
 14 23  1  0
 14 24  1  0
M  END
$$$$
