
     RDKit          3D

 50 50  0  0  0  0  0  0  0  0999 V2000
    6.4048   -0.0773   -1.6181 C   0  0  0  0  0  0  0  0  0  0  0  0
    5.7239   -0.8125   -0.4740 C   0  0  0  0  0  0  0  0  0  0  0  0
    4.3382   -0.2609   -0.1283 C   0  0  0  0  0  0  0  0  0  0  0  0
    3.3067   -0.4778   -1.2388 C   0  0  0  0  0  0  0  0  0  0  0  0
    1.9226    0.0728   -0.8887 C   0  0  0  0  0  0  0  0  0  0  0  0
    1.2211   -0.6989    0.2303 C   0  0  0  0  0  0  0  0  0  0  0  0
   -0.1169   -0.2252    0.4080 O   0  0  0  0  0  0  0  0  0  0  0  0
   -0.2768    0.8407    1.2391 C   0  0  0  0  0  0  0  0  0  0  0  0
    0.7926    1.3745    1.8329 N   0  0  0  0  0  0  0  0  0  0  0  0
    0.1931    2.6508    2.7199 S   0  0  0  0  0  0  0  0  0  0  0  0
   -1.4259    2.5362    2.3501 N   0  0  0  0  0  0  0  0  0  0  0  0
   -1.5531    1.4774    1.5298 C   0  0  0  0  0  0  0  0  0  0  0  0
   -2.8473    1.0817    1.0072 C   0  0  0  0  0  0  0  0  0  0  0  0
   -3.8999    1.9227    0.9274 C   0  0  0  0  0  0  0  0  0  0  0  0
   -5.2353    1.4854    0.3993 C   0  0  0  0  0  0  0  0  0  0  0  0
   -5.1927    0.1104   -0.2851 C   0  0  0  0  0  0  0  0  0  0  0  0
   -4.3947   -0.8378    0.5029 N   0  0  0  0  0  0  0  0  0  0  0  0
   -4.4532   -2.1788   -0.0737 C   0  0  0  0  0  0  0  0  0  0  0  0
   -2.9913   -0.3735    0.5949 C   0  0  0  0  0  0  0  0  0  0  0  0
    1.0124   -0.1196    1.4639 O   0  0  0  0  0  0  0  0  0  0  0  0
    0.7223    0.0244    0.2925 C   0  0  0  0  0  0  0  0  0  0  0  0
    1.6532    0.2477   -0.6454 O   0  0  0  0  0  0  0  0  0  0  0  0
   -0.7223   -0.0244   -0.2925 C   0  0  0  0  0  0  0  0  0  0  0  0
   -1.0125    0.1196   -1.4639 O   0  0  0  0  0  0  0  0  0  0  0  0
   -1.6532   -0.2478    0.6454 O   0  0  0  0  0  0  0  0  0  0  0  0
    5.8772   -0.2289   -2.5641 H   0  0  0  0  0  0  0  0  0  0  0  0
    7.4266   -0.4486   -1.7470 H   0  0  0  0  0  0  0  0  0  0  0  0
    6.4580    0.9976   -1.4186 H   0  0  0  0  0  0  0  0  0  0  0  0
    5.6517   -1.8792   -0.7163 H   0  0  0  0  0  0  0  0  0  0  0  0
    6.3598   -0.7324    0.4159 H   0  0  0  0  0  0  0  0  0  0  0  0
    4.0022   -0.7586    0.7881 H   0  0  0  0  0  0  0  0  0  0  0  0
    4.4154    0.8086    0.1022 H   0  0  0  0  0  0  0  0  0  0  0  0
    3.6423    0.0253   -2.1526 H   0  0  0  0  0  0  0  0  0  0  0  0
    3.2307   -1.5461   -1.4740 H   0  0  0  0  0  0  0  0  0  0  0  0
    2.0000    1.1358   -0.6324 H   0  0  0  0  0  0  0  0  0  0  0  0
    1.2895    0.0354   -1.7846 H   0  0  0  0  0  0  0  0  0  0  0  0
    1.1299   -1.7480   -0.0756 H   0  0  0  0  0  0  0  0  0  0  0  0
    1.7839   -0.7142    1.1705 H   0  0  0  0  0  0  0  0  0  0  0  0
   -3.8147    2.9541    1.2597 H   0  0  0  0  0  0  0  0  0  0  0  0
   -5.9435    1.4610    1.2364 H   0  0  0  0  0  0  0  0  0  0  0  0
   -5.6033    2.2290   -0.3167 H   0  0  0  0  0  0  0  0  0  0  0  0
   -6.2232   -0.2510   -0.3893 H   0  0  0  0  0  0  0  0  0  0  0  0
   -4.7832    0.2130   -1.2994 H   0  0  0  0  0  0  0  0  0  0  0  0
   -5.4856   -2.5453   -0.0881 H   0  0  0  0  0  0  0  0  0  0  0  0
   -3.8778   -2.8850    0.5352 H   0  0  0  0  0  0  0  0  0  0  0  0
   -4.0636   -2.2087   -1.0977 H   0  0  0  0  0  0  0  0  0  0  0  0
   -2.4911   -1.0134    1.3329 H   0  0  0  0  0  0  0  0  0  0  0  0
   -2.4971   -0.5102   -0.3762 H   0  0  0  0  0  0  0  0  0  0  0  0
    2.4996    0.2546   -0.1541 H   0  0  0  0  0  0  0  0  0  0  0  0
   -2.4996   -0.2547    0.1541 H   0  0  0  0  0  0  0  0  0  0  0  0
  1  2  1  0
  2  3  1  0
  3  4  1  0
  4  5  1  0
  5  6  1  0
  6  7  1  0
  7  8  1  0
  8  9  2  0
  9 10  1  0
 10 11  1  0
 11 12  2  0
 12 13  1  0
 13 14  2  0
 14 15  1  0
 15 16  1  0
 16 17  1  0
 17 18  1  0
 17 19  1  0
 20 21  2  0
 21 22  1  0
 21 23  1  0
 23 24  2  0
 23 25  1  0
 12  8  1  0
 19 13  1  0
  1 26  1  0
  1 27  1  0
  1 28  1  0
  2 29  1  0
  2 30  1  0
  3 31  1  0
  3 32  1  0
  4 33  1  0
  4 34  1  0
  5 35  1  0
  5 36  1  0
  6 37  1  0
  6 38  1  0
 14 39  1  0
 15 40  1  0
 15 41  1  0
 16 42  1  0
 16 43  1  0
 18 44  1  0
 18 45  1  0
 18 46  1  0
 19 47  1  0
 19 48  1  0
 22 49  1  0
 25 50  1  0
M  END
$$$$
