
     RDKit          3D

 46 50  0  0  0  0  0  0  0  0999 V2000
    0.1532    0.9083   -2.7999 O   0  0  0  0  0  0  0  0  0  0  0  0
    0.3908    1.4789   -1.7406 C   0  0  0  0  0  0  0  0  0  0  0  0
    1.6290    2.3539   -1.5543 C   0  0  0  0  0  0  0  0  0  0  0  0
    2.6774    1.5773   -0.9311 N   0  0  0  0  0  0  0  0  0  0  0  0
    3.9896    0.9557   -1.8278 S   0  0  0  0  0  0  0  0  0  0  0  0
    4.6873    0.2596   -0.3574 C   0  0  0  0  0  0  0  0  0  0  0  0
    5.8630   -0.4628   -0.2333 C   0  0  0  0  0  0  0  0  0  0  0  0
    6.2326   -0.9245    1.0351 C   0  0  0  0  0  0  0  0  0  0  0  0
    5.4305   -0.6641    2.1566 C   0  0  0  0  0  0  0  0  0  0  0  0
    4.2466    0.0640    2.0263 C   0  0  0  0  0  0  0  0  0  0  0  0
    3.8978    0.5151    0.7610 C   0  0  0  0  0  0  0  0  0  0  0  0
    2.6966    1.2972    0.4223 C   0  0  0  0  0  0  0  0  0  0  0  0
    1.8419    1.6259    1.2328 O   0  0  0  0  0  0  0  0  0  0  0  0
   -0.3889    1.3779   -0.5998 N   0  0  0  0  0  0  0  0  0  0  0  0
   -1.5110    0.4471   -0.4405 C   0  0  0  0  0  0  0  0  0  0  0  0
   -2.5750    0.5804   -1.5618 C   0  0  0  0  0  0  0  0  0  0  0  0
   -3.7450   -0.3888   -1.3158 C   0  0  0  0  0  0  0  0  0  0  0  0
   -4.4059   -0.0538    0.0298 C   0  0  0  0  0  0  0  0  0  0  0  0
   -3.3804   -0.1948    1.1660 C   0  0  0  0  0  0  0  0  0  0  0  0
   -2.8480   -1.6375    1.1971 C   0  0  0  0  0  0  0  0  0  0  0  0
   -2.1783   -1.9828   -0.1433 C   0  0  0  0  0  0  0  0  0  0  0  0
   -3.2096   -1.8316   -1.2763 C   0  0  0  0  0  0  0  0  0  0  0  0
   -1.0082   -1.0165   -0.3944 C   0  0  0  0  0  0  0  0  0  0  0  0
   -2.2093    0.7655    0.9109 C   0  0  0  0  0  0  0  0  0  0  0  0
    1.9474    2.7523   -2.5210 H   0  0  0  0  0  0  0  0  0  0  0  0
    1.3769    3.2032   -0.9067 H   0  0  0  0  0  0  0  0  0  0  0  0
    6.4882   -0.6695   -1.0988 H   0  0  0  0  0  0  0  0  0  0  0  0
    7.1528   -1.4936    1.1536 H   0  0  0  0  0  0  0  0  0  0  0  0
    5.7338   -1.0327    3.1318 H   0  0  0  0  0  0  0  0  0  0  0  0
    3.6173    0.2719    2.8860 H   0  0  0  0  0  0  0  0  0  0  0  0
    0.1186    1.5905    0.2586 H   0  0  0  0  0  0  0  0  0  0  0  0
   -2.1469    0.3563   -2.5451 H   0  0  0  0  0  0  0  0  0  0  0  0
   -2.9447    1.6131   -1.6136 H   0  0  0  0  0  0  0  0  0  0  0  0
   -4.4813   -0.2909   -2.1238 H   0  0  0  0  0  0  0  0  0  0  0  0
   -4.8053    0.9682    0.0077 H   0  0  0  0  0  0  0  0  0  0  0  0
   -5.2555   -0.7239    0.2065 H   0  0  0  0  0  0  0  0  0  0  0  0
   -3.8558    0.0471    2.1256 H   0  0  0  0  0  0  0  0  0  0  0  0
   -3.6704   -2.3356    1.3937 H   0  0  0  0  0  0  0  0  0  0  0  0
   -2.1303   -1.7529    2.0187 H   0  0  0  0  0  0  0  0  0  0  0  0
   -1.8067   -3.0135   -0.1154 H   0  0  0  0  0  0  0  0  0  0  0  0
   -4.0390   -2.5322   -1.1245 H   0  0  0  0  0  0  0  0  0  0  0  0
   -2.7492   -2.0901   -2.2382 H   0  0  0  0  0  0  0  0  0  0  0  0
   -0.2550   -1.1318    0.3940 H   0  0  0  0  0  0  0  0  0  0  0  0
   -0.5112   -1.2812   -1.3356 H   0  0  0  0  0  0  0  0  0  0  0  0
   -2.5728    1.8047    0.9145 H   0  0  0  0  0  0  0  0  0  0  0  0
   -1.4877    0.6910    1.7382 H   0  0  0  0  0  0  0  0  0  0  0  0
  1  2  2  0
  2  3  1  0
  3  4  1  0
  4  5  1  0
  5  6  1  0
  6  7  2  0
  7  8  1  0
  8  9  2  0
  9 10  1  0
 10 11  2  0
 11 12  1  0
 12 13  2  0
  2 14  1  0
 14 15  1  0
 15 16  1  0
 16 17  1  0
 17 18  1  0
 18 19  1  0
 19 20  1  0
 20 21  1  0
 21 22  1  0
 21 23  1  0
 19 24  1  0
 12  4  1  0
 23 15  1  0
 11  6  1  0
 24 15  1  0
 22 17  1  0
  3 25  1  0
  3 26  1  0
  7 27  1  0
  8 28  1  0
  9 29  1  0
 10 30  1  0
 14 31  1  0
 16 32  1  0
 16 33  1  0
 17 34  1  0
 18 35  1  0
 18 36  1  0
 19 37  1  0
 20 38  1  0
 20 39  1  0
 21 40  1  0
 22 41  1  0
 22 42  1  0
 23 43  1  0
 23 44  1  0
 24 45  1  0
 24 46  1  0
M  END
$$$$
