
     RDKit          3D

 60 63  0  0  0  0  0  0  0  0999 V2000
   -6.8494   -0.9610    1.1575 C   0  0  0  0  0  0  0  0  0  0  0  0
   -6.7226    0.5405    1.3759 C   0  0  0  0  0  0  0  0  0  0  0  0
   -7.4405    1.3691    0.3193 C   0  0  0  0  0  0  0  0  0  0  0  0
   -5.3064    1.0612    1.6199 C   0  0  0  0  0  0  0  0  0  0  0  0
   -5.1755    2.0663    2.3313 O   0  0  0  0  0  0  0  0  0  0  0  0
   -4.1044    0.4004    1.0919 C   0  0  0  0  0  0  0  0  0  0  0  0
   -2.9419    0.3305    1.8418 C   0  0  0  0  0  0  0  0  0  0  0  0
   -1.9791   -0.3233    1.1220 N   0  0  0  0  0  0  0  0  0  0  0  0
   -0.6289   -0.5520    1.6109 C   0  0  0  0  0  0  0  0  0  0  0  0
    0.2086    0.7020    1.5492 C   0  0  0  0  0  0  0  0  0  0  0  0
    0.5961    1.2667    2.5765 O   0  0  0  0  0  0  0  0  0  0  0  0
    0.5633    1.2409    0.1695 C   0  0  0  0  0  0  0  0  0  0  0  0
    1.1973    0.2713   -0.6524 O   0  0  0  0  0  0  0  0  0  0  0  0
    2.5159   -0.0131   -0.4177 C   0  0  0  0  0  0  0  0  0  0  0  0
    3.3269    0.5752    0.5551 C   0  0  0  0  0  0  0  0  0  0  0  0
    4.6634    0.1787    0.6893 C   0  0  0  0  0  0  0  0  0  0  0  0
    5.1941   -0.7979   -0.1557 C   0  0  0  0  0  0  0  0  0  0  0  0
    6.4869   -1.2521   -0.0385 O   0  0  0  0  0  0  0  0  0  0  0  0
    7.4734   -0.2945    0.0268 C   0  0  0  0  0  0  0  0  0  0  0  0
    7.6047    0.7019   -0.9449 C   0  0  0  0  0  0  0  0  0  0  0  0
    8.6564    1.6147   -0.8595 C   0  0  0  0  0  0  0  0  0  0  0  0
    9.5715    1.5305    0.1937 C   0  0  0  0  0  0  0  0  0  0  0  0
    9.4436    0.5268    1.1570 C   0  0  0  0  0  0  0  0  0  0  0  0
    8.4011   -0.3944    1.0658 C   0  0  0  0  0  0  0  0  0  0  0  0
    4.3865   -1.4012   -1.1164 C   0  0  0  0  0  0  0  0  0  0  0  0
    3.0546   -1.0003   -1.2520 C   0  0  0  0  0  0  0  0  0  0  0  0
   -2.4760   -0.6752   -0.1136 C   0  0  0  0  0  0  0  0  0  0  0  0
   -1.8618   -1.3364   -1.1897 C   0  0  0  0  0  0  0  0  0  0  0  0
   -2.5962   -1.5240   -2.3624 C   0  0  0  0  0  0  0  0  0  0  0  0
   -3.9058   -1.0601   -2.4664 C   0  0  0  0  0  0  0  0  0  0  0  0
   -4.6287   -1.2787   -3.7440 C   0  0  0  0  0  0  0  0  0  0  0  0
   -4.1612   -1.7742   -4.7519 O   0  0  0  0  0  0  0  0  0  0  0  0
   -5.9112   -0.8777   -3.6969 O   0  0  0  0  0  0  0  0  0  0  0  0
   -4.5082   -0.4031   -1.3825 C   0  0  0  0  0  0  0  0  0  0  0  0
   -3.8019   -0.2151   -0.1716 C   0  0  0  0  0  0  0  0  0  0  0  0
   -6.5931   -1.2607    0.1400 H   0  0  0  0  0  0  0  0  0  0  0  0
   -6.2088   -1.5215    1.8507 H   0  0  0  0  0  0  0  0  0  0  0  0
   -7.8860   -1.2797    1.3305 H   0  0  0  0  0  0  0  0  0  0  0  0
   -7.2423    0.7303    2.3261 H   0  0  0  0  0  0  0  0  0  0  0  0
   -7.4279    2.4330    0.5925 H   0  0  0  0  0  0  0  0  0  0  0  0
   -6.9673    1.2855   -0.6649 H   0  0  0  0  0  0  0  0  0  0  0  0
   -8.4912    1.0590    0.2254 H   0  0  0  0  0  0  0  0  0  0  0  0
   -2.7394    0.7083    2.8400 H   0  0  0  0  0  0  0  0  0  0  0  0
   -0.1562   -1.3587    1.0472 H   0  0  0  0  0  0  0  0  0  0  0  0
   -0.7096   -0.8850    2.6527 H   0  0  0  0  0  0  0  0  0  0  0  0
    1.1571    2.1589    0.2515 H   0  0  0  0  0  0  0  0  0  0  0  0
   -0.3686    1.5379   -0.3234 H   0  0  0  0  0  0  0  0  0  0  0  0
    2.9648    1.3428    1.2333 H   0  0  0  0  0  0  0  0  0  0  0  0
    5.2801    0.6361    1.4585 H   0  0  0  0  0  0  0  0  0  0  0  0
    6.9079    0.7607   -1.7779 H   0  0  0  0  0  0  0  0  0  0  0  0
    8.7726    2.3815   -1.6261 H   0  0  0  0  0  0  0  0  0  0  0  0
   10.3944    2.2411    0.2535 H   0  0  0  0  0  0  0  0  0  0  0  0
   10.1659    0.4561    1.9676 H   0  0  0  0  0  0  0  0  0  0  0  0
    8.3160   -1.1912    1.7966 H   0  0  0  0  0  0  0  0  0  0  0  0
    4.7938   -2.1728   -1.7650 H   0  0  0  0  0  0  0  0  0  0  0  0
    2.4341   -1.4625   -2.0177 H   0  0  0  0  0  0  0  0  0  0  0  0
   -0.8372   -1.6925   -1.1325 H   0  0  0  0  0  0  0  0  0  0  0  0
   -2.1290   -2.0301   -3.2056 H   0  0  0  0  0  0  0  0  0  0  0  0
   -6.2523   -1.0837   -4.5938 H   0  0  0  0  0  0  0  0  0  0  0  0
   -5.5224   -0.0355   -1.4868 H   0  0  0  0  0  0  0  0  0  0  0  0
  1  2  1  0
  2  3  1  0
  2  4  1  0
  4  5  2  0
  4  6  1  0
  6  7  2  0
  7  8  1  0
  8  9  1  0
  9 10  1  0
 10 11  2  0
 10 12  1  0
 12 13  1  0
 13 14  1  0
 14 15  2  0
 15 16  1  0
 16 17  2  0
 17 18  1  0
 18 19  1  0
 19 20  2  0
 20 21  1  0
 21 22  2  0
 22 23  1  0
 23 24  2  0
 17 25  1  0
 25 26  2  0
  8 27  1  0
 27 28  2  0
 28 29  1  0
 29 30  2  0
 30 31  1  0
 31 32  2  0
 31 33  1  0
 30 34  1  0
 34 35  2  0
 35  6  1  0
 26 14  1  0
 35 27  1  0
 24 19  1  0
  1 36  1  0
  1 37  1  0
  1 38  1  0
  2 39  1  0
  3 40  1  0
  3 41  1  0
  3 42  1  0
  7 43  1  0
  9 44  1  0
  9 45  1  0
 12 46  1  0
 12 47  1  0
 15 48  1  0
 16 49  1  0
 20 50  1  0
 21 51  1  0
 22 52  1  0
 23 53  1  0
 24 54  1  0
 25 55  1  0
 26 56  1  0
 28 57  1  0
 29 58  1  0
 33 59  1  0
 34 60  1  0
M  END
$$$$
