
     RDKit          3D

 29 28  0  0  0  0  0  0  0  0999 V2000
   -2.6038    1.7762   -0.5356 C   0  0  0  0  0  0  0  0  0  0  0  0
   -1.1433    1.4012   -0.3139 C   0  0  0  0  0  0  0  0  0  0  0  0
   -0.9081   -0.0860    0.0308 N   0  0  0  0  0  4  0  0  0  0  0  0
   -1.3922   -0.9688   -1.1211 C   0  0  0  0  0  0  0  0  0  0  0  0
   -1.6284   -0.4371    1.3341 C   0  0  0  0  0  0  0  0  0  0  0  0
    0.5933   -0.3739    0.2376 C   0  0  0  0  0  0  0  0  0  0  0  0
    1.0032   -1.6831    0.5606 C   0  0  0  0  0  0  0  0  0  0  0  0
    2.3517   -1.9931    0.7574 C   0  0  0  0  0  0  0  0  0  0  0  0
    3.3138   -0.9996    0.6348 C   0  0  0  0  0  0  0  0  0  0  0  0
    2.9242    0.2936    0.3172 C   0  0  0  0  0  0  0  0  0  0  0  0
    3.9119    1.2263    0.2102 O   0  0  0  0  0  0  0  0  0  0  0  0
    1.5807    0.6174    0.1179 C   0  0  0  0  0  0  0  0  0  0  0  0
    0.0000    0.0000    0.0000 Cl  0  0  0  0  0 15  0  0  0  0  0  0
   -2.6674    2.8441   -0.7730 H   0  0  0  0  0  0  0  0  0  0  0  0
   -3.2163    1.6136    0.3547 H   0  0  0  0  0  0  0  0  0  0  0  0
   -3.0498    1.2387   -1.3761 H   0  0  0  0  0  0  0  0  0  0  0  0
   -0.7505    1.9971    0.5184 H   0  0  0  0  0  0  0  0  0  0  0  0
   -0.5822    1.6183   -1.2305 H   0  0  0  0  0  0  0  0  0  0  0  0
   -1.2137   -2.0210   -0.8845 H   0  0  0  0  0  0  0  0  0  0  0  0
   -0.8594   -0.6778   -2.0315 H   0  0  0  0  0  0  0  0  0  0  0  0
   -2.4689   -0.8282   -1.2423 H   0  0  0  0  0  0  0  0  0  0  0  0
   -1.4514   -1.4858    1.5867 H   0  0  0  0  0  0  0  0  0  0  0  0
   -2.7028   -0.3017    1.1886 H   0  0  0  0  0  0  0  0  0  0  0  0
   -1.2593    0.2225    2.1254 H   0  0  0  0  0  0  0  0  0  0  0  0
    0.2941   -2.4989    0.6690 H   0  0  0  0  0  0  0  0  0  0  0  0
    2.6538   -3.0089    1.0065 H   0  0  0  0  0  0  0  0  0  0  0  0
    4.3665   -1.2310    0.7862 H   0  0  0  0  0  0  0  0  0  0  0  0
    3.5535    2.1004   -0.0135 H   0  0  0  0  0  0  0  0  0  0  0  0
    1.3505    1.6457   -0.1270 H   0  0  0  0  0  0  0  0  0  0  0  0
  1  2  1  0
  2  3  1  0
  3  4  1  0
  3  5  1  0
  3  6  1  0
  6  7  2  0
  7  8  1  0
  8  9  2  0
  9 10  1  0
 10 11  1  0
 10 12  2  0
 12  6  1  0
  1 14  1  0
  1 15  1  0
  1 16  1  0
  2 17  1  0
  2 18  1  0
  4 19  1  0
  4 20  1  0
  4 21  1  0
  5 22  1  0
  5 23  1  0
  5 24  1  0
  7 25  1  0
  8 26  1  0
  9 27  1  0
 11 28  1  0
 12 29  1  0
M  CHG  2   3   1  13  -1
M  END
$$$$
