
     RDKit          3D

 47 51  0  0  0  0  0  0  0  0999 V2000
    9.4669    1.0364    1.7314 C   0  0  0  0  0  0  0  0  0  0  0  0
    8.1464    0.8889    2.9548 S   0  0  0  0  0  0  0  0  0  0  0  0
    6.7623    0.6356    1.9115 C   0  0  0  0  0  0  0  0  0  0  0  0
    6.8691    0.6098    0.5995 N   0  0  0  0  0  0  0  0  0  0  0  0
    5.6228    0.3984    0.0413 C   0  0  0  0  0  0  0  0  0  0  0  0
    5.2865    0.3066   -1.3265 C   0  0  0  0  0  0  0  0  0  0  0  0
    3.9512    0.0860   -1.7683 C   0  0  0  0  0  0  0  0  0  0  0  0
    2.8739   -0.0583   -0.8685 C   0  0  0  0  0  0  0  0  0  0  0  0
    1.5426   -0.2745   -1.1612 N   0  0  0  0  0  0  0  0  0  0  0  0
    0.8618   -0.3522   -0.0455 C   0  0  0  0  0  0  0  0  0  0  0  0
   -0.4750   -0.5545    0.1497 N   0  0  0  0  0  0  0  0  0  0  0  0
   -1.3781   -0.6736   -0.8949 C   0  0  0  0  0  0  0  0  0  0  0  0
   -1.0729   -0.6717   -2.0849 O   0  0  0  0  0  0  0  0  0  0  0  0
   -2.8350   -0.9043   -0.4108 C   0  0  0  0  0  0  0  0  0  0  0  0
   -3.9146   -0.7917   -1.4877 C   0  0  0  0  0  0  0  0  0  0  0  0
   -3.9078    0.2253   -2.4554 C   0  0  0  0  0  0  0  0  0  0  0  0
   -4.9309    0.3192   -3.4017 C   0  0  0  0  0  0  0  0  0  0  0  0
   -5.9821   -0.5940   -3.3890 C   0  0  0  0  0  0  0  0  0  0  0  0
   -6.0130   -1.6019   -2.4292 C   0  0  0  0  0  0  0  0  0  0  0  0
   -4.9903   -1.6981   -1.4833 C   0  0  0  0  0  0  0  0  0  0  0  0
   -3.2000   -0.0763    0.8246 C   0  0  0  0  0  0  0  0  0  0  0  0
   -3.0878    1.3238    0.8232 C   0  0  0  0  0  0  0  0  0  0  0  0
   -3.4018    2.0613    1.9655 C   0  0  0  0  0  0  0  0  0  0  0  0
   -3.8371    1.4124    3.1187 C   0  0  0  0  0  0  0  0  0  0  0  0
   -3.9646    0.0253    3.1309 C   0  0  0  0  0  0  0  0  0  0  0  0
   -3.6509   -0.7163    1.9909 C   0  0  0  0  0  0  0  0  0  0  0  0
    1.7485   -0.1757    1.4104 S   0  0  0  0  0  0  0  0  0  0  0  0
    3.1502    0.0220    0.4834 C   0  0  0  0  0  0  0  0  0  0  0  0
    4.6030    0.2656    0.9637 C   0  0  0  0  0  0  0  0  0  0  0  0
    5.1794    0.4067    2.5456 S   0  0  0  0  0  0  0  0  0  0  0  0
    9.2878    1.8880    1.0690 H   0  0  0  0  0  0  0  0  0  0  0  0
    9.5494    0.1220    1.1372 H   0  0  0  0  0  0  0  0  0  0  0  0
   10.4176    1.1978    2.2469 H   0  0  0  0  0  0  0  0  0  0  0  0
    6.0771    0.4091   -2.0666 H   0  0  0  0  0  0  0  0  0  0  0  0
    3.7469    0.0248   -2.8353 H   0  0  0  0  0  0  0  0  0  0  0  0
   -0.7921   -0.5504    1.1091 H   0  0  0  0  0  0  0  0  0  0  0  0
   -2.8125   -1.9632   -0.1067 H   0  0  0  0  0  0  0  0  0  0  0  0
   -3.0958    0.9483   -2.4964 H   0  0  0  0  0  0  0  0  0  0  0  0
   -4.9027    1.1054   -4.1517 H   0  0  0  0  0  0  0  0  0  0  0  0
   -6.7756   -0.5197   -4.1274 H   0  0  0  0  0  0  0  0  0  0  0  0
   -6.8346   -2.3135   -2.4161 H   0  0  0  0  0  0  0  0  0  0  0  0
   -5.0424   -2.4879   -0.7375 H   0  0  0  0  0  0  0  0  0  0  0  0
   -2.7571    1.8540   -0.0683 H   0  0  0  0  0  0  0  0  0  0  0  0
   -3.3141    3.1451    1.9526 H   0  0  0  0  0  0  0  0  0  0  0  0
   -4.0879    1.9897    4.0052 H   0  0  0  0  0  0  0  0  0  0  0  0
   -4.3175   -0.4785    4.0276 H   0  0  0  0  0  0  0  0  0  0  0  0
   -3.7690   -1.7977    2.0203 H   0  0  0  0  0  0  0  0  0  0  0  0
  1  2  1  0
  2  3  1  0
  3  4  2  0
  4  5  1  0
  5  6  2  0
  6  7  1  0
  7  8  2  0
  8  9  1  0
  9 10  2  0
 10 11  1  0
 11 12  1  0
 12 13  2  0
 12 14  1  0
 14 15  1  0
 15 16  2  0
 16 17  1  0
 17 18  2  0
 18 19  1  0
 19 20  2  0
 14 21  1  0
 21 22  2  0
 22 23  1  0
 23 24  2  0
 24 25  1  0
 25 26  2  0
 10 27  1  0
 27 28  1  0
 28 29  2  0
 29 30  1  0
 30  3  1  0
 29  5  1  0
 28  8  1  0
 20 15  1  0
 26 21  1  0
  1 31  1  0
  1 32  1  0
  1 33  1  0
  6 34  1  0
  7 35  1  0
 11 36  1  0
 14 37  1  0
 16 38  1  0
 17 39  1  0
 18 40  1  0
 19 41  1  0
 20 42  1  0
 22 43  1  0
 23 44  1  0
 24 45  1  0
 25 46  1  0
 26 47  1  0
M  END
$$$$
