
     RDKit          3D

 46 48  0  0  0  0  0  0  0  0999 V2000
    0.6892    0.0000    0.0000 Cl  0  0  0  0  0  0  0  0  0  0  0  0
   -3.7913    4.4553    1.2263 F   0  0  0  0  0  0  0  0  0  0  0  0
   -3.4094    3.2157    0.7793 C   0  0  0  0  0  0  0  0  0  0  0  0
   -3.3435    2.1435    1.6440 C   0  0  0  0  0  0  0  0  0  0  0  0
   -2.9549    0.8800    1.1914 C   0  0  0  0  0  0  0  0  0  0  0  0
   -2.6250    0.6587   -0.1269 C   0  0  0  0  0  0  0  0  0  0  0  0
   -2.2101   -0.6379   -0.6678 C   0  0  2  0  0  0  0  0  0  0  0  0
   -3.3385   -1.6511   -0.4957 C   0  0  0  0  0  0  0  0  0  0  0  0
   -2.9752   -2.9731   -1.1026 C   0  0  0  0  0  0  0  0  0  0  0  0
   -1.7729   -3.4966   -0.5121 N   0  0  0  0  0  0  0  0  0  0  0  0
   -0.7147   -2.5419   -0.6739 C   0  0  0  0  0  0  0  0  0  0  0  0
   -1.0033   -1.2233    0.0205 C   0  0  1  0  0  0  0  0  0  0  0  0
    0.2335   -0.3587   -0.1842 C   0  0  0  0  0  0  0  0  0  0  0  0
    1.2913   -1.0177    0.5098 O   0  0  0  0  0  0  0  0  0  0  0  0
    2.5798   -0.5049    0.5375 C   0  0  0  0  0  0  0  0  0  0  0  0
    3.5424   -1.1879    1.2209 C   0  0  0  0  0  0  0  0  0  0  0  0
    4.8256   -0.6618    1.2390 C   0  0  0  0  0  0  0  0  0  0  0  0
    5.1239    0.5193    0.5850 C   0  0  0  0  0  0  0  0  0  0  0  0
    4.1560    1.1968   -0.0964 C   0  0  0  0  0  0  0  0  0  0  0  0
    2.8824    0.6688   -0.1106 C   0  0  0  0  0  0  0  0  0  0  0  0
    4.6843    2.3580   -0.6761 O   0  0  0  0  0  0  0  0  0  0  0  0
    5.9706    2.5110   -0.1383 C   0  0  0  0  0  0  0  0  0  0  0  0
    6.2897    1.2677    0.4333 O   0  0  0  0  0  0  0  0  0  0  0  0
   -2.6989    1.7463   -0.9706 C   0  0  0  0  0  0  0  0  0  0  0  0
   -3.0806    2.9981   -0.5378 C   0  0  0  0  0  0  0  0  0  0  0  0
   -0.6892    0.0000    0.0000 H   0  0  0  0  0  0  0  0  0  0  0  0
   -3.6059    2.3349    2.6760 H   0  0  0  0  0  0  0  0  0  0  0  0
   -2.9119    0.0626    1.8851 H   0  0  0  0  0  0  0  0  0  0  0  0
   -1.9903   -0.6045   -1.7448 H   0  0  0  0  0  0  0  0  0  0  0  0
   -4.2215   -1.2504   -1.0660 H   0  0  0  0  0  0  0  0  0  0  0  0
   -3.5929   -1.7723    0.5740 H   0  0  0  0  0  0  0  0  0  0  0  0
   -2.8334   -2.8185   -2.1953 H   0  0  0  0  0  0  0  0  0  0  0  0
   -3.7936   -3.6837   -0.8697 H   0  0  0  0  0  0  0  0  0  0  0  0
   -1.9385   -3.7996    0.4568 H   0  0  0  0  0  0  0  0  0  0  0  0
   -0.6635   -2.2993   -1.7692 H   0  0  0  0  0  0  0  0  0  0  0  0
    0.2827   -2.9415   -0.4130 H   0  0  0  0  0  0  0  0  0  0  0  0
   -1.1480   -1.4001    1.0944 H   0  0  0  0  0  0  0  0  0  0  0  0
    0.1369    0.6357    0.2702 H   0  0  0  0  0  0  0  0  0  0  0  0
    0.4972   -0.3651   -1.2452 H   0  0  0  0  0  0  0  0  0  0  0  0
    3.3721   -2.1165    1.7523 H   0  0  0  0  0  0  0  0  0  0  0  0
    5.6037   -1.1708    1.7646 H   0  0  0  0  0  0  0  0  0  0  0  0
    2.0734    1.1650   -0.6366 H   0  0  0  0  0  0  0  0  0  0  0  0
    6.0202    3.3496    0.5948 H   0  0  0  0  0  0  0  0  0  0  0  0
    6.6466    2.7833   -0.9788 H   0  0  0  0  0  0  0  0  0  0  0  0
   -2.4558    1.6698   -2.0375 H   0  0  0  0  0  0  0  0  0  0  0  0
   -3.1387    3.8571   -1.2059 H   0  0  0  0  0  0  0  0  0  0  0  0
  2  3  1  0
  3  4  2  0
  4  5  1  0
  5  6  2  0
  6  7  1  0
  7  8  1  0
  8  9  1  0
  9 10  1  0
 10 11  1  0
 11 12  1  0
 12 13  1  0
 13 14  1  0
 14 15  1  0
 15 16  2  0
 16 17  1  0
 17 18  2  0
 18 19  1  0
 19 20  2  0
 19 21  1  0
 21 22  1  0
 22 23  1  0
  6 24  1  0
 24 25  2  0
 25  3  1  0
 12  7  1  0
 20 15  1  0
 23 18  1  0
  1 26  1  0
  4 27  1  0
  5 28  1  0
  7 29  1  6
  8 30  1  0
  8 31  1  0
  9 32  1  0
  9 33  1  0
 10 34  1  0
 11 35  1  0
 11 36  1  0
 12 37  1  1
 13 38  1  0
 13 39  1  0
 16 40  1  0
 17 41  1  0
 20 42  1  0
 22 43  1  0
 22 44  1  0
 24 45  1  0
 25 46  1  0
M  END
$$$$
