
     RDKit          3D

 46 48  0  0  0  0  0  0  0  0999 V2000
    9.1162    0.6735    0.9007 C   0  0  0  0  0  0  0  0  0  0  0  0
    8.5736   -0.3814   -0.0477 C   0  0  0  0  0  0  0  0  0  0  0  0
    7.5012    0.1421   -0.8300 O   0  0  0  0  0  0  0  0  0  0  0  0
    6.2268    0.0598   -0.3458 C   0  0  0  0  0  0  0  0  0  0  0  0
    5.8457   -0.4061    0.9117 C   0  0  0  0  0  0  0  0  0  0  0  0
    4.4934   -0.4282    1.2734 C   0  0  0  0  0  0  0  0  0  0  0  0
    3.5102    0.0082    0.3776 C   0  0  0  0  0  0  0  0  0  0  0  0
    2.0836   -0.0398    0.8096 C   0  0  0  0  0  0  0  0  0  0  0  0
    1.8352    0.1247    1.9973 O   0  0  0  0  0  0  0  0  0  0  0  0
    1.1875   -0.3079   -0.1999 N   0  0  0  0  0  0  0  0  0  0  0  0
   -0.1612   -0.3790    0.0163 C   0  0  0  0  0  0  0  0  0  0  0  0
   -0.8414   -0.1700    1.1101 N   0  0  0  0  0  0  0  0  0  0  0  0
   -2.1882   -0.3579    0.8632 C   0  0  0  0  0  0  0  0  0  0  0  0
   -3.2264   -0.2316    1.8097 C   0  0  0  0  0  0  0  0  0  0  0  0
   -4.5524   -0.4456    1.4216 C   0  0  0  0  0  0  0  0  0  0  0  0
   -4.8430   -0.7771    0.0980 C   0  0  0  0  0  0  0  0  0  0  0  0
   -6.5411   -1.0350   -0.3634 S   0  0  0  0  0  6  0  0  0  0  0  0
   -6.5981   -1.2491   -1.7945 O   0  0  0  0  0  0  0  0  0  0  0  0
   -7.0887   -2.0002    0.5646 O   0  0  0  0  0  0  0  0  0  0  0  0
   -7.2542    0.4891   -0.0475 N   0  0  0  0  0  0  0  0  0  0  0  0
   -6.7766    1.5953   -0.9077 C   0  0  0  0  0  0  0  0  0  0  0  0
   -8.7338    0.4345   -0.0087 C   0  0  0  0  0  0  0  0  0  0  0  0
   -3.8363   -0.9187   -0.8661 C   0  0  0  0  0  0  0  0  0  0  0  0
   -2.5116   -0.7015   -0.4533 C   0  0  0  0  0  0  0  0  0  0  0  0
   -1.0566   -0.7923   -1.3748 S   0  0  0  0  0  0  0  0  0  0  0  0
    3.8918    0.4978   -0.8758 C   0  0  0  0  0  0  0  0  0  0  0  0
    5.2442    0.5170   -1.2301 C   0  0  0  0  0  0  0  0  0  0  0  0
    9.4138    1.5699    0.3464 H   0  0  0  0  0  0  0  0  0  0  0  0
    9.9848    0.2930    1.4456 H   0  0  0  0  0  0  0  0  0  0  0  0
    8.3602    0.9870    1.6267 H   0  0  0  0  0  0  0  0  0  0  0  0
    9.3674   -0.6508   -0.7538 H   0  0  0  0  0  0  0  0  0  0  0  0
    8.3043   -1.3099    0.4675 H   0  0  0  0  0  0  0  0  0  0  0  0
    6.5691   -0.7486    1.6437 H   0  0  0  0  0  0  0  0  0  0  0  0
    4.2083   -0.7870    2.2614 H   0  0  0  0  0  0  0  0  0  0  0  0
    1.5016   -0.5378   -1.1293 H   0  0  0  0  0  0  0  0  0  0  0  0
   -2.9819    0.0287    2.8357 H   0  0  0  0  0  0  0  0  0  0  0  0
   -5.3506   -0.3523    2.1559 H   0  0  0  0  0  0  0  0  0  0  0  0
   -7.1816    2.5450   -0.5427 H   0  0  0  0  0  0  0  0  0  0  0  0
   -7.0987    1.4571   -1.9441 H   0  0  0  0  0  0  0  0  0  0  0  0
   -5.6877    1.6812   -0.8716 H   0  0  0  0  0  0  0  0  0  0  0  0
   -9.1413    0.1412   -0.9810 H   0  0  0  0  0  0  0  0  0  0  0  0
   -9.1369    1.4175    0.2558 H   0  0  0  0  0  0  0  0  0  0  0  0
   -9.0718   -0.2668    0.7596 H   0  0  0  0  0  0  0  0  0  0  0  0
   -4.0637   -1.1885   -1.8934 H   0  0  0  0  0  0  0  0  0  0  0  0
    3.1644    0.8975   -1.5758 H   0  0  0  0  0  0  0  0  0  0  0  0
    5.5405    0.9030   -2.2034 H   0  0  0  0  0  0  0  0  0  0  0  0
  1  2  1  0
  2  3  1  0
  3  4  1  0
  4  5  2  0
  5  6  1  0
  6  7  2  0
  7  8  1  0
  8  9  2  0
  8 10  1  0
 10 11  1  0
 11 12  2  0
 12 13  1  0
 13 14  2  0
 14 15  1  0
 15 16  2  0
 16 17  1  0
 17 18  2  0
 17 19  2  0
 17 20  1  0
 20 21  1  0
 20 22  1  0
 16 23  1  0
 23 24  2  0
 24 25  1  0
  7 26  1  0
 26 27  2  0
 27  4  1  0
 25 11  1  0
 24 13  1  0
  1 28  1  0
  1 29  1  0
  1 30  1  0
  2 31  1  0
  2 32  1  0
  5 33  1  0
  6 34  1  0
 10 35  1  0
 14 36  1  0
 15 37  1  0
 21 38  1  0
 21 39  1  0
 21 40  1  0
 22 41  1  0
 22 42  1  0
 22 43  1  0
 23 44  1  0
 26 45  1  0
 27 46  1  0
M  END
$$$$
