
     RDKit          3D

 44 46  0  0  0  0  0  0  0  0999 V2000
   -7.1810   -0.0581   -1.1590 C   0  0  0  0  0  0  0  0  0  0  0  0
   -5.9833    0.8883   -1.2588 C   0  0  0  0  0  0  0  0  0  0  0  0
   -6.3031    2.2332   -0.6040 C   0  0  0  0  0  0  0  0  0  0  0  0
   -4.7436    0.2796   -0.6927 C   0  0  0  0  0  0  0  0  0  0  0  0
   -4.6367   -0.1224    0.5760 N   0  0  0  0  0  0  0  0  0  0  0  0
   -3.3365   -0.6049    0.6499 O   0  0  0  0  0  0  0  0  0  0  0  0
   -2.7549   -0.4552   -0.5977 C   0  0  0  0  0  0  0  0  0  0  0  0
   -1.4079   -0.8517   -0.9007 C   0  0  0  0  0  0  0  0  0  0  0  0
   -0.8072   -0.6990   -2.2187 C   0  0  0  0  0  0  0  0  0  0  0  0
    0.4565   -1.0653   -2.4673 C   0  0  0  0  0  0  0  0  0  0  0  0
    1.2864   -1.6432   -1.3834 C   0  0  0  0  0  0  0  0  0  0  0  0
    2.4669   -1.9197   -1.5879 O   0  0  0  0  0  0  0  0  0  0  0  0
    0.6565   -1.8087   -0.1548 N   0  0  0  0  0  0  0  0  0  0  0  0
    1.4263   -2.3994    0.9406 C   0  0  0  0  0  0  0  0  0  0  0  0
    2.2833   -1.3428    1.6437 C   0  0  0  0  0  0  0  0  0  0  0  0
    1.9693   -0.9196    2.7529 O   0  0  0  0  0  0  0  0  0  0  0  0
    3.3796   -0.9542    0.8909 N   0  0  0  0  0  0  0  0  0  0  0  0
    4.3806   -0.0278    1.2340 C   0  0  0  0  0  0  0  0  0  0  0  0
    5.3492    0.2504    0.2604 C   0  0  0  0  0  0  0  0  0  0  0  0
    6.3855    1.1534    0.5207 C   0  0  0  0  0  0  0  0  0  0  0  0
    6.4641    1.7892    1.7616 C   0  0  0  0  0  0  0  0  0  0  0  0
    7.5272    2.7114    2.0340 C   0  0  0  0  0  0  0  0  0  0  0  0
    8.3909    3.4556    2.2496 N   0  0  0  0  0  0  0  0  0  0  0  0
    5.5001    1.5168    2.7353 C   0  0  0  0  0  0  0  0  0  0  0  0
    4.4640    0.6112    2.4723 C   0  0  0  0  0  0  0  0  0  0  0  0
   -0.6521   -1.3995    0.0715 C   0  0  0  0  0  0  0  0  0  0  0  0
   -3.6145    0.0921   -1.4448 N   0  0  0  0  0  0  0  0  0  0  0  0
   -8.0606    0.3770   -1.6455 H   0  0  0  0  0  0  0  0  0  0  0  0
   -7.4436   -0.2695   -0.1165 H   0  0  0  0  0  0  0  0  0  0  0  0
   -6.9649   -1.0150   -1.6477 H   0  0  0  0  0  0  0  0  0  0  0  0
   -5.8042    1.0777   -2.3255 H   0  0  0  0  0  0  0  0  0  0  0  0
   -5.4605    2.9258   -0.7047 H   0  0  0  0  0  0  0  0  0  0  0  0
   -7.1760    2.6981   -1.0752 H   0  0  0  0  0  0  0  0  0  0  0  0
   -6.5156    2.1218    0.4645 H   0  0  0  0  0  0  0  0  0  0  0  0
   -1.4205   -0.2703   -3.0076 H   0  0  0  0  0  0  0  0  0  0  0  0
    0.9206   -0.9537   -3.4386 H   0  0  0  0  0  0  0  0  0  0  0  0
    0.7550   -2.8657    1.6709 H   0  0  0  0  0  0  0  0  0  0  0  0
    2.0808   -3.1893    0.5530 H   0  0  0  0  0  0  0  0  0  0  0  0
    3.4331   -1.3475   -0.0510 H   0  0  0  0  0  0  0  0  0  0  0  0
    5.3084   -0.2312   -0.7148 H   0  0  0  0  0  0  0  0  0  0  0  0
    7.1267    1.3530   -0.2509 H   0  0  0  0  0  0  0  0  0  0  0  0
    5.5432    2.0022    3.7087 H   0  0  0  0  0  0  0  0  0  0  0  0
    3.7396    0.4254    3.2596 H   0  0  0  0  0  0  0  0  0  0  0  0
   -1.0270   -1.5481    1.0826 H   0  0  0  0  0  0  0  0  0  0  0  0
  1  2  1  0
  2  3  1  0
  2  4  1  0
  4  5  2  0
  5  6  1  0
  6  7  1  0
  7  8  1  0
  8  9  1  0
  9 10  2  0
 10 11  1  0
 11 12  2  0
 11 13  1  0
 13 14  1  0
 14 15  1  0
 15 16  2  0
 15 17  1  0
 17 18  1  0
 18 19  2  0
 19 20  1  0
 20 21  2  0
 21 22  1  0
 22 23  3  0
 21 24  1  0
 24 25  2  0
 13 26  1  0
  7 27  2  0
 27  4  1  0
 26  8  2  0
 25 18  1  0
  1 28  1  0
  1 29  1  0
  1 30  1  0
  2 31  1  0
  3 32  1  0
  3 33  1  0
  3 34  1  0
  9 35  1  0
 10 36  1  0
 14 37  1  0
 14 38  1  0
 17 39  1  0
 19 40  1  0
 20 41  1  0
 24 42  1  0
 25 43  1  0
 26 44  1  0
M  END
$$$$
