
     RDKit          3D

 36 37  0  0  0  0  0  0  0  0999 V2000
   -6.0338    0.0480   -1.9362 C   0  0  0  0  0  0  0  0  0  0  0  0
   -4.8242    0.0590   -1.0488 C   0  0  0  0  0  0  0  0  0  0  0  0
   -3.6818   -0.6675   -1.3981 C   0  0  0  0  0  0  0  0  0  0  0  0
   -2.5662   -0.6810   -0.5550 C   0  0  0  0  0  0  0  0  0  0  0  0
   -2.5714    0.0215    0.6590 C   0  0  0  0  0  0  0  0  0  0  0  0
   -1.3912   -0.0125    1.5153 C   0  0  0  0  0  0  0  0  0  0  0  0
   -0.2393   -0.6266    1.3402 N   0  0  0  0  0  0  0  0  0  0  0  0
    0.4570   -0.2662    2.4753 C   0  0  0  0  0  0  0  0  0  0  0  0
    1.8464   -0.7370    2.7451 C   0  0  0  0  0  0  0  0  0  0  0  0
    2.5345   -0.9699    1.4852 N   0  0  0  0  0  0  0  0  0  0  0  0
    3.3961   -0.0323    0.9662 C   0  0  0  0  0  0  0  0  0  0  0  0
    3.7837    0.9511    1.5848 O   0  0  0  0  0  0  0  0  0  0  0  0
    3.8322   -0.3507   -0.4473 C   0  0  0  0  0  0  0  0  0  0  0  0
    4.7920    0.7027   -0.9892 C   0  0  0  0  0  0  0  0  0  0  0  0
    5.2164    0.3736   -2.3971 C   0  0  0  0  0  0  0  0  0  0  0  0
    5.8438   -0.8211   -2.4511 F   0  0  0  0  0  0  0  0  0  0  0  0
    6.0653    1.3067   -2.8770 F   0  0  0  0  0  0  0  0  0  0  0  0
    4.1526    0.3184   -3.2273 F   0  0  0  0  0  0  0  0  0  0  0  0
   -0.2253    0.5032    3.3330 N   0  0  0  0  0  0  0  0  0  0  0  0
   -1.4525    0.6826    2.6921 O   0  0  0  0  0  0  0  0  0  0  0  0
   -3.7260    0.7361    1.0096 C   0  0  0  0  0  0  0  0  0  0  0  0
   -4.8427    0.7502    0.1668 C   0  0  0  0  0  0  0  0  0  0  0  0
   -6.5944    0.9841   -1.8438 H   0  0  0  0  0  0  0  0  0  0  0  0
   -5.7459   -0.0552   -2.9877 H   0  0  0  0  0  0  0  0  0  0  0  0
   -6.6890   -0.7855   -1.6651 H   0  0  0  0  0  0  0  0  0  0  0  0
   -3.6502   -1.2277   -2.3303 H   0  0  0  0  0  0  0  0  0  0  0  0
   -1.6871   -1.2496   -0.8536 H   0  0  0  0  0  0  0  0  0  0  0  0
    2.3967   -0.0176    3.3594 H   0  0  0  0  0  0  0  0  0  0  0  0
    1.8089   -1.6954    3.2723 H   0  0  0  0  0  0  0  0  0  0  0  0
    2.0541   -1.5824    0.8369 H   0  0  0  0  0  0  0  0  0  0  0  0
    4.3134   -1.3357   -0.4447 H   0  0  0  0  0  0  0  0  0  0  0  0
    2.9374   -0.4053   -1.0785 H   0  0  0  0  0  0  0  0  0  0  0  0
    5.6788    0.7691   -0.3481 H   0  0  0  0  0  0  0  0  0  0  0  0
    4.3147    1.6896   -0.9744 H   0  0  0  0  0  0  0  0  0  0  0  0
   -3.7755    1.2914    1.9443 H   0  0  0  0  0  0  0  0  0  0  0  0
   -5.7276    1.3078    0.4675 H   0  0  0  0  0  0  0  0  0  0  0  0
  1  2  1  0
  2  3  2  0
  3  4  1  0
  4  5  2  0
  5  6  1  0
  6  7  2  0
  7  8  1  0
  8  9  1  0
  9 10  1  0
 10 11  1  0
 11 12  2  0
 11 13  1  0
 13 14  1  0
 14 15  1  0
 15 16  1  0
 15 17  1  0
 15 18  1  0
  8 19  2  0
 19 20  1  0
  5 21  1  0
 21 22  2  0
 22  2  1  0
 20  6  1  0
  1 23  1  0
  1 24  1  0
  1 25  1  0
  3 26  1  0
  4 27  1  0
  9 28  1  0
  9 29  1  0
 10 30  1  0
 13 31  1  0
 13 32  1  0
 14 33  1  0
 14 34  1  0
 21 35  1  0
 22 36  1  0
M  END
$$$$
