
     RDKit          3D

 83 84  0  0  0  0  0  0  0  0999 V2000
    0.5205    0.6168    1.2289 C   0  0  0  0  0  0  0  0  0  0  0  0
    0.0381    0.9107   -0.1977 C   0  0  0  0  0  0  0  0  0  0  0  0
   -0.2721   -0.3706   -0.9788 C   0  0  0  0  0  0  0  0  0  0  0  0
    1.3193    1.8835   -1.1799 S   0  0  0  0  0  0  0  0  0  0  0  0
    2.8593    1.1158   -0.7102 C   0  0  0  0  0  0  0  0  0  0  0  0
    3.5808    1.6316    0.3700 C   0  0  0  0  0  0  0  0  0  0  0  0
    4.8112    1.0854    0.7789 C   0  0  0  0  0  0  0  0  0  0  0  0
    5.5360    1.6727    2.0161 C   0  0  0  0  0  0  0  0  0  0  0  0
    4.5685    2.4139    2.9871 C   0  0  0  0  0  0  0  0  0  0  0  0
    6.5782    2.7036    1.5356 C   0  0  0  0  0  0  0  0  0  0  0  0
    6.2282    0.5939    2.8825 C   0  0  0  0  0  0  0  0  0  0  0  0
    5.3170    0.0267   -0.0160 C   0  0  0  0  0  0  0  0  0  0  0  0
    6.5559   -0.4892    0.2515 O   0  0  0  0  0  0  0  0  0  0  0  0
    4.6219   -0.5239   -1.1251 C   0  0  0  0  0  0  0  0  0  0  0  0
    5.2007   -1.6834   -1.9768 C   0  0  0  0  0  0  0  0  0  0  0  0
    6.5358   -1.2649   -2.6338 C   0  0  0  0  0  0  0  0  0  0  0  0
    4.2740   -2.1253   -3.1415 C   0  0  0  0  0  0  0  0  0  0  0  0
    5.4155   -2.9403   -1.1016 C   0  0  0  0  0  0  0  0  0  0  0  0
    3.3821    0.0557   -1.4506 C   0  0  0  0  0  0  0  0  0  0  0  0
   -1.4122    2.1067   -0.0780 S   0  0  0  0  0  0  0  0  0  0  0  0
   -2.8963    1.1099   -0.0391 C   0  0  0  0  0  0  0  0  0  0  0  0
   -3.0878    0.0320    0.8220 C   0  0  0  0  0  0  0  0  0  0  0  0
   -4.3002   -0.6841    0.8708 C   0  0  0  0  0  0  0  0  0  0  0  0
   -4.4510   -1.9168    1.8013 C   0  0  0  0  0  0  0  0  0  0  0  0
   -4.9226   -3.1527    0.9968 C   0  0  0  0  0  0  0  0  0  0  0  0
   -3.1214   -2.3476    2.4804 C   0  0  0  0  0  0  0  0  0  0  0  0
   -5.4488   -1.6116    2.9425 C   0  0  0  0  0  0  0  0  0  0  0  0
   -5.3586   -0.2089    0.0550 C   0  0  0  0  0  0  0  0  0  0  0  0
   -6.5722   -0.8197    0.2153 O   0  0  0  0  0  0  0  0  0  0  0  0
   -5.2176    0.8689   -0.8511 C   0  0  0  0  0  0  0  0  0  0  0  0
   -6.3448    1.3691   -1.7940 C   0  0  0  0  0  0  0  0  0  0  0  0
   -7.1506    0.2100   -2.4319 C   0  0  0  0  0  0  0  0  0  0  0  0
   -5.8092    2.1994   -2.9953 C   0  0  0  0  0  0  0  0  0  0  0  0
   -7.2978    2.2926   -1.0057 C   0  0  0  0  0  0  0  0  0  0  0  0
   -3.9605    1.5139   -0.8562 C   0  0  0  0  0  0  0  0  0  0  0  0
    1.3468   -0.1090    1.2375 H   0  0  0  0  0  0  0  0  0  0  0  0
   -0.2615    0.1722    1.8520 H   0  0  0  0  0  0  0  0  0  0  0  0
    0.8587    1.5251    1.7425 H   0  0  0  0  0  0  0  0  0  0  0  0
   -0.9676   -1.0151   -0.4355 H   0  0  0  0  0  0  0  0  0  0  0  0
    0.6303   -0.9751   -1.1359 H   0  0  0  0  0  0  0  0  0  0  0  0
   -0.7094   -0.1634   -1.9631 H   0  0  0  0  0  0  0  0  0  0  0  0
    3.1511    2.4864    0.8854 H   0  0  0  0  0  0  0  0  0  0  0  0
    4.1416    3.3215    2.5397 H   0  0  0  0  0  0  0  0  0  0  0  0
    5.0949    2.7508    3.8880 H   0  0  0  0  0  0  0  0  0  0  0  0
    3.7427    1.7626    3.3021 H   0  0  0  0  0  0  0  0  0  0  0  0
    7.1630    3.1020    2.3696 H   0  0  0  0  0  0  0  0  0  0  0  0
    7.2800    2.2849    0.8126 H   0  0  0  0  0  0  0  0  0  0  0  0
    6.0836    3.5490    1.0450 H   0  0  0  0  0  0  0  0  0  0  0  0
    6.5066    0.9947    3.8670 H   0  0  0  0  0  0  0  0  0  0  0  0
    5.5725   -0.2676    3.0570 H   0  0  0  0  0  0  0  0  0  0  0  0
    7.1573    0.2280    2.4427 H   0  0  0  0  0  0  0  0  0  0  0  0
    7.1659    0.2632    0.3435 H   0  0  0  0  0  0  0  0  0  0  0  0
    7.3370   -1.0978   -1.9083 H   0  0  0  0  0  0  0  0  0  0  0  0
    6.8978   -2.0411   -3.3180 H   0  0  0  0  0  0  0  0  0  0  0  0
    6.4148   -0.3380   -3.2105 H   0  0  0  0  0  0  0  0  0  0  0  0
    4.7210   -2.9492   -3.7117 H   0  0  0  0  0  0  0  0  0  0  0  0
    4.0926   -1.3096   -3.8515 H   0  0  0  0  0  0  0  0  0  0  0  0
    3.3057   -2.4859   -2.7753 H   0  0  0  0  0  0  0  0  0  0  0  0
    6.1596   -2.7949   -0.3103 H   0  0  0  0  0  0  0  0  0  0  0  0
    5.7616   -3.7856   -1.7102 H   0  0  0  0  0  0  0  0  0  0  0  0
    4.4789   -3.2411   -0.6135 H   0  0  0  0  0  0  0  0  0  0  0  0
    2.8077   -0.2908   -2.3062 H   0  0  0  0  0  0  0  0  0  0  0  0
   -2.2783   -0.2391    1.4845 H   0  0  0  0  0  0  0  0  0  0  0  0
   -4.9090   -4.0586    1.6141 H   0  0  0  0  0  0  0  0  0  0  0  0
   -5.9437   -3.0626    0.6168 H   0  0  0  0  0  0  0  0  0  0  0  0
   -4.2686   -3.3377    0.1367 H   0  0  0  0  0  0  0  0  0  0  0  0
   -2.7466   -1.5767    3.1643 H   0  0  0  0  0  0  0  0  0  0  0  0
   -2.3425   -2.5628    1.7376 H   0  0  0  0  0  0  0  0  0  0  0  0
   -3.2614   -3.2573    3.0777 H   0  0  0  0  0  0  0  0  0  0  0  0
   -5.1241   -0.7358    3.5189 H   0  0  0  0  0  0  0  0  0  0  0  0
   -6.4641   -1.4136    2.5807 H   0  0  0  0  0  0  0  0  0  0  0  0
   -5.5185   -2.4582    3.6370 H   0  0  0  0  0  0  0  0  0  0  0  0
   -7.2382   -0.1194    0.2939 H   0  0  0  0  0  0  0  0  0  0  0  0
   -6.4807   -0.5374   -2.8777 H   0  0  0  0  0  0  0  0  0  0  0  0
   -7.8170    0.5812   -3.2241 H   0  0  0  0  0  0  0  0  0  0  0  0
   -7.7998   -0.3092   -1.7175 H   0  0  0  0  0  0  0  0  0  0  0  0
   -5.0620    1.6348   -3.5650 H   0  0  0  0  0  0  0  0  0  0  0  0
   -6.6193    2.4589   -3.6906 H   0  0  0  0  0  0  0  0  0  0  0  0
   -5.3649    3.1502   -2.6794 H   0  0  0  0  0  0  0  0  0  0  0  0
   -6.7581    3.1558   -0.5942 H   0  0  0  0  0  0  0  0  0  0  0  0
   -7.7783    1.7801   -0.1682 H   0  0  0  0  0  0  0  0  0  0  0  0
   -8.0895    2.6811   -1.6554 H   0  0  0  0  0  0  0  0  0  0  0  0
   -3.7879    2.3764   -1.4962 H   0  0  0  0  0  0  0  0  0  0  0  0
  1  2  1  0
  2  3  1  0
  2  4  1  0
  4  5  1  0
  5  6  2  0
  6  7  1  0
  7  8  1  0
  8  9  1  0
  8 10  1  0
  8 11  1  0
  7 12  2  0
 12 13  1  0
 12 14  1  0
 14 15  1  0
 15 16  1  0
 15 17  1  0
 15 18  1  0
 14 19  2  0
  2 20  1  0
 20 21  1  0
 21 22  2  0
 22 23  1  0
 23 24  1  0
 24 25  1  0
 24 26  1  0
 24 27  1  0
 23 28  2  0
 28 29  1  0
 28 30  1  0
 30 31  1  0
 31 32  1  0
 31 33  1  0
 31 34  1  0
 30 35  2  0
 19  5  1  0
 35 21  1  0
  1 36  1  0
  1 37  1  0
  1 38  1  0
  3 39  1  0
  3 40  1  0
  3 41  1  0
  6 42  1  0
  9 43  1  0
  9 44  1  0
  9 45  1  0
 10 46  1  0
 10 47  1  0
 10 48  1  0
 11 49  1  0
 11 50  1  0
 11 51  1  0
 13 52  1  0
 16 53  1  0
 16 54  1  0
 16 55  1  0
 17 56  1  0
 17 57  1  0
 17 58  1  0
 18 59  1  0
 18 60  1  0
 18 61  1  0
 19 62  1  0
 22 63  1  0
 25 64  1  0
 25 65  1  0
 25 66  1  0
 26 67  1  0
 26 68  1  0
 26 69  1  0
 27 70  1  0
 27 71  1  0
 27 72  1  0
 29 73  1  0
 32 74  1  0
 32 75  1  0
 32 76  1  0
 33 77  1  0
 33 78  1  0
 33 79  1  0
 34 80  1  0
 34 81  1  0
 34 82  1  0
 35 83  1  0
M  END
$$$$
