
     RDKit          3D

 53 55  0  0  0  0  0  0  0  0999 V2000
    0.6873    0.0000    0.0000 Cl  0  0  0  0  0  0  0  0  0  0  0  0
    4.5066   -2.5135   -1.6172 N   0  0  0  0  0  0  0  0  0  0  0  0
    3.3359   -1.9174   -1.5266 C   0  0  0  0  0  0  0  0  0  0  0  0
    1.8563   -1.1851   -1.3905 C   0  0  0  0  0  0  0  0  0  0  0  0
    2.0926   -0.0126   -0.8203 C   0  0  0  0  0  0  0  0  0  0  0  0
    3.2791    0.7247   -0.6996 C   0  0  0  0  0  0  0  0  0  0  0  0
    3.3478    2.1849   -0.5617 C   0  0  0  0  0  0  0  0  0  0  0  0
    4.8074    2.6065   -0.2761 C   0  0  0  0  0  0  0  0  0  0  0  0
    5.7229    1.4656   -0.2203 N   0  0  0  0  0  0  0  0  0  0  0  0
    5.2690    0.5454    0.8355 C   0  0  0  0  0  0  0  0  0  0  0  0
    3.8710    0.1324    0.6594 C   0  0  0  0  0  0  0  0  0  0  0  0
    0.8672    0.1983    0.0003 C   0  0  0  0  0  0  0  0  0  0  0  0
   -0.1505   -0.7743    0.0036 C   0  0  0  0  0  0  0  0  0  0  0  0
   -1.3572   -0.7728    0.8491 C   0  0  0  0  0  0  0  0  0  0  0  0
   -1.2846   -1.7305    1.9227 C   0  0  0  0  0  0  0  0  0  0  0  0
   -0.1279   -2.3806    2.1633 O   0  0  0  0  0  0  0  0  0  0  0  0
   -2.4217   -1.9511    2.6545 C   0  0  0  0  0  0  0  0  0  0  0  0
   -3.5428   -1.3241    2.4335 C   0  0  0  0  0  0  0  0  0  0  0  0
   -3.6471   -0.3760    1.3918 C   0  0  0  0  0  0  0  0  0  0  0  0
   -2.5007   -0.1258    0.6032 C   0  0  0  0  0  0  0  0  0  0  0  0
   -2.6886    0.7800   -0.4125 O   0  0  0  0  0  0  0  0  0  0  0  0
   -3.9158    1.4627   -0.6798 C   0  0  0  0  0  0  0  0  0  0  0  0
   -5.1087    0.5976   -0.8779 C   0  0  0  0  0  0  0  0  0  0  0  0
   -6.4233    1.1182   -1.3402 C   0  0  0  0  0  0  0  0  0  0  0  0
   -6.2964    0.9323    0.1263 C   0  0  0  0  0  0  0  0  0  0  0  0
   -0.0681   -1.9303   -0.7614 N   0  0  0  0  0  0  0  0  0  0  0  0
    1.1164   -2.1341   -1.5715 C   0  0  0  0  0  0  0  0  0  0  0  0
    1.1812   -3.3579   -2.2310 N   0  0  0  0  0  0  0  0  0  0  0  0
   -0.6873    0.0000    0.0000 H   0  0  0  0  0  0  0  0  0  0  0  0
    4.0272    0.4061   -1.4682 H   0  0  0  0  0  0  0  0  0  0  0  0
    3.1036    2.7383   -1.5454 H   0  0  0  0  0  0  0  0  0  0  0  0
    2.6953    2.6940    0.1488 H   0  0  0  0  0  0  0  0  0  0  0  0
    5.2212    3.2615   -1.0966 H   0  0  0  0  0  0  0  0  0  0  0  0
    4.9158    3.1406    0.6810 H   0  0  0  0  0  0  0  0  0  0  0  0
    6.6201    1.8681    0.1515 H   0  0  0  0  0  0  0  0  0  0  0  0
    5.4489    1.1146    1.7984 H   0  0  0  0  0  0  0  0  0  0  0  0
    5.9471   -0.3302    0.8104 H   0  0  0  0  0  0  0  0  0  0  0  0
    3.2451    0.6437    1.4163 H   0  0  0  0  0  0  0  0  0  0  0  0
    3.6676   -0.9461    0.6140 H   0  0  0  0  0  0  0  0  0  0  0  0
    0.8048    1.0480    0.6099 H   0  0  0  0  0  0  0  0  0  0  0  0
    0.7129   -2.2559    1.5986 H   0  0  0  0  0  0  0  0  0  0  0  0
   -2.3656   -2.7252    3.4995 H   0  0  0  0  0  0  0  0  0  0  0  0
   -4.5018   -1.4834    2.9842 H   0  0  0  0  0  0  0  0  0  0  0  0
   -4.5096    0.1399    1.2600 H   0  0  0  0  0  0  0  0  0  0  0  0
   -3.8034    2.0960   -1.5653 H   0  0  0  0  0  0  0  0  0  0  0  0
   -4.0168    2.1884    0.1909 H   0  0  0  0  0  0  0  0  0  0  0  0
   -4.9674   -0.5143   -0.9412 H   0  0  0  0  0  0  0  0  0  0  0  0
   -6.5776    2.1659   -1.6758 H   0  0  0  0  0  0  0  0  0  0  0  0
   -7.1305    0.3769   -1.8225 H   0  0  0  0  0  0  0  0  0  0  0  0
   -6.7540    0.0613    0.6193 H   0  0  0  0  0  0  0  0  0  0  0  0
   -6.0069    1.7625    0.8002 H   0  0  0  0  0  0  0  0  0  0  0  0
    0.5367   -3.6897   -2.9498 H   0  0  0  0  0  0  0  0  0  0  0  0
    1.9671   -4.0237   -1.9393 H   0  0  0  0  0  0  0  0  0  0  0  0
  2  3  3  0
  3  4  1  0
  4  5  2  0
  5  6  1  0
  6  7  1  0
  7  8  1  0
  8  9  1  0
  9 10  1  0
 10 11  1  0
  5 12  1  0
 12 13  2  0
 13 14  1  0
 14 15  2  0
 15 16  1  0
 15 17  1  0
 17 18  2  0
 18 19  1  0
 19 20  2  0
 20 21  1  0
 21 22  1  0
 22 23  1  0
 23 24  1  0
 24 25  1  0
 13 26  1  0
 26 27  2  0
 27 28  1  0
 27  4  1  0
 11  6  1  0
 20 14  1  0
 25 23  1  0
  1 29  1  0
  6 30  1  0
  7 31  1  0
  7 32  1  0
  8 33  1  0
  8 34  1  0
  9 35  1  0
 10 36  1  0
 10 37  1  0
 11 38  1  0
 11 39  1  0
 12 40  1  0
 16 41  1  0
 17 42  1  0
 18 43  1  0
 19 44  1  0
 22 45  1  0
 22 46  1  0
 23 47  1  0
 24 48  1  0
 24 49  1  0
 25 50  1  0
 25 51  1  0
 28 52  1  0
 28 53  1  0
M  END
$$$$
