
     RDKit          3D

 49 52  0  0  0  0  0  0  0  0999 V2000
   -8.3291    1.0106    1.5309 C   0  0  0  0  0  0  0  0  0  0  0  0
   -6.9385    1.1462    1.2795 O   0  0  0  0  0  0  0  0  0  0  0  0
   -6.2635    0.0394    0.8348 C   0  0  0  0  0  0  0  0  0  0  0  0
   -6.8491   -1.1998    0.5662 C   0  0  0  0  0  0  0  0  0  0  0  0
   -6.0684   -2.2666    0.1140 C   0  0  0  0  0  0  0  0  0  0  0  0
   -4.6950   -2.1066   -0.0733 C   0  0  0  0  0  0  0  0  0  0  0  0
   -4.0806   -0.8716    0.1782 C   0  0  0  0  0  0  0  0  0  0  0  0
   -2.5816   -0.7421    0.0315 C   0  0  0  0  0  0  0  0  0  0  0  0
   -2.2660    0.5115   -0.6605 N   0  0  0  0  0  0  0  0  0  0  0  0
   -0.9190    0.8385   -0.8791 C   0  0  0  0  0  0  0  0  0  0  0  0
   -0.6151    1.7449   -1.9091 C   0  0  0  0  0  0  0  0  0  0  0  0
    0.6962    2.1714   -2.1448 C   0  0  0  0  0  0  0  0  0  0  0  0
    1.7227    1.7082   -1.3238 C   0  0  0  0  0  0  0  0  0  0  0  0
    3.3928    2.2444   -1.5845 S   0  0  0  0  0  6  0  0  0  0  0  0
    3.3873    3.2017   -2.6736 O   0  0  0  0  0  0  0  0  0  0  0  0
    3.9669    2.5898   -0.3030 O   0  0  0  0  0  0  0  0  0  0  0  0
    4.0970    0.8586   -2.2344 N   0  0  0  0  0  0  0  0  0  0  0  0
    5.0739    0.2668   -1.3492 C   0  0  0  0  0  0  0  0  0  0  0  0
    4.6957   -0.4457   -0.3206 N   0  0  0  0  0  0  0  0  0  0  0  0
    5.8180   -0.9144    0.3426 C   0  0  0  0  0  0  0  0  0  0  0  0
    5.8210   -1.6861    1.5222 C   0  0  0  0  0  0  0  0  0  0  0  0
    7.0351   -2.0967    2.0822 C   0  0  0  0  0  0  0  0  0  0  0  0
    8.2423   -1.7522    1.4811 C   0  0  0  0  0  0  0  0  0  0  0  0
    8.2677   -0.9906    0.3089 C   0  0  0  0  0  0  0  0  0  0  0  0
    7.0430   -0.5801   -0.2433 C   0  0  0  0  0  0  0  0  0  0  0  0
    6.7453    0.3535   -1.6615 S   0  0  0  0  0  0  0  0  0  0  0  0
    1.4405    0.8535   -0.2583 C   0  0  0  0  0  0  0  0  0  0  0  0
    0.1241    0.4325   -0.0359 C   0  0  0  0  0  0  0  0  0  0  0  0
   -4.8816    0.1919    0.6343 C   0  0  0  0  0  0  0  0  0  0  0  0
   -4.3176    1.4200    0.8894 O   0  0  0  0  0  0  0  0  0  0  0  0
   -8.5227    0.2548    2.2993 H   0  0  0  0  0  0  0  0  0  0  0  0
   -8.8750    0.7874    0.6088 H   0  0  0  0  0  0  0  0  0  0  0  0
   -8.6958    1.9695    1.9096 H   0  0  0  0  0  0  0  0  0  0  0  0
   -7.9119   -1.3691    0.6994 H   0  0  0  0  0  0  0  0  0  0  0  0
   -6.5343   -3.2286   -0.0864 H   0  0  0  0  0  0  0  0  0  0  0  0
   -4.1078   -2.9579   -0.4119 H   0  0  0  0  0  0  0  0  0  0  0  0
   -2.1542   -0.7651    1.0399 H   0  0  0  0  0  0  0  0  0  0  0  0
   -2.1788   -1.5846   -0.5423 H   0  0  0  0  0  0  0  0  0  0  0  0
   -2.7914    0.5764   -1.5350 H   0  0  0  0  0  0  0  0  0  0  0  0
   -1.4090    2.1355   -2.5437 H   0  0  0  0  0  0  0  0  0  0  0  0
    0.8954    2.8678   -2.9563 H   0  0  0  0  0  0  0  0  0  0  0  0
    4.4702    1.0839   -3.1530 H   0  0  0  0  0  0  0  0  0  0  0  0
    4.8791   -1.9523    1.9916 H   0  0  0  0  0  0  0  0  0  0  0  0
    7.0335   -2.6873    2.9951 H   0  0  0  0  0  0  0  0  0  0  0  0
    9.1786   -2.0776    1.9289 H   0  0  0  0  0  0  0  0  0  0  0  0
    9.2098   -0.7224   -0.1594 H   0  0  0  0  0  0  0  0  0  0  0  0
    2.2336    0.5177    0.4084 H   0  0  0  0  0  0  0  0  0  0  0  0
   -0.0572   -0.2108    0.8203 H   0  0  0  0  0  0  0  0  0  0  0  0
   -3.4264    1.4320    0.4795 H   0  0  0  0  0  0  0  0  0  0  0  0
  1  2  1  0
  2  3  1  0
  3  4  2  0
  4  5  1  0
  5  6  2  0
  6  7  1  0
  7  8  1  0
  8  9  1  0
  9 10  1  0
 10 11  2  0
 11 12  1  0
 12 13  2  0
 13 14  1  0
 14 15  2  0
 14 16  2  0
 14 17  1  0
 17 18  1  0
 18 19  2  0
 19 20  1  0
 20 21  2  0
 21 22  1  0
 22 23  2  0
 23 24  1  0
 24 25  2  0
 25 26  1  0
 13 27  1  0
 27 28  2  0
  7 29  2  0
 29 30  1  0
 29  3  1  0
 28 10  1  0
 26 18  1  0
 25 20  1  0
  1 31  1  0
  1 32  1  0
  1 33  1  0
  4 34  1  0
  5 35  1  0
  6 36  1  0
  8 37  1  0
  8 38  1  0
  9 39  1  0
 11 40  1  0
 12 41  1  0
 17 42  1  0
 21 43  1  0
 22 44  1  0
 23 45  1  0
 24 46  1  0
 27 47  1  0
 28 48  1  0
 30 49  1  0
M  END
$$$$
