
     RDKit          3D

 34 36  0  0  0  0  0  0  0  0999 V2000
   -6.1021    0.8120    0.0738 C   0  0  0  0  0  0  0  0  0  0  0  0
   -4.6987    0.2842    0.0008 C   0  0  0  0  0  0  0  0  0  0  0  0
   -4.3601   -0.6956   -0.9413 C   0  0  0  0  0  0  0  0  0  0  0  0
   -3.0650   -1.2144   -0.9866 C   0  0  0  0  0  0  0  0  0  0  0  0
   -2.0971   -0.7504   -0.0903 C   0  0  0  0  0  0  0  0  0  0  0  0
   -0.7362   -1.3249   -0.1542 C   0  0  0  0  0  0  0  0  0  0  0  0
   -0.6545   -2.5533   -0.2054 O   0  0  0  0  0  0  0  0  0  0  0  0
    0.4526   -0.5709   -0.1757 N   0  0  0  0  0  0  0  0  0  0  0  0
    1.6574   -1.1842    0.0051 N   0  0  0  0  0  0  0  0  0  0  0  0
    2.5199   -0.1628    0.0013 C   0  0  0  0  0  0  0  0  0  0  0  0
    3.9520   -0.3114    0.2025 C   0  0  0  0  0  0  0  0  0  0  0  0
    4.8065    0.7955    0.1982 C   0  0  0  0  0  0  0  0  0  0  0  0
    6.1753    0.6187    0.3948 C   0  0  0  0  0  0  0  0  0  0  0  0
    6.6503   -0.6675    0.5910 C   0  0  0  0  0  0  0  0  0  0  0  0
    5.8620   -1.7629    0.6028 N   0  0  0  0  0  0  0  0  0  0  0  0
    4.5327   -1.5591    0.4084 C   0  0  0  0  0  0  0  0  0  0  0  0
    1.9381    1.0607   -0.2240 N   0  0  0  0  0  0  0  0  0  0  0  0
    0.6658    0.7918   -0.3734 C   0  0  0  0  0  0  0  0  0  0  0  0
   -0.2692    1.7098   -0.7007 N   0  0  0  0  0  0  0  0  0  0  0  0
   -2.4361    0.1961    0.8810 C   0  0  0  0  0  0  0  0  0  0  0  0
   -3.7331    0.7128    0.9212 C   0  0  0  0  0  0  0  0  0  0  0  0
   -6.5698    0.8151   -0.9163 H   0  0  0  0  0  0  0  0  0  0  0  0
   -6.1121    1.8438    0.4407 H   0  0  0  0  0  0  0  0  0  0  0  0
   -6.7009    0.1907    0.7468 H   0  0  0  0  0  0  0  0  0  0  0  0
   -5.1077   -1.0689   -1.6388 H   0  0  0  0  0  0  0  0  0  0  0  0
   -2.8184   -1.9870   -1.7128 H   0  0  0  0  0  0  0  0  0  0  0  0
    4.4111    1.7967    0.0427 H   0  0  0  0  0  0  0  0  0  0  0  0
    6.8531    1.4649    0.3950 H   0  0  0  0  0  0  0  0  0  0  0  0
    7.7083   -0.8566    0.7486 H   0  0  0  0  0  0  0  0  0  0  0  0
    3.9318   -2.4660    0.4245 H   0  0  0  0  0  0  0  0  0  0  0  0
    0.1120    2.6091   -0.9896 H   0  0  0  0  0  0  0  0  0  0  0  0
   -1.0694    1.4513   -1.2722 H   0  0  0  0  0  0  0  0  0  0  0  0
   -1.7088    0.5353    1.6154 H   0  0  0  0  0  0  0  0  0  0  0  0
   -3.9897    1.4475    1.6825 H   0  0  0  0  0  0  0  0  0  0  0  0
  1  2  1  0
  2  3  2  0
  3  4  1  0
  4  5  2  0
  5  6  1  0
  6  7  2  0
  6  8  1  0
  8  9  1  0
  9 10  2  0
 10 11  1  0
 11 12  2  0
 12 13  1  0
 13 14  2  0
 14 15  1  0
 15 16  2  0
 10 17  1  0
 17 18  2  0
 18 19  1  0
  5 20  1  0
 20 21  2  0
 21  2  1  0
 18  8  1  0
 16 11  1  0
  1 22  1  0
  1 23  1  0
  1 24  1  0
  3 25  1  0
  4 26  1  0
 12 27  1  0
 13 28  1  0
 14 29  1  0
 16 30  1  0
 19 31  1  0
 19 32  1  0
 20 33  1  0
 21 34  1  0
M  END
$$$$
