
     RDKit          3D

 42 44  0  0  0  0  0  0  0  0999 V2000
    4.8344    2.7314    1.4012 C   0  0  0  0  0  0  0  0  0  0  0  0
    4.2234    2.2831    0.0851 C   0  0  0  0  0  0  0  0  0  0  0  0
    4.0851    0.8638    0.0503 O   0  0  0  0  0  0  0  0  0  0  0  0
    2.9231    0.3003    0.4933 C   0  0  0  0  0  0  0  0  0  0  0  0
    2.8227   -1.0744    0.2646 C   0  0  0  0  0  0  0  0  0  0  0  0
    1.6899   -1.7872    0.6659 C   0  0  0  0  0  0  0  0  0  0  0  0
    0.6408   -1.1248    1.2963 C   0  0  0  0  0  0  0  0  0  0  0  0
   -0.5371   -1.8175    1.7113 N   0  0  0  0  0  0  0  0  0  0  0  0
   -1.4793   -2.5673    0.5229 S   0  0  0  0  0  6  0  0  0  0  0  0
   -2.7150   -2.9691    1.1576 O   0  0  0  0  0  0  0  0  0  0  0  0
   -0.6779   -3.5075   -0.2274 O   0  0  0  0  0  0  0  0  0  0  0  0
   -1.9661   -1.3576   -0.6283 C   0  0  0  0  0  0  0  0  0  0  0  0
   -1.9676   -1.2789   -2.0240 C   0  0  0  0  0  0  0  0  0  0  0  0
   -1.4865   -2.3113   -2.9925 C   0  0  0  0  0  0  0  0  0  0  0  0
   -1.8111   -2.0003   -4.4456 C   0  0  0  0  0  0  0  0  0  0  0  0
   -2.4889   -0.0681   -2.4626 N   0  0  0  0  0  0  0  0  0  0  0  0
   -2.7941    0.5367   -1.3531 C   0  0  0  0  0  0  0  0  0  0  0  0
   -3.4726    2.0513   -0.9381 S   0  0  0  0  0  0  0  0  0  0  0  0
   -3.2689    1.5479    0.7517 C   0  0  0  0  0  0  0  0  0  0  0  0
   -3.7003    2.4986    1.8167 C   0  0  0  0  0  0  0  0  0  0  0  0
   -2.7399    0.3790    0.9917 N   0  0  0  0  0  0  0  0  0  0  0  0
   -2.5004   -0.1696   -0.2337 N   0  0  0  0  0  0  0  0  0  0  0  0
    0.7453    0.2435    1.5522 C   0  0  0  0  0  0  0  0  0  0  0  0
    1.8814    0.9555    1.1482 C   0  0  0  0  0  0  0  0  0  0  0  0
    5.7906    2.2254    1.5713 H   0  0  0  0  0  0  0  0  0  0  0  0
    4.1891    2.4810    2.2484 H   0  0  0  0  0  0  0  0  0  0  0  0
    5.0042    3.8119    1.4002 H   0  0  0  0  0  0  0  0  0  0  0  0
    3.2859    2.8037   -0.1396 H   0  0  0  0  0  0  0  0  0  0  0  0
    4.9141    2.5467   -0.7239 H   0  0  0  0  0  0  0  0  0  0  0  0
    3.6369   -1.5992   -0.2304 H   0  0  0  0  0  0  0  0  0  0  0  0
    1.6509   -2.8588    0.4883 H   0  0  0  0  0  0  0  0  0  0  0  0
   -1.1508   -1.3014    2.3442 H   0  0  0  0  0  0  0  0  0  0  0  0
   -1.9349   -3.2781   -2.7352 H   0  0  0  0  0  0  0  0  0  0  0  0
   -0.4004   -2.4158   -2.8862 H   0  0  0  0  0  0  0  0  0  0  0  0
   -1.4447   -2.8015   -5.0952 H   0  0  0  0  0  0  0  0  0  0  0  0
   -1.3409   -1.0644   -4.7658 H   0  0  0  0  0  0  0  0  0  0  0  0
   -2.8916   -1.9064   -4.5985 H   0  0  0  0  0  0  0  0  0  0  0  0
   -3.1093    3.4167    1.7546 H   0  0  0  0  0  0  0  0  0  0  0  0
   -3.5539    2.0499    2.8031 H   0  0  0  0  0  0  0  0  0  0  0  0
   -4.7589    2.7432    1.6925 H   0  0  0  0  0  0  0  0  0  0  0  0
   -0.0504    0.7743    2.0672 H   0  0  0  0  0  0  0  0  0  0  0  0
    1.9238    2.0155    1.3731 H   0  0  0  0  0  0  0  0  0  0  0  0
  1  2  1  0
  2  3  1  0
  3  4  1  0
  4  5  2  0
  5  6  1  0
  6  7  2  0
  7  8  1  0
  8  9  1  0
  9 10  2  0
  9 11  2  0
  9 12  1  0
 12 13  2  0
 13 14  1  0
 14 15  1  0
 13 16  1  0
 16 17  2  0
 17 18  1  0
 18 19  1  0
 19 20  1  0
 19 21  2  0
 21 22  1  0
  7 23  1  0
 23 24  2  0
 24  4  1  0
 22 12  1  0
 22 17  1  0
  1 25  1  0
  1 26  1  0
  1 27  1  0
  2 28  1  0
  2 29  1  0
  5 30  1  0
  6 31  1  0
  8 32  1  0
 14 33  1  0
 14 34  1  0
 15 35  1  0
 15 36  1  0
 15 37  1  0
 20 38  1  0
 20 39  1  0
 20 40  1  0
 23 41  1  0
 24 42  1  0
M  END
$$$$
