
     RDKit          3D

 50 53  0  0  0  0  0  0  0  0999 V2000
   -3.2137    2.7209    0.6689 C   0  0  0  0  0  0  0  0  0  0  0  0
   -2.9308    1.2627    0.4318 C   0  0  0  0  0  0  0  0  0  0  0  0
   -3.1667    0.3705    1.4976 C   0  0  0  0  0  0  0  0  0  0  0  0
   -2.9776   -1.0032    1.3403 C   0  0  0  0  0  0  0  0  0  0  0  0
   -2.5682   -1.5185    0.1142 C   0  0  0  0  0  0  0  0  0  0  0  0
   -2.3270   -0.6571   -0.9496 C   0  0  0  0  0  0  0  0  0  0  0  0
   -2.4792    0.7324   -0.7948 C   0  0  0  0  0  0  0  0  0  0  0  0
   -2.1134    1.7363   -2.2391 S   0  0  0  0  0  6  0  0  0  0  0  0
   -2.4180    0.9327   -3.4055 O   0  0  0  0  0  0  0  0  0  0  0  0
   -2.7125    3.0414   -2.0697 O   0  0  0  0  0  0  0  0  0  0  0  0
   -0.4331    1.9229   -2.1638 N   0  0  0  0  0  0  0  0  0  0  0  0
    0.1195    2.8344   -1.1243 C   0  0  0  0  0  0  0  0  0  0  0  0
    1.6520    2.7910   -1.0964 C   0  0  0  0  0  0  0  0  0  0  0  0
    2.1464    1.4357   -0.8313 N   0  0  0  0  0  0  0  0  0  0  0  0
    3.2328    1.2757    0.0169 C   0  0  0  0  0  0  0  0  0  0  0  0
    3.8338    2.2013    0.5541 O   0  0  0  0  0  0  0  0  0  0  0  0
    3.6876   -0.0953    0.3129 C   0  0  0  0  0  0  0  0  0  0  0  0
    3.3223   -0.6890    1.5253 C   0  0  0  0  0  0  0  0  0  0  0  0
    3.7755   -1.9761    1.8220 C   0  0  0  0  0  0  0  0  0  0  0  0
    4.5847   -2.6529    0.9068 C   0  0  0  0  0  0  0  0  0  0  0  0
    5.1468   -4.2382    1.2759 Cl  0  0  0  0  0  0  0  0  0  0  0  0
    4.9613   -2.0498   -0.2958 C   0  0  0  0  0  0  0  0  0  0  0  0
    4.5166   -0.7616   -0.5937 C   0  0  0  0  0  0  0  0  0  0  0  0
    1.3493    0.3334   -1.3862 C   0  0  0  0  0  0  0  0  0  0  0  0
    0.4394    0.7769   -2.5396 C   0  0  0  0  0  0  0  0  0  0  0  0
   -2.3259   -2.8436   -0.1122 O   0  0  0  0  0  0  0  0  0  0  0  0
   -2.8539   -3.7178    0.8758 C   0  0  0  0  0  0  0  0  0  0  0  0
   -3.0632   -3.2107    2.3005 C   0  0  0  0  0  0  0  0  0  0  0  0
   -3.1791   -3.9548    3.2703 O   0  0  0  0  0  0  0  0  0  0  0  0
   -3.1740   -1.8534    2.4248 N   0  0  0  0  0  0  0  0  0  0  0  0
   -3.4464    2.9154    1.7203 H   0  0  0  0  0  0  0  0  0  0  0  0
   -4.0849    3.0380    0.0863 H   0  0  0  0  0  0  0  0  0  0  0  0
   -2.3470    3.3412    0.4281 H   0  0  0  0  0  0  0  0  0  0  0  0
   -3.5066    0.7572    2.4564 H   0  0  0  0  0  0  0  0  0  0  0  0
   -2.0224   -1.0799   -1.9057 H   0  0  0  0  0  0  0  0  0  0  0  0
   -0.2533    2.5364   -0.1390 H   0  0  0  0  0  0  0  0  0  0  0  0
   -0.2070    3.8582   -1.3338 H   0  0  0  0  0  0  0  0  0  0  0  0
    2.0602    3.0941   -2.0678 H   0  0  0  0  0  0  0  0  0  0  0  0
    2.0282    3.4935   -0.3460 H   0  0  0  0  0  0  0  0  0  0  0  0
    2.7078   -0.1455    2.2411 H   0  0  0  0  0  0  0  0  0  0  0  0
    3.5159   -2.4389    2.7701 H   0  0  0  0  0  0  0  0  0  0  0  0
    5.6069   -2.5751   -0.9960 H   0  0  0  0  0  0  0  0  0  0  0  0
    4.8244   -0.2757   -1.5189 H   0  0  0  0  0  0  0  0  0  0  0  0
    2.0109   -0.4658   -1.7328 H   0  0  0  0  0  0  0  0  0  0  0  0
    0.7478   -0.0660   -0.5610 H   0  0  0  0  0  0  0  0  0  0  0  0
   -0.1401   -0.0798   -2.8924 H   0  0  0  0  0  0  0  0  0  0  0  0
    1.0535    1.1042   -3.3888 H   0  0  0  0  0  0  0  0  0  0  0  0
   -2.1719   -4.5735    0.9362 H   0  0  0  0  0  0  0  0  0  0  0  0
   -3.8212   -4.0897    0.5161 H   0  0  0  0  0  0  0  0  0  0  0  0
   -3.3864   -1.4946    3.3469 H   0  0  0  0  0  0  0  0  0  0  0  0
  1  2  1  0
  2  3  2  0
  3  4  1  0
  4  5  2  0
  5  6  1  0
  6  7  2  0
  7  8  1  0
  8  9  2  0
  8 10  2  0
  8 11  1  0
 11 12  1  0
 12 13  1  0
 13 14  1  0
 14 15  1  0
 15 16  2  0
 15 17  1  0
 17 18  2  0
 18 19  1  0
 19 20  2  0
 20 21  1  0
 20 22  1  0
 22 23  2  0
 14 24  1  0
 24 25  1  0
  5 26  1  0
 26 27  1  0
 27 28  1  0
 28 29  2  0
 28 30  1  0
  7  2  1  0
 25 11  1  0
 30  4  1  0
 23 17  1  0
  1 31  1  0
  1 32  1  0
  1 33  1  0
  3 34  1  0
  6 35  1  0
 12 36  1  0
 12 37  1  0
 13 38  1  0
 13 39  1  0
 18 40  1  0
 19 41  1  0
 22 42  1  0
 23 43  1  0
 24 44  1  0
 24 45  1  0
 25 46  1  0
 25 47  1  0
 27 48  1  0
 27 49  1  0
 30 50  1  0
M  END
$$$$
