
     RDKit          3D

 62 64  0  0  0  0  0  0  0  0999 V2000
   -0.0843    2.5577    1.4616 C   0  0  0  0  0  0  0  0  0  0  0  0
    1.0292    1.9017    0.8669 O   0  0  0  0  0  0  0  0  0  0  0  0
    1.1183    0.5493    1.0701 C   0  0  0  0  0  0  0  0  0  0  0  0
    2.4019    0.0003    1.0279 C   0  0  0  0  0  0  0  0  0  0  0  0
    3.4937    0.8915    0.8103 N   0  0  0  0  0  0  0  0  0  0  0  0
    4.8427    0.5201    0.6378 C   0  0  0  0  0  0  0  0  0  0  0  0
    5.4939   -0.2475    1.6115 C   0  0  0  0  0  0  0  0  0  0  0  0
    6.8265   -0.6228    1.4460 C   0  0  0  0  0  0  0  0  0  0  0  0
    7.4557   -0.2259    0.2835 C   0  0  0  0  0  0  0  0  0  0  0  0
    9.1421   -0.6940   -0.0644 S   0  0  0  0  0  6  0  0  0  0  0  0
    9.0009   -1.5374   -1.6243 C   0  0  0  0  0  0  0  0  0  0  0  0
    9.9252    0.5188   -0.2525 O   0  0  0  0  0  0  0  0  0  0  0  0
    9.5404   -1.6810    0.9320 O   0  0  0  0  0  0  0  0  0  0  0  0
    6.8739    0.4888   -0.7141 N   0  0  0  0  0  0  0  0  0  0  0  0
    5.5839    0.8687   -0.5177 C   0  0  0  0  0  0  0  0  0  0  0  0
    4.9752    1.6737   -1.6382 C   0  0  0  0  0  0  0  0  0  0  0  0
    2.6309   -1.3187    1.1969 N   0  0  0  0  0  0  0  0  0  0  0  0
    1.5589   -2.0966    1.3752 C   0  0  0  0  0  0  0  0  0  0  0  0
    0.2875   -1.6929    1.4002 N   0  0  0  0  0  0  0  0  0  0  0  0
    0.0868   -0.3649    1.2293 C   0  0  0  0  0  0  0  0  0  0  0  0
   -1.2152    0.0910    1.1567 O   0  0  0  0  0  0  0  0  0  0  0  0
   -2.2460   -0.9113    1.1902 C   0  0  0  0  0  0  0  0  0  0  0  0
   -3.5463   -0.2087    1.6153 C   0  0  0  0  0  0  0  0  0  0  0  0
   -4.0545    0.7474    0.5355 C   0  0  0  0  0  0  0  0  0  0  0  0
   -4.1618    0.0544   -0.7434 N   0  0  0  0  0  0  0  0  0  0  0  0
   -5.3513   -0.1682   -1.4118 C   0  0  0  0  0  0  0  0  0  0  0  0
   -5.4419   -0.8276   -2.4369 O   0  0  0  0  0  0  0  0  0  0  0  0
   -6.4134    0.4210   -0.7980 O   0  0  0  0  0  0  0  0  0  0  0  0
   -7.6944    0.2472   -1.4307 C   0  0  0  0  0  0  0  0  0  0  0  0
   -8.2988   -1.0917   -1.0128 C   0  0  0  0  0  0  0  0  0  0  0  0
   -8.5868    1.4032   -0.9816 C   0  0  0  0  0  0  0  0  0  0  0  0
   -2.9386   -0.5678   -1.2227 C   0  0  0  0  0  0  0  0  0  0  0  0
   -2.4254   -1.5711   -0.1892 C   0  0  0  0  0  0  0  0  0  0  0  0
    0.2087    3.6048    1.6187 H   0  0  0  0  0  0  0  0  0  0  0  0
   -0.3447    2.1337    2.4438 H   0  0  0  0  0  0  0  0  0  0  0  0
   -0.9345    2.5489    0.7701 H   0  0  0  0  0  0  0  0  0  0  0  0
    3.1773    1.6296    0.1948 H   0  0  0  0  0  0  0  0  0  0  0  0
    4.9564   -0.5374    2.5130 H   0  0  0  0  0  0  0  0  0  0  0  0
    7.3453   -1.1901    2.2098 H   0  0  0  0  0  0  0  0  0  0  0  0
    8.5692   -0.8571   -2.3698 H   0  0  0  0  0  0  0  0  0  0  0  0
   10.0009   -1.8404   -1.9347 H   0  0  0  0  0  0  0  0  0  0  0  0
    8.3614   -2.4193   -1.4819 H   0  0  0  0  0  0  0  0  0  0  0  0
    4.6075    2.6369   -1.2547 H   0  0  0  0  0  0  0  0  0  0  0  0
    5.7203    1.8800   -2.4180 H   0  0  0  0  0  0  0  0  0  0  0  0
    4.1484    1.1254   -2.0997 H   0  0  0  0  0  0  0  0  0  0  0  0
    1.7406   -3.1612    1.5054 H   0  0  0  0  0  0  0  0  0  0  0  0
   -2.0282   -1.6672    1.9528 H   0  0  0  0  0  0  0  0  0  0  0  0
   -4.3130   -0.9684    1.8158 H   0  0  0  0  0  0  0  0  0  0  0  0
   -3.3754    0.3550    2.5368 H   0  0  0  0  0  0  0  0  0  0  0  0
   -5.0124    1.1795    0.8439 H   0  0  0  0  0  0  0  0  0  0  0  0
   -3.3588    1.5840    0.4049 H   0  0  0  0  0  0  0  0  0  0  0  0
   -7.5899    0.3008   -2.5236 H   0  0  0  0  0  0  0  0  0  0  0  0
   -7.6533   -1.9243   -1.3119 H   0  0  0  0  0  0  0  0  0  0  0  0
   -9.2822   -1.2328   -1.4734 H   0  0  0  0  0  0  0  0  0  0  0  0
   -8.4133   -1.1544    0.0755 H   0  0  0  0  0  0  0  0  0  0  0  0
   -9.5670    1.3555   -1.4685 H   0  0  0  0  0  0  0  0  0  0  0  0
   -8.1223    2.3608   -1.2454 H   0  0  0  0  0  0  0  0  0  0  0  0
   -8.7303    1.4032    0.1057 H   0  0  0  0  0  0  0  0  0  0  0  0
   -3.0948   -1.0661   -2.1833 H   0  0  0  0  0  0  0  0  0  0  0  0
   -2.2023    0.2296   -1.3893 H   0  0  0  0  0  0  0  0  0  0  0  0
   -1.4809   -1.9927   -0.5505 H   0  0  0  0  0  0  0  0  0  0  0  0
   -3.1417   -2.3997   -0.0949 H   0  0  0  0  0  0  0  0  0  0  0  0
  1  2  1  0
  2  3  1  0
  3  4  2  0
  4  5  1  0
  5  6  1  0
  6  7  2  0
  7  8  1  0
  8  9  2  0
  9 10  1  0
 10 11  1  0
 10 12  2  0
 10 13  2  0
  9 14  1  0
 14 15  2  0
 15 16  1  0
  4 17  1  0
 17 18  2  0
 18 19  1  0
 19 20  2  0
 20 21  1  0
 21 22  1  0
 22 23  1  0
 23 24  1  0
 24 25  1  0
 25 26  1  0
 26 27  2  0
 26 28  1  0
 28 29  1  0
 29 30  1  0
 29 31  1  0
 25 32  1  0
 32 33  1  0
 20  3  1  0
 33 22  1  0
 15  6  1  0
  1 34  1  0
  1 35  1  0
  1 36  1  0
  5 37  1  0
  7 38  1  0
  8 39  1  0
 11 40  1  0
 11 41  1  0
 11 42  1  0
 16 43  1  0
 16 44  1  0
 16 45  1  0
 18 46  1  0
 22 47  1  0
 23 48  1  0
 23 49  1  0
 24 50  1  0
 24 51  1  0
 29 52  1  0
 30 53  1  0
 30 54  1  0
 30 55  1  0
 31 56  1  0
 31 57  1  0
 31 58  1  0
 32 59  1  0
 32 60  1  0
 33 61  1  0
 33 62  1  0
M  END
$$$$
