
     RDKit          3D

 52 55  0  0  0  0  0  0  0  0999 V2000
    6.5238   -1.7502    0.5384 C   0  0  0  0  0  0  0  0  0  0  0  0
    5.7156   -0.7361   -0.2515 C   0  0  0  0  0  0  0  0  0  0  0  0
    5.1398    0.2913    0.5995 N   0  0  0  0  0  0  0  0  0  0  0  0
    5.8882    1.3774    0.8908 N   0  0  0  0  0  0  0  0  0  0  0  0
    5.1026    2.1034    1.6829 C   0  0  0  0  0  0  0  0  0  0  0  0
    3.8478    1.5047    1.8765 C   0  0  0  0  0  0  0  0  0  0  0  0
    3.8695    0.3379    1.1307 C   0  0  0  0  0  0  0  0  0  0  0  0
    2.8808   -0.7015    0.9614 C   0  0  0  0  0  0  0  0  0  0  0  0
    3.1925   -1.8918    0.9831 O   0  0  0  0  0  0  0  0  0  0  0  0
    1.5619   -0.3340    0.7392 N   0  0  0  0  0  0  0  0  0  0  0  0
    0.5645   -1.3510    0.4709 C   0  0  0  0  0  0  0  0  0  0  0  0
   -0.5839   -0.6365   -0.2580 C   0  0  1  0  0  0  0  0  0  0  0  0
   -1.8705   -1.2655    0.0374 N   0  0  0  0  0  0  0  0  0  0  0  0
   -2.9099   -1.2752   -0.8656 C   0  0  0  0  0  0  0  0  0  0  0  0
   -2.8225   -0.7460   -1.9686 O   0  0  0  0  0  0  0  0  0  0  0  0
   -4.1799   -1.9077   -0.4203 C   0  0  0  0  0  0  0  0  0  0  0  0
   -5.3820   -1.4416   -0.9667 C   0  0  0  0  0  0  0  0  0  0  0  0
   -6.5959   -2.0067   -0.5728 C   0  0  0  0  0  0  0  0  0  0  0  0
   -6.6121   -3.0437    0.3593 C   0  0  0  0  0  0  0  0  0  0  0  0
   -5.4162   -3.5235    0.8936 C   0  0  0  0  0  0  0  0  0  0  0  0
   -4.1986   -2.9605    0.5038 C   0  0  0  0  0  0  0  0  0  0  0  0
   -0.4695    0.8120    0.2499 C   0  0  2  0  0  0  0  0  0  0  0  0
   -1.0191    1.8973   -0.6121 C   0  0  0  0  0  0  0  0  0  0  0  0
   -0.8035    3.1877   -0.4436 N   0  0  0  0  0  0  0  0  0  0  0  0
   -1.5012    3.7697   -1.4676 C   0  0  0  0  0  0  0  0  0  0  0  0
   -1.5433    5.2302   -1.6733 C   0  0  0  0  0  0  0  0  0  0  0  0
   -2.1445    2.9104   -2.2620 N   0  0  0  0  0  0  0  0  0  0  0  0
   -1.8318    1.7294   -1.7014 N   0  0  0  0  0  0  0  0  0  0  0  0
    1.0476    0.9892    0.4169 C   0  0  0  0  0  0  0  0  0  0  0  0
    5.9069   -2.2569    1.2872 H   0  0  0  0  0  0  0  0  0  0  0  0
    6.9400   -2.5086   -0.1318 H   0  0  0  0  0  0  0  0  0  0  0  0
    7.3546   -1.2680    1.0646 H   0  0  0  0  0  0  0  0  0  0  0  0
    4.9084   -1.2211   -0.8086 H   0  0  0  0  0  0  0  0  0  0  0  0
    6.3537   -0.2316   -0.9865 H   0  0  0  0  0  0  0  0  0  0  0  0
    5.4797    3.0328    2.0903 H   0  0  0  0  0  0  0  0  0  0  0  0
    3.0447    1.8705    2.4991 H   0  0  0  0  0  0  0  0  0  0  0  0
    0.9744   -2.1684   -0.1319 H   0  0  0  0  0  0  0  0  0  0  0  0
    0.2496   -1.7631    1.4370 H   0  0  0  0  0  0  0  0  0  0  0  0
   -0.4005   -0.6791   -1.3396 H   0  0  0  0  0  0  0  0  0  0  0  0
   -2.0690   -1.5148    0.9997 H   0  0  0  0  0  0  0  0  0  0  0  0
   -5.3784   -0.6361   -1.6986 H   0  0  0  0  0  0  0  0  0  0  0  0
   -7.5281   -1.6403   -0.9965 H   0  0  0  0  0  0  0  0  0  0  0  0
   -7.5587   -3.4858    0.6617 H   0  0  0  0  0  0  0  0  0  0  0  0
   -5.4338   -4.3446    1.6066 H   0  0  0  0  0  0  0  0  0  0  0  0
   -3.2793   -3.3748    0.9069 H   0  0  0  0  0  0  0  0  0  0  0  0
   -0.9465    0.8836    1.2376 H   0  0  0  0  0  0  0  0  0  0  0  0
   -2.5463    5.6164   -1.4675 H   0  0  0  0  0  0  0  0  0  0  0  0
   -1.2778    5.4844   -2.7043 H   0  0  0  0  0  0  0  0  0  0  0  0
   -0.8391    5.7382   -1.0072 H   0  0  0  0  0  0  0  0  0  0  0  0
   -2.2104    0.8703   -2.1012 H   0  0  0  0  0  0  0  0  0  0  0  0
    1.5400    1.3272   -0.5031 H   0  0  0  0  0  0  0  0  0  0  0  0
    1.2658    1.7009    1.2154 H   0  0  0  0  0  0  0  0  0  0  0  0
  1  2  1  0
  2  3  1  0
  3  4  1  0
  4  5  2  0
  5  6  1  0
  6  7  2  0
  7  8  1  0
  8  9  2  0
  8 10  1  0
 10 11  1  0
 11 12  1  0
 12 13  1  0
 13 14  1  0
 14 15  2  0
 14 16  1  0
 16 17  2  0
 17 18  1  0
 18 19  2  0
 19 20  1  0
 20 21  2  0
 12 22  1  0
 22 23  1  0
 23 24  2  0
 24 25  1  0
 25 26  1  0
 25 27  2  0
 27 28  1  0
 22 29  1  0
  7  3  1  0
 29 10  1  0
 21 16  1  0
 28 23  1  0
  1 30  1  0
  1 31  1  0
  1 32  1  0
  2 33  1  0
  2 34  1  0
  5 35  1  0
  6 36  1  0
 11 37  1  0
 11 38  1  0
 12 39  1  6
 13 40  1  0
 17 41  1  0
 18 42  1  0
 19 43  1  0
 20 44  1  0
 21 45  1  0
 22 46  1  1
 26 47  1  0
 26 48  1  0
 26 49  1  0
 28 50  1  0
 29 51  1  0
 29 52  1  0
M  END
$$$$
