
     RDKit          3D

 34 37  0  0  0  0  0  0  0  0999 V2000
    4.0790    1.0947    0.4122 C   0  0  0  0  0  0  0  0  0  0  0  0
    2.9740    0.0940    0.6255 C   0  0  0  0  0  0  0  0  0  0  0  0
    3.2363   -1.0189    1.4272 C   0  0  0  0  0  0  0  0  0  0  0  0
    2.2362   -1.9464    1.6125 C   0  0  0  0  0  0  0  0  0  0  0  0
    1.0162   -1.8412    1.0567 N   0  0  0  0  0  0  0  0  0  0  0  0
    0.7220   -0.7543    0.2857 C   0  0  0  0  0  0  0  0  0  0  0  0
    1.6911    0.2392    0.0445 C   0  0  0  0  0  0  0  0  0  0  0  0
    1.5035    1.3197   -0.8343 N   0  0  0  0  0  0  0  0  0  0  0  0
    0.3671    1.9233   -1.2887 C   0  0  0  0  0  0  0  0  0  0  0  0
    0.4770    2.8086   -2.1391 O   0  0  0  0  0  0  0  0  0  0  0  0
   -0.9479    1.6709   -0.6850 C   0  0  0  0  0  0  0  0  0  0  0  0
   -1.8165    2.7768   -0.6042 C   0  0  0  0  0  0  0  0  0  0  0  0
   -3.0902    2.6302   -0.0785 C   0  0  0  0  0  0  0  0  0  0  0  0
   -3.4569    1.3729    0.3398 C   0  0  0  0  0  0  0  0  0  0  0  0
   -2.6465    0.2959    0.2579 N   0  0  0  0  0  0  0  0  0  0  0  0
   -1.3872    0.4232   -0.2538 C   0  0  0  0  0  0  0  0  0  0  0  0
   -0.5578   -0.7275   -0.3467 N   0  0  0  0  0  0  0  0  0  0  0  0
   -1.1509   -2.0830   -0.5758 C   0  0  0  0  0  0  0  0  0  0  0  0
   -2.1660   -2.7238    0.3296 C   0  0  0  0  0  0  0  0  0  0  0  0
   -2.5325   -2.3811   -1.0901 C   0  0  0  0  0  0  0  0  0  0  0  0
    4.9405    0.8866    1.0561 H   0  0  0  0  0  0  0  0  0  0  0  0
    4.4239    1.0620   -0.6261 H   0  0  0  0  0  0  0  0  0  0  0  0
    3.7340    2.1051    0.6549 H   0  0  0  0  0  0  0  0  0  0  0  0
    4.2031   -1.1686    1.8969 H   0  0  0  0  0  0  0  0  0  0  0  0
    2.3924   -2.8301    2.2243 H   0  0  0  0  0  0  0  0  0  0  0  0
    2.3276    1.7878   -1.1890 H   0  0  0  0  0  0  0  0  0  0  0  0
   -1.4933    3.7545   -0.9571 H   0  0  0  0  0  0  0  0  0  0  0  0
   -3.7723    3.4690   -0.0050 H   0  0  0  0  0  0  0  0  0  0  0  0
   -4.4396    1.1811    0.7610 H   0  0  0  0  0  0  0  0  0  0  0  0
   -0.3877   -2.7519   -0.9775 H   0  0  0  0  0  0  0  0  0  0  0  0
   -2.5892   -2.1304    1.1302 H   0  0  0  0  0  0  0  0  0  0  0  0
   -2.0148   -3.7648    0.5872 H   0  0  0  0  0  0  0  0  0  0  0  0
   -3.2335   -1.5751   -1.2574 H   0  0  0  0  0  0  0  0  0  0  0  0
   -2.6410   -3.1984   -1.7939 H   0  0  0  0  0  0  0  0  0  0  0  0
  1  2  1  0
  2  3  2  0
  3  4  1  0
  4  5  2  0
  5  6  1  0
  6  7  2  0
  7  8  1  0
  8  9  1  0
  9 10  2  0
  9 11  1  0
 11 12  2  0
 12 13  1  0
 13 14  2  0
 14 15  1  0
 15 16  2  0
 16 17  1  0
 17 18  1  0
 18 19  1  0
 19 20  1  0
  7  2  1  0
 16 11  1  0
 20 18  1  0
 17  6  1  0
  1 21  1  0
  1 22  1  0
  1 23  1  0
  3 24  1  0
  4 25  1  0
  8 26  1  0
 12 27  1  0
 13 28  1  0
 14 29  1  0
 18 30  1  0
 19 31  1  0
 19 32  1  0
 20 33  1  0
 20 34  1  0
M  END
$$$$
