
     RDKit          3D

 40 40  0  0  0  0  0  0  0  0999 V2000
    0.6927    0.0000    0.0000 Cl  0  0  0  0  0  0  0  0  0  0  0  0
    0.6925    0.0000    0.0000 Cl  0  0  0  0  0  0  0  0  0  0  0  0
    5.2659    0.7438    1.0201 C   0  0  0  0  0  0  0  0  0  0  0  0
    5.2223   -0.5736    0.6264 C   0  0  0  0  0  0  0  0  0  0  0  0
    4.0616   -1.0807    0.0426 C   0  0  0  0  0  0  0  0  0  0  0  0
    2.9481   -0.2881   -0.1511 C   0  0  0  0  0  0  0  0  0  0  0  0
    1.6959   -0.7820   -0.7668 C   0  0  2  0  0  0  0  0  0  0  0  0
    0.9841    0.1717   -1.6580 C   0  0  0  0  0  0  0  0  0  0  0  0
    0.3731   -0.2697   -0.3290 C   0  0  1  0  0  0  0  0  0  0  0  0
   -0.7687   -1.1227   -0.4861 N   0  0  0  0  0  0  0  0  0  0  0  0
   -1.9248   -0.4979    0.0710 C   0  0  0  0  0  0  0  0  0  0  0  0
   -3.1703   -1.3798   -0.0970 C   0  0  0  0  0  0  0  0  0  0  0  0
   -4.2581   -0.7812    0.7267 C   0  0  0  0  0  0  0  0  0  0  0  0
   -4.5365    0.5988    0.4014 N   0  0  0  0  0  0  0  0  0  0  0  0
   -3.3572    1.4294    0.4182 C   0  0  0  0  0  0  0  0  0  0  0  0
   -2.2745    0.8381   -0.4941 C   0  0  0  0  0  0  0  0  0  0  0  0
    3.0269    1.0267    0.2552 C   0  0  0  0  0  0  0  0  0  0  0  0
    4.1691    1.5411    0.8341 C   0  0  0  0  0  0  0  0  0  0  0  0
   -0.6927    0.0000    0.0000 H   0  0  0  0  0  0  0  0  0  0  0  0
   -0.6925    0.0000    0.0000 H   0  0  0  0  0  0  0  0  0  0  0  0
    6.1820    1.1456    1.4813 H   0  0  0  0  0  0  0  0  0  0  0  0
    6.1032   -1.1832    0.7848 H   0  0  0  0  0  0  0  0  0  0  0  0
    4.0462   -2.1065   -0.2568 H   0  0  0  0  0  0  0  0  0  0  0  0
    1.6976   -1.8511   -1.0912 H   0  0  0  0  0  0  0  0  0  0  0  0
    0.5444   -0.2059   -2.5993 H   0  0  0  0  0  0  0  0  0  0  0  0
    1.2522    1.2385   -1.6866 H   0  0  0  0  0  0  0  0  0  0  0  0
    0.3396    0.4626    0.4997 H   0  0  0  0  0  0  0  0  0  0  0  0
   -0.5954   -2.0017    0.0500 H   0  0  0  0  0  0  0  0  0  0  0  0
   -1.8229   -0.3683    1.1787 H   0  0  0  0  0  0  0  0  0  0  0  0
   -2.9490   -2.3877    0.3021 H   0  0  0  0  0  0  0  0  0  0  0  0
   -3.4205   -1.4052   -1.1772 H   0  0  0  0  0  0  0  0  0  0  0  0
   -4.0433   -0.9475    1.7978 H   0  0  0  0  0  0  0  0  0  0  0  0
   -5.2133   -1.3441    0.5124 H   0  0  0  0  0  0  0  0  0  0  0  0
   -5.1831    0.9614    1.1387 H   0  0  0  0  0  0  0  0  0  0  0  0
   -3.6268    2.4389    0.1042 H   0  0  0  0  0  0  0  0  0  0  0  0
   -2.9382    1.4359    1.4467 H   0  0  0  0  0  0  0  0  0  0  0  0
   -2.7567    0.6915   -1.4770 H   0  0  0  0  0  0  0  0  0  0  0  0
   -1.4391    1.5559   -0.5274 H   0  0  0  0  0  0  0  0  0  0  0  0
    2.1849    1.7024    0.1307 H   0  0  0  0  0  0  0  0  0  0  0  0
    4.1812    2.5944    1.1402 H   0  0  0  0  0  0  0  0  0  0  0  0
  3  4  2  0
  4  5  1  0
  5  6  2  0
  6  7  1  0
  7  8  1  0
  8  9  1  0
  9 10  1  0
 10 11  1  0
 11 12  1  0
 12 13  1  0
 13 14  1  0
 14 15  1  0
 15 16  1  0
  6 17  1  0
 17 18  2  0
 18  3  1  0
  9  7  1  0
 16 11  1  0
  1 19  1  0
  2 20  1  0
  3 21  1  0
  4 22  1  0
  5 23  1  0
  7 24  1  6
  8 25  1  0
  8 26  1  0
  9 27  1  1
 10 28  1  0
 11 29  1  0
 12 30  1  0
 12 31  1  0
 13 32  1  0
 13 33  1  0
 14 34  1  0
 15 35  1  0
 15 36  1  0
 16 37  1  0
 16 38  1  0
 17 39  1  0
 18 40  1  0
M  END
$$$$
