
     RDKit          3D

 43 44  0  0  0  0  0  0  0  0999 V2000
   -5.6474    0.6797   -1.8724 C   0  0  0  0  0  0  0  0  0  0  0  0
   -4.6836    0.3175   -0.7734 C   0  0  0  0  0  0  0  0  0  0  0  0
   -3.5046   -0.3715   -1.1002 C   0  0  0  0  0  0  0  0  0  0  0  0
   -2.5803   -0.7136   -0.1139 C   0  0  0  0  0  0  0  0  0  0  0  0
   -1.4786   -1.4138   -0.5236 O   0  0  0  0  0  0  0  0  0  0  0  0
   -0.2309   -0.9001   -0.0453 C   0  0  0  0  0  0  0  0  0  0  0  0
    0.4580   -2.0114    0.7420 C   0  0  0  0  0  0  0  0  0  0  0  0
    0.6520   -0.4582   -1.2319 C   0  0  0  0  0  0  0  0  0  0  0  0
    0.3305   -0.5881   -2.4100 O   0  0  0  0  0  0  0  0  0  0  0  0
    1.8523    0.1139   -0.8522 N   0  0  0  0  0  0  0  0  0  0  0  0
    2.7340    0.7431   -1.8225 C   0  0  0  0  0  0  0  0  0  0  0  0
    4.1592    0.8794   -1.2838 C   0  0  0  0  0  0  0  0  0  0  0  0
    4.8991   -0.4403   -1.1220 C   0  0  0  0  0  0  0  0  0  0  0  0
    5.9204   -0.0834   -0.0705 C   0  0  0  0  0  0  0  0  0  0  0  0
    5.1294    0.8326    0.8396 C   0  0  0  0  0  0  0  0  0  0  0  0
    4.1435    1.4903    0.0269 O   0  0  0  0  0  0  0  0  0  0  0  0
   -2.8405   -0.4140    1.2224 C   0  0  0  0  0  0  0  0  0  0  0  0
   -4.0062    0.2838    1.5822 C   0  0  0  0  0  0  0  0  0  0  0  0
   -4.2474    0.6000    3.0330 C   0  0  0  0  0  0  0  0  0  0  0  0
   -4.9233    0.6510    0.5745 C   0  0  0  0  0  0  0  0  0  0  0  0
   -6.3689    1.5146    1.0019 Cl  0  0  0  0  0  0  0  0  0  0  0  0
   -6.6339    0.2471   -1.6782 H   0  0  0  0  0  0  0  0  0  0  0  0
   -5.7360    1.7682   -1.9560 H   0  0  0  0  0  0  0  0  0  0  0  0
   -5.3115    0.3037   -2.8455 H   0  0  0  0  0  0  0  0  0  0  0  0
   -3.2926   -0.6442   -2.1335 H   0  0  0  0  0  0  0  0  0  0  0  0
   -0.3572   -0.0163    0.5942 H   0  0  0  0  0  0  0  0  0  0  0  0
    1.4039   -1.6760    1.1790 H   0  0  0  0  0  0  0  0  0  0  0  0
   -0.1887   -2.3717    1.5496 H   0  0  0  0  0  0  0  0  0  0  0  0
    0.6690   -2.8712    0.0953 H   0  0  0  0  0  0  0  0  0  0  0  0
    1.9552    0.4472    0.1006 H   0  0  0  0  0  0  0  0  0  0  0  0
    2.7194    0.1833   -2.7639 H   0  0  0  0  0  0  0  0  0  0  0  0
    2.3125    1.7382   -2.0088 H   0  0  0  0  0  0  0  0  0  0  0  0
    4.7321    1.5441   -1.9426 H   0  0  0  0  0  0  0  0  0  0  0  0
    4.2387   -1.2271   -0.7375 H   0  0  0  0  0  0  0  0  0  0  0  0
    5.3442   -0.7930   -2.0564 H   0  0  0  0  0  0  0  0  0  0  0  0
    6.3341   -0.9509    0.4518 H   0  0  0  0  0  0  0  0  0  0  0  0
    6.7501    0.4694   -0.5288 H   0  0  0  0  0  0  0  0  0  0  0  0
    4.5958    0.2600    1.6062 H   0  0  0  0  0  0  0  0  0  0  0  0
    5.7545    1.5774    1.3383 H   0  0  0  0  0  0  0  0  0  0  0  0
   -2.1469   -0.7387    1.9942 H   0  0  0  0  0  0  0  0  0  0  0  0
   -5.1462    0.0858    3.3918 H   0  0  0  0  0  0  0  0  0  0  0  0
   -4.3553    1.6799    3.1775 H   0  0  0  0  0  0  0  0  0  0  0  0
   -3.4081    0.2734    3.6598 H   0  0  0  0  0  0  0  0  0  0  0  0
  1  2  1  0
  2  3  2  0
  3  4  1  0
  4  5  1  0
  5  6  1  0
  6  7  1  0
  6  8  1  0
  8  9  2  0
  8 10  1  0
 10 11  1  0
 11 12  1  0
 12 13  1  0
 13 14  1  0
 14 15  1  0
 15 16  1  0
  4 17  2  0
 17 18  1  0
 18 19  1  0
 18 20  2  0
 20 21  1  0
 20  2  1  0
 16 12  1  0
  1 22  1  0
  1 23  1  0
  1 24  1  0
  3 25  1  0
  6 26  1  0
  7 27  1  0
  7 28  1  0
  7 29  1  0
 10 30  1  0
 11 31  1  0
 11 32  1  0
 12 33  1  0
 13 34  1  0
 13 35  1  0
 14 36  1  0
 14 37  1  0
 15 38  1  0
 15 39  1  0
 17 40  1  0
 19 41  1  0
 19 42  1  0
 19 43  1  0
M  END
$$$$
