
     RDKit          3D

 23 25  0  0  0  0  0  0  0  0999 V2000
    3.6628   -0.5268   -0.6173 C   0  0  0  0  0  0  0  0  0  0  0  0
    3.8169    0.6781    0.0594 C   0  0  0  0  0  0  0  0  0  0  0  0
    2.6948    1.3440    0.5525 C   0  0  0  0  0  0  0  0  0  0  0  0
    1.4081    0.8146    0.3679 C   0  0  0  0  0  0  0  0  0  0  0  0
    1.2447   -0.3916   -0.3340 C   0  0  0  0  0  0  0  0  0  0  0  0
    2.3864   -1.0604   -0.8056 C   0  0  0  0  0  0  0  0  0  0  0  0
   -0.0142   -0.9928   -0.5115 N   0  0  0  0  0  0  0  0  0  0  0  0
   -1.2607   -0.4486   -0.1542 C   0  0  0  0  0  0  0  0  0  0  0  0
   -2.4266   -1.1697   -0.4601 C   0  0  0  0  0  0  0  0  0  0  0  0
   -3.6858   -0.6937   -0.0899 C   0  0  0  0  0  0  0  0  0  0  0  0
   -3.7961    0.5051    0.6058 C   0  0  0  0  0  0  0  0  0  0  0  0
   -2.6463    1.2227    0.9358 C   0  0  0  0  0  0  0  0  0  0  0  0
   -1.3765    0.7513    0.5678 C   0  0  0  0  0  0  0  0  0  0  0  0
    0.0357    1.7329    1.0462 S   0  0  0  0  0  0  0  0  0  0  0  0
    4.5345   -1.0554   -0.9942 H   0  0  0  0  0  0  0  0  0  0  0  0
    4.8081    1.0976    0.2110 H   0  0  0  0  0  0  0  0  0  0  0  0
    2.8305    2.2811    1.0880 H   0  0  0  0  0  0  0  0  0  0  0  0
    2.2887   -2.0101   -1.3250 H   0  0  0  0  0  0  0  0  0  0  0  0
   -0.0465   -1.7347   -1.1977 H   0  0  0  0  0  0  0  0  0  0  0  0
   -2.3612   -2.1157   -0.9913 H   0  0  0  0  0  0  0  0  0  0  0  0
   -4.5776   -1.2624   -0.3403 H   0  0  0  0  0  0  0  0  0  0  0  0
   -4.7734    0.8800    0.8985 H   0  0  0  0  0  0  0  0  0  0  0  0
   -2.7464    2.1544    1.4882 H   0  0  0  0  0  0  0  0  0  0  0  0
  1  2  2  0
  2  3  1  0
  3  4  2  0
  4  5  1  0
  5  6  2  0
  5  7  1  0
  7  8  1  0
  8  9  2  0
  9 10  1  0
 10 11  2  0
 11 12  1  0
 12 13  2  0
 13 14  1  0
  6  1  1  0
 13  8  1  0
 14  4  1  0
  1 15  1  0
  2 16  1  0
  3 17  1  0
  6 18  1  0
  7 19  1  0
  9 20  1  0
 10 21  1  0
 11 22  1  0
 12 23  1  0
M  END
$$$$
