
     RDKit          3D

 50 53  0  0  0  0  0  0  0  0999 V2000
    3.9452   -1.4768   -2.0040 O   0  0  0  0  0  0  0  0  0  0  0  0
    3.3865   -0.8422   -1.1119 C   0  0  0  0  0  0  0  0  0  0  0  0
    4.1783   -0.3413    0.0590 C   0  0  0  0  0  0  0  0  0  0  0  0
    3.8261    0.8746    0.5688 N   0  0  0  0  0  0  0  0  0  0  0  0
    4.5740    1.3464    1.5935 C   0  0  0  0  0  0  0  0  0  0  0  0
    5.6521    0.6637    2.1373 C   0  0  0  0  0  0  0  0  0  0  0  0
    5.9919   -0.5762    1.5951 C   0  0  0  0  0  0  0  0  0  0  0  0
    5.2505   -1.0853    0.5340 C   0  0  0  0  0  0  0  0  0  0  0  0
    5.5774   -2.2859    0.0318 F   0  0  0  0  0  0  0  0  0  0  0  0
    2.0248   -0.5692   -1.1585 N   0  0  0  0  0  0  0  0  0  0  0  0
    1.2289   -0.8904   -2.3335 C   0  0  0  0  0  0  0  0  0  0  0  0
   -0.1748   -0.3727   -2.0115 C   0  0  0  0  0  0  0  0  0  0  0  0
   -0.2262   -0.5087   -0.4884 C   0  0  0  0  0  0  0  0  0  0  0  0
   -1.4391    0.0344    0.1504 N   0  0  0  0  0  0  0  0  0  0  0  0
   -1.6330    1.3224    0.6613 C   0  0  0  0  0  0  0  0  0  0  0  0
   -2.6382    1.6501    1.2826 O   0  0  0  0  0  0  0  0  0  0  0  0
   -0.5860    2.3614    0.4868 C   0  0  0  0  0  0  0  0  0  0  0  0
   -0.3641    3.0527   -0.8367 C   0  0  0  0  0  0  0  0  0  0  0  0
   -1.0128    3.8034    0.2795 C   0  0  0  0  0  0  0  0  0  0  0  0
   -2.5902   -0.9023    0.1943 C   0  0  0  0  0  0  0  0  0  0  0  0
   -2.9447   -1.3702    1.6107 C   0  0  0  0  0  0  0  0  0  0  0  0
   -4.0818   -2.3838    1.5432 C   0  0  0  0  0  0  0  0  0  0  0  0
   -5.2134   -1.8489    0.8583 O   0  0  0  0  0  0  0  0  0  0  0  0
   -4.9248   -1.4732   -0.4880 C   0  0  0  0  0  0  0  0  0  0  0  0
   -3.8419   -0.4020   -0.5413 C   0  0  0  0  0  0  0  0  0  0  0  0
    1.1849   -0.0698   -0.0716 C   0  0  0  0  0  0  0  0  0  0  0  0
    4.2703    2.3164    1.9828 H   0  0  0  0  0  0  0  0  0  0  0  0
    6.2196    1.0816    2.9641 H   0  0  0  0  0  0  0  0  0  0  0  0
    6.8271   -1.1506    1.9886 H   0  0  0  0  0  0  0  0  0  0  0  0
    1.6551   -0.4156   -3.2230 H   0  0  0  0  0  0  0  0  0  0  0  0
    1.2377   -1.9765   -2.4645 H   0  0  0  0  0  0  0  0  0  0  0  0
   -0.9532   -0.9467   -2.5204 H   0  0  0  0  0  0  0  0  0  0  0  0
   -0.2709    0.6726   -2.3228 H   0  0  0  0  0  0  0  0  0  0  0  0
   -0.2405   -1.5866   -0.2634 H   0  0  0  0  0  0  0  0  0  0  0  0
    0.2243    2.2769    1.2050 H   0  0  0  0  0  0  0  0  0  0  0  0
    0.6542    3.3223   -1.1003 H   0  0  0  0  0  0  0  0  0  0  0  0
   -0.9914    2.7923   -1.6820 H   0  0  0  0  0  0  0  0  0  0  0  0
   -2.0760    4.0217    0.2266 H   0  0  0  0  0  0  0  0  0  0  0  0
   -0.4382    4.5741    0.7785 H   0  0  0  0  0  0  0  0  0  0  0  0
   -2.2796   -1.8016   -0.3541 H   0  0  0  0  0  0  0  0  0  0  0  0
   -3.2642   -0.5241    2.2263 H   0  0  0  0  0  0  0  0  0  0  0  0
   -2.0697   -1.8172    2.0991 H   0  0  0  0  0  0  0  0  0  0  0  0
   -3.7585   -3.3052    1.0419 H   0  0  0  0  0  0  0  0  0  0  0  0
   -4.4012   -2.6561    2.5550 H   0  0  0  0  0  0  0  0  0  0  0  0
   -5.8507   -1.0940   -0.9357 H   0  0  0  0  0  0  0  0  0  0  0  0
   -4.6245   -2.3623   -1.0573 H   0  0  0  0  0  0  0  0  0  0  0  0
   -3.6043   -0.1534   -1.5822 H   0  0  0  0  0  0  0  0  0  0  0  0
   -4.2333    0.5048   -0.0731 H   0  0  0  0  0  0  0  0  0  0  0  0
    1.4859   -0.4893    0.8932 H   0  0  0  0  0  0  0  0  0  0  0  0
    1.3322    1.0064   -0.0664 H   0  0  0  0  0  0  0  0  0  0  0  0
  1  2  2  0
  2  3  1  0
  3  4  2  0
  4  5  1  0
  5  6  2  0
  6  7  1  0
  7  8  2  0
  8  9  1  0
  2 10  1  0
 10 11  1  0
 11 12  1  0
 12 13  1  0
 13 14  1  0
 14 15  1  0
 15 16  2  0
 15 17  1  0
 17 18  1  0
 18 19  1  0
 14 20  1  0
 20 21  1  0
 21 22  1  0
 22 23  1  0
 23 24  1  0
 24 25  1  0
 13 26  1  0
  8  3  1  0
 26 10  1  0
 19 17  1  0
 25 20  1  0
  5 27  1  0
  6 28  1  0
  7 29  1  0
 11 30  1  0
 11 31  1  0
 12 32  1  0
 12 33  1  0
 13 34  1  0
 17 35  1  0
 18 36  1  0
 18 37  1  0
 19 38  1  0
 19 39  1  0
 20 40  1  0
 21 41  1  0
 21 42  1  0
 22 43  1  0
 22 44  1  0
 24 45  1  0
 24 46  1  0
 25 47  1  0
 25 48  1  0
 26 49  1  0
 26 50  1  0
M  END
$$$$
