
     RDKit          3D

 39 42  0  0  0  0  0  0  0  0999 V2000
   -5.9672    1.9552   -1.6001 C   0  0  0  0  0  0  0  0  0  0  0  0
   -4.5613    1.7854   -1.4686 O   0  0  0  0  0  0  0  0  0  0  0  0
   -4.1269    0.8078   -0.6143 C   0  0  0  0  0  0  0  0  0  0  0  0
   -4.9380   -0.0410    0.1426 C   0  0  0  0  0  0  0  0  0  0  0  0
   -4.3594   -0.9992    0.9780 C   0  0  0  0  0  0  0  0  0  0  0  0
   -5.0340   -1.8889    1.7691 O   0  0  0  0  0  0  0  0  0  0  0  0
   -6.4546   -1.8383    1.7426 C   0  0  0  0  0  0  0  0  0  0  0  0
   -2.9669   -1.1026    1.0513 C   0  0  0  0  0  0  0  0  0  0  0  0
   -2.1360   -0.2610    0.3005 C   0  0  0  0  0  0  0  0  0  0  0  0
   -0.6893   -0.3969    0.4017 C   0  0  0  0  0  0  0  0  0  0  0  0
    0.0354   -1.2264    1.1220 N   0  0  0  0  0  0  0  0  0  0  0  0
    1.3552   -0.9301    0.8447 N   0  0  0  0  0  0  0  0  0  0  0  0
    1.3508    0.0575   -0.0239 C   0  0  0  0  0  0  0  0  0  0  0  0
    2.3273    0.7426   -0.6388 N   0  0  0  0  0  0  0  0  0  0  0  0
    3.6579    0.5644   -0.4990 C   0  0  0  0  0  0  0  0  0  0  0  0
    4.2569   -0.3149    0.2668 N   0  0  0  0  0  0  0  0  0  0  0  0
    5.6372   -0.2156    0.1619 C   0  0  0  0  0  0  0  0  0  0  0  0
    6.6037   -0.9934    0.8338 C   0  0  0  0  0  0  0  0  0  0  0  0
    6.2316   -1.9586    1.6875 F   0  0  0  0  0  0  0  0  0  0  0  0
    7.9668   -0.7757    0.6250 C   0  0  0  0  0  0  0  0  0  0  0  0
    8.3891    0.2163   -0.2528 C   0  0  0  0  0  0  0  0  0  0  0  0
    7.4584    1.0062   -0.9358 C   0  0  0  0  0  0  0  0  0  0  0  0
    6.0887    0.7730   -0.7133 C   0  0  0  0  0  0  0  0  0  0  0  0
    4.7306    1.5734   -1.4000 S   0  0  0  0  0  0  0  0  0  0  0  0
    0.0799    0.4502   -0.3532 O   0  0  0  0  0  0  0  0  0  0  0  0
   -2.7354    0.6933   -0.5313 C   0  0  0  0  0  0  0  0  0  0  0  0
   -6.4374    1.0524   -2.0036 H   0  0  0  0  0  0  0  0  0  0  0  0
   -6.1405    2.7676   -2.3124 H   0  0  0  0  0  0  0  0  0  0  0  0
   -6.4202    2.2460   -0.6466 H   0  0  0  0  0  0  0  0  0  0  0  0
   -6.0149    0.0432    0.0822 H   0  0  0  0  0  0  0  0  0  0  0  0
   -6.8387   -2.0636    0.7423 H   0  0  0  0  0  0  0  0  0  0  0  0
   -6.8215   -0.8702    2.0991 H   0  0  0  0  0  0  0  0  0  0  0  0
   -6.8295   -2.6079    2.4242 H   0  0  0  0  0  0  0  0  0  0  0  0
   -2.5292   -1.8550    1.7074 H   0  0  0  0  0  0  0  0  0  0  0  0
    2.0258    1.4680   -1.2730 H   0  0  0  0  0  0  0  0  0  0  0  0
    8.6876   -1.3903    1.1565 H   0  0  0  0  0  0  0  0  0  0  0  0
    9.4532    0.3804   -0.4106 H   0  0  0  0  0  0  0  0  0  0  0  0
    7.7882    1.7815   -1.6218 H   0  0  0  0  0  0  0  0  0  0  0  0
   -2.1237    1.3652   -1.1300 H   0  0  0  0  0  0  0  0  0  0  0  0
  1  2  1  0
  2  3  1  0
  3  4  2  0
  4  5  1  0
  5  6  1  0
  6  7  1  0
  5  8  2  0
  8  9  1  0
  9 10  1  0
 10 11  2  0
 11 12  1  0
 12 13  2  0
 13 14  1  0
 14 15  1  0
 15 16  2  0
 16 17  1  0
 17 18  2  0
 18 19  1  0
 18 20  1  0
 20 21  2  0
 21 22  1  0
 22 23  2  0
 23 24  1  0
 13 25  1  0
  9 26  2  0
 26  3  1  0
 25 10  1  0
 24 15  1  0
 23 17  1  0
  1 27  1  0
  1 28  1  0
  1 29  1  0
  4 30  1  0
  7 31  1  0
  7 32  1  0
  7 33  1  0
  8 34  1  0
 14 35  1  0
 20 36  1  0
 21 37  1  0
 22 38  1  0
 26 39  1  0
M  END
$$$$
