
     RDKit          3D

 27 29  0  0  0  0  0  0  0  0999 V2000
    4.9133    0.7076   -0.4090 C   0  0  0  0  0  0  0  0  0  0  0  0
    3.5905   -0.0057   -0.2711 C   0  0  0  0  0  0  0  0  0  0  0  0
    2.4730    0.8215   -0.2793 N   0  0  0  0  0  0  0  0  0  0  0  0
    1.2249    0.3320   -0.1652 C   0  0  0  0  0  0  0  0  0  0  0  0
    0.0661    0.9325   -0.1513 N   0  0  0  0  0  0  0  0  0  0  0  0
   -0.8305   -0.1118   -0.0089 C   0  0  0  0  0  0  0  0  0  0  0  0
   -2.2733    0.1102    0.0543 C   0  0  0  0  0  0  0  0  0  0  0  0
   -3.1630   -0.9649    0.1989 C   0  0  0  0  0  0  0  0  0  0  0  0
   -4.5418   -0.7453    0.2586 C   0  0  0  0  0  0  0  0  0  0  0  0
   -5.0460    0.5510    0.1745 C   0  0  0  0  0  0  0  0  0  0  0  0
   -4.1742    1.6286    0.0306 C   0  0  0  0  0  0  0  0  0  0  0  0
   -2.7952    1.4095   -0.0292 C   0  0  0  0  0  0  0  0  0  0  0  0
   -0.2579   -1.3261    0.0641 N   0  0  0  0  0  0  0  0  0  0  0  0
    1.0582   -1.0246   -0.0374 N   0  0  0  0  0  0  0  0  0  0  0  0
    2.0935   -1.9625   -0.0149 C   0  0  0  0  0  0  0  0  0  0  0  0
    1.8611   -3.1590    0.1027 O   0  0  0  0  0  0  0  0  0  0  0  0
    3.4587   -1.3482   -0.1466 C   0  0  0  0  0  0  0  0  0  0  0  0
    4.7872   -2.4483   -0.1267 Cl  0  0  0  0  0  0  0  0  0  0  0  0
    5.0409    1.4196    0.4138 H   0  0  0  0  0  0  0  0  0  0  0  0
    5.7794    0.0419   -0.4005 H   0  0  0  0  0  0  0  0  0  0  0  0
    4.9399    1.2658   -1.3513 H   0  0  0  0  0  0  0  0  0  0  0  0
    2.6143    1.8246   -0.3748 H   0  0  0  0  0  0  0  0  0  0  0  0
   -2.7866   -1.9843    0.2662 H   0  0  0  0  0  0  0  0  0  0  0  0
   -5.2194   -1.5879    0.3708 H   0  0  0  0  0  0  0  0  0  0  0  0
   -6.1186    0.7211    0.2210 H   0  0  0  0  0  0  0  0  0  0  0  0
   -4.5657    2.6404   -0.0352 H   0  0  0  0  0  0  0  0  0  0  0  0
   -2.1287    2.2623   -0.1416 H   0  0  0  0  0  0  0  0  0  0  0  0
  1  2  1  0
  2  3  1  0
  3  4  1  0
  4  5  2  0
  5  6  1  0
  6  7  1  0
  7  8  2  0
  8  9  1  0
  9 10  2  0
 10 11  1  0
 11 12  2  0
  6 13  2  0
 13 14  1  0
 14 15  1  0
 15 16  2  0
 15 17  1  0
 17 18  1  0
 17  2  2  0
 14  4  1  0
 12  7  1  0
  1 19  1  0
  1 20  1  0
  1 21  1  0
  3 22  1  0
  8 23  1  0
  9 24  1  0
 10 25  1  0
 11 26  1  0
 12 27  1  0
M  END
$$$$
