
     RDKit          3D

 19 18  0  0  0  0  0  0  0  0999 V2000
    2.1493   -1.1683   -0.2574 C   0  0  0  0  0  0  0  0  0  0  0  0
    1.1207   -0.2718   -0.7653 N   0  0  0  0  0  0  0  0  0  0  0  0
    0.4014    0.4372    0.3248 C   0  0  2  0  0  0  0  0  0  0  0  0
   -0.7678   -0.3863    0.8649 C   0  0  0  0  0  0  0  0  0  0  0  0
   -1.8431   -0.6170   -0.1603 C   0  0  0  0  0  0  0  0  0  0  0  0
   -2.2875    0.1861   -0.9629 O   0  0  0  0  0  0  0  0  0  0  0  0
   -2.3716   -1.8553   -0.0776 O   0  0  0  0  0  0  0  0  0  0  0  0
   -0.0367    1.8240   -0.1698 C   0  0  0  0  0  0  0  0  0  0  0  0
    0.4014    2.4097   -1.1502 O   0  0  0  0  0  0  0  0  0  0  0  0
   -0.9096    2.4392    0.6534 O   0  0  0  0  0  0  0  0  0  0  0  0
    2.9141   -0.6237    0.3057 H   0  0  0  0  0  0  0  0  0  0  0  0
    2.6439   -1.6650   -1.0979 H   0  0  0  0  0  0  0  0  0  0  0  0
    1.7243   -1.9499    0.3793 H   0  0  0  0  0  0  0  0  0  0  0  0
    1.5581    0.4342   -1.3683 H   0  0  0  0  0  0  0  0  0  0  0  0
    1.1029    0.6464    1.1439 H   0  0  0  0  0  0  0  0  0  0  0  0
   -0.4028   -1.3556    1.2246 H   0  0  0  0  0  0  0  0  0  0  0  0
   -1.2378    0.1105    1.7215 H   0  0  0  0  0  0  0  0  0  0  0  0
   -3.0442   -1.8690   -0.7906 H   0  0  0  0  0  0  0  0  0  0  0  0
   -1.1152    3.2746    0.1821 H   0  0  0  0  0  0  0  0  0  0  0  0
  1  2  1  0
  2  3  1  0
  3  4  1  0
  4  5  1  0
  5  6  2  0
  5  7  1  0
  3  8  1  0
  8  9  2  0
  8 10  1  0
  1 11  1  0
  1 12  1  0
  1 13  1  0
  2 14  1  0
  3 15  1  1
  4 16  1  0
  4 17  1  0
  7 18  1  0
 10 19  1  0
M  END
$$$$
