
     RDKit          3D

 16 15  0  0  0  0  0  0  0  0999 V2000
   -1.9922    0.0240    0.3446 C   0  0  0  0  0  0  0  0  0  0  0  0
   -0.6071   -0.6035    0.4610 C   0  0  0  0  0  0  0  0  0  0  0  0
    0.3494   -0.0752   -0.5245 N   0  0  0  0  0  0  0  0  0  0  0  0
    1.5741   -0.8800   -0.5134 C   0  0  0  0  0  0  0  0  0  0  0  0
    0.6805    1.3288   -0.2728 C   0  0  0  0  0  0  0  0  0  0  0  0
   -2.6940   -0.4990    1.0027 H   0  0  0  0  0  0  0  0  0  0  0  0
   -2.3748   -0.0500   -0.6788 H   0  0  0  0  0  0  0  0  0  0  0  0
   -1.9899    1.0773    0.6402 H   0  0  0  0  0  0  0  0  0  0  0  0
   -0.2307   -0.4800    1.4845 H   0  0  0  0  0  0  0  0  0  0  0  0
   -0.7322   -1.6812    0.2952 H   0  0  0  0  0  0  0  0  0  0  0  0
    1.3519   -1.9246   -0.7588 H   0  0  0  0  0  0  0  0  0  0  0  0
    2.0778   -0.8527    0.4597 H   0  0  0  0  0  0  0  0  0  0  0  0
    2.2761   -0.5248   -1.2763 H   0  0  0  0  0  0  0  0  0  0  0  0
   -0.1971    1.9715   -0.3929 H   0  0  0  0  0  0  0  0  0  0  0  0
    1.0914    1.4830    0.7315 H   0  0  0  0  0  0  0  0  0  0  0  0
    1.4168    1.6865   -1.0019 H   0  0  0  0  0  0  0  0  0  0  0  0
  1  2  1  0
  2  3  1  0
  3  4  1  0
  3  5  1  0
  1  6  1  0
  1  7  1  0
  1  8  1  0
  2  9  1  0
  2 10  1  0
  4 11  1  0
  4 12  1  0
  4 13  1  0
  5 14  1  0
  5 15  1  0
  5 16  1  0
M  END
$$$$
