
     RDKit          3D

 18 19  0  0  0  0  0  0  0  0999 V2000
    2.9334   -1.5990    0.1786 O   0  0  0  0  0  0  0  0  0  0  0  0
    1.8241   -1.1132    0.1364 C   0  0  0  0  0  0  0  0  0  0  0  0
    0.5922   -1.6933    0.3290 N   0  0  0  0  0  0  0  0  0  0  0  0
   -0.4315   -0.7494    0.1842 C   0  0  0  0  0  0  0  0  0  0  0  0
    0.0956    0.5068   -0.1137 C   0  0  0  0  0  0  0  0  0  0  0  0
   -0.6958    1.6203   -0.3076 C   0  0  0  0  0  0  0  0  0  0  0  0
   -2.0780    1.4445   -0.1931 C   0  0  0  0  0  0  0  0  0  0  0  0
   -2.6284    0.1773    0.1084 C   0  0  0  0  0  0  0  0  0  0  0  0
   -4.3499    0.0697    0.2272 Cl  0  0  0  0  0  0  0  0  0  0  0  0
   -1.7990   -0.9400    0.3011 C   0  0  0  0  0  0  0  0  0  0  0  0
   -2.4099   -2.5097    0.6706 Cl  0  0  0  0  0  0  0  0  0  0  0  0
    1.5464    0.3567   -0.1623 C   0  0  0  0  0  0  0  0  0  0  0  0
    2.3867    1.3087   -0.4126 N   0  0  0  0  0  0  0  0  0  0  0  0
    3.7466    0.9304   -0.4075 O   0  0  0  0  0  0  0  0  0  0  0  0
    0.4562   -2.6721    0.5458 H   0  0  0  0  0  0  0  0  0  0  0  0
   -0.2612    2.5885   -0.5387 H   0  0  0  0  0  0  0  0  0  0  0  0
   -2.7353    2.3008   -0.3395 H   0  0  0  0  0  0  0  0  0  0  0  0
    3.8079   -0.0268   -0.2062 H   0  0  0  0  0  0  0  0  0  0  0  0
  1  2  2  0
  2  3  1  0
  3  4  1  0
  4  5  2  0
  5  6  1  0
  6  7  2  0
  7  8  1  0
  8  9  1  0
  8 10  2  0
 10 11  1  0
  5 12  1  0
 12 13  2  0
 13 14  1  0
 12  2  1  0
 10  4  1  0
  3 15  1  0
  6 16  1  0
  7 17  1  0
 14 18  1  0
M  END
$$$$
