
     RDKit          3D

 37 40  0  0  0  0  0  0  0  0999 V2000
   -0.8844   -0.4063   -2.5279 O   0  0  0  0  0  0  0  0  0  0  0  0
   -1.8833   -0.6945   -1.8995 C   0  0  0  0  0  0  0  0  0  0  0  0
   -2.7447   -1.6213   -2.3619 O   0  0  0  0  0  0  0  0  0  0  0  0
   -2.3239   -0.1423   -0.5919 C   0  0  0  0  0  0  0  0  0  0  0  0
   -3.6994   -0.0755   -0.3092 C   0  0  0  0  0  0  0  0  0  0  0  0
   -4.1516    0.4491    0.9026 C   0  0  0  0  0  0  0  0  0  0  0  0
   -3.2373    0.9105    1.8449 C   0  0  0  0  0  0  0  0  0  0  0  0
   -1.8693    0.8483    1.5775 C   0  0  0  0  0  0  0  0  0  0  0  0
   -1.3957    0.3281    0.3580 C   0  0  0  0  0  0  0  0  0  0  0  0
    0.0805    0.2627    0.1690 C   0  0  0  0  0  0  0  0  0  0  0  0
    0.7593    1.3287   -0.3363 C   0  0  0  0  0  0  0  0  0  0  0  0
    0.0809    2.5733   -0.7291 C   0  0  0  0  0  0  0  0  0  0  0  0
    0.7555    3.6212   -1.2201 C   0  0  0  0  0  0  0  0  0  0  0  0
    2.2227    3.5621   -1.3870 C   0  0  0  0  0  0  0  0  0  0  0  0
    2.8497    4.5226   -1.8173 O   0  0  0  0  0  0  0  0  0  0  0  0
    2.9045    2.3081   -1.0128 C   0  0  0  0  0  0  0  0  0  0  0  0
    2.2192    1.2663   -0.5231 C   0  0  0  0  0  0  0  0  0  0  0  0
    2.9222    0.1177   -0.1908 O   0  0  0  0  0  0  0  0  0  0  0  0
    2.2471   -0.9581    0.3207 C   0  0  0  0  0  0  0  0  0  0  0  0
    3.0233   -2.0779    0.6364 C   0  0  0  0  0  0  0  0  0  0  0  0
    2.4078   -3.2037    1.1661 C   0  0  0  0  0  0  0  0  0  0  0  0
    3.1187   -4.3200    1.4905 O   0  0  0  0  0  0  0  0  0  0  0  0
    1.0374   -3.2222    1.3834 C   0  0  0  0  0  0  0  0  0  0  0  0
    0.2687   -2.0991    1.0640 C   0  0  0  0  0  0  0  0  0  0  0  0
    0.8663   -0.9477    0.5237 C   0  0  0  0  0  0  0  0  0  0  0  0
   -2.3316   -1.9217   -3.1992 H   0  0  0  0  0  0  0  0  0  0  0  0
   -4.4290   -0.4294   -1.0349 H   0  0  0  0  0  0  0  0  0  0  0  0
   -5.2183    0.4952    1.1103 H   0  0  0  0  0  0  0  0  0  0  0  0
   -3.5879    1.3153    2.7915 H   0  0  0  0  0  0  0  0  0  0  0  0
   -1.1668    1.2040    2.3300 H   0  0  0  0  0  0  0  0  0  0  0  0
   -0.9965    2.6590   -0.6360 H   0  0  0  0  0  0  0  0  0  0  0  0
    0.2688    4.5413   -1.5177 H   0  0  0  0  0  0  0  0  0  0  0  0
    3.9767    2.2790   -1.1555 H   0  0  0  0  0  0  0  0  0  0  0  0
    4.0939   -2.0490    0.4628 H   0  0  0  0  0  0  0  0  0  0  0  0
    4.0535   -4.1699    1.2723 H   0  0  0  0  0  0  0  0  0  0  0  0
    0.5647   -4.1078    1.7994 H   0  0  0  0  0  0  0  0  0  0  0  0
   -0.8017   -2.1462    1.2471 H   0  0  0  0  0  0  0  0  0  0  0  0
  1  2  2  0
  2  3  1  0
  2  4  1  0
  4  5  2  0
  5  6  1  0
  6  7  2  0
  7  8  1  0
  8  9  2  0
  9 10  1  0
 10 11  2  0
 11 12  1  0
 12 13  2  0
 13 14  1  0
 14 15  2  0
 14 16  1  0
 16 17  2  0
 17 18  1  0
 18 19  1  0
 19 20  2  0
 20 21  1  0
 21 22  1  0
 21 23  2  0
 23 24  1  0
 24 25  2  0
  9  4  1  0
 25 10  1  0
 17 11  1  0
 25 19  1  0
  3 26  1  0
  5 27  1  0
  6 28  1  0
  7 29  1  0
  8 30  1  0
 12 31  1  0
 13 32  1  0
 16 33  1  0
 20 34  1  0
 22 35  1  0
 23 36  1  0
 24 37  1  0
M  END
$$$$
