
     RDKit          3D

 52 54  0  0  0  0  0  0  0  0999 V2000
   10.4674    0.2151    0.9969 C   0  0  0  0  0  0  0  0  0  0  0  0
    9.0109   -0.1679    1.0863 C   0  0  0  0  0  0  0  0  0  0  0  0
    8.6149   -0.9240    1.9654 O   0  0  0  0  0  0  0  0  0  0  0  0
    8.2588    0.4057    0.0765 N   0  0  0  0  0  0  0  0  0  0  0  0
    6.8745    0.2630   -0.1491 C   0  0  0  0  0  0  0  0  0  0  0  0
    6.0250   -0.5001    0.6498 C   0  0  0  0  0  0  0  0  0  0  0  0
    4.6550   -0.5915    0.3588 C   0  0  0  0  0  0  0  0  0  0  0  0
    4.1130    0.0794   -0.7357 C   0  0  0  0  0  0  0  0  0  0  0  0
    2.7498    0.0405   -1.0952 N   0  0  0  0  0  0  0  0  0  0  0  0
    1.7303   -0.6485   -0.4607 C   0  0  0  0  0  0  0  0  0  0  0  0
    1.8269   -1.3493    0.5395 O   0  0  0  0  0  0  0  0  0  0  0  0
    0.3976   -0.4253   -1.1419 C   0  0  0  0  0  0  0  0  0  0  0  0
   -0.6842   -1.2910   -0.5116 C   0  0  0  0  0  0  0  0  0  0  0  0
   -1.9815   -1.0254   -1.0937 N   0  0  0  0  0  0  0  0  0  0  0  0
   -2.2484   -1.4486   -2.3437 N   0  0  0  0  0  0  0  0  0  0  0  0
   -3.4732   -1.0432   -2.6504 N   0  0  0  0  0  0  0  0  0  0  0  0
   -3.9775   -0.3619   -1.5765 C   0  0  0  0  0  0  0  0  0  0  0  0
   -5.2180    0.2618   -1.3997 C   0  0  0  0  0  0  0  0  0  0  0  0
   -5.4671    0.8803   -0.1658 C   0  0  0  0  0  0  0  0  0  0  0  0
   -7.0273    1.7068    0.0828 S   0  0  0  0  0  6  0  0  0  0  0  0
   -7.5225    2.0908   -1.2219 O   0  0  0  0  0  0  0  0  0  0  0  0
   -6.8284    2.6926    1.1245 O   0  0  0  0  0  0  0  0  0  0  0  0
   -8.0238    0.4737    0.6969 N   0  0  0  0  0  0  0  0  0  0  0  0
   -7.7265   -0.0137    2.0541 C   0  0  0  0  0  0  0  0  0  0  0  0
   -8.4169   -0.5984   -0.2335 C   0  0  0  0  0  0  0  0  0  0  0  0
   -4.4990    0.9174    0.8471 C   0  0  0  0  0  0  0  0  0  0  0  0
   -3.2548    0.3004    0.6738 C   0  0  0  0  0  0  0  0  0  0  0  0
   -3.0348   -0.3354   -0.5533 C   0  0  0  0  0  0  0  0  0  0  0  0
    4.9645    0.8458   -1.5379 C   0  0  0  0  0  0  0  0  0  0  0  0
    6.3313    0.9368   -1.2474 C   0  0  0  0  0  0  0  0  0  0  0  0
   10.5765    1.2692    0.7259 H   0  0  0  0  0  0  0  0  0  0  0  0
   10.9622   -0.4113    0.2501 H   0  0  0  0  0  0  0  0  0  0  0  0
   10.9438    0.0639    1.9698 H   0  0  0  0  0  0  0  0  0  0  0  0
    8.7572    0.9898   -0.5826 H   0  0  0  0  0  0  0  0  0  0  0  0
    6.3902   -1.0446    1.5156 H   0  0  0  0  0  0  0  0  0  0  0  0
    4.0453   -1.2021    1.0177 H   0  0  0  0  0  0  0  0  0  0  0  0
    2.4974    0.5736   -1.9187 H   0  0  0  0  0  0  0  0  0  0  0  0
    0.5002   -0.6599   -2.2082 H   0  0  0  0  0  0  0  0  0  0  0  0
    0.1374    0.6363   -1.0517 H   0  0  0  0  0  0  0  0  0  0  0  0
   -0.4740   -2.3575   -0.6564 H   0  0  0  0  0  0  0  0  0  0  0  0
   -0.7552   -1.1181    0.5677 H   0  0  0  0  0  0  0  0  0  0  0  0
   -5.9498    0.2601   -2.2009 H   0  0  0  0  0  0  0  0  0  0  0  0
   -7.5489    0.8163    2.7433 H   0  0  0  0  0  0  0  0  0  0  0  0
   -6.8586   -0.6788    2.0518 H   0  0  0  0  0  0  0  0  0  0  0  0
   -8.5868   -0.5690    2.4422 H   0  0  0  0  0  0  0  0  0  0  0  0
   -8.7094   -0.1937   -1.2061 H   0  0  0  0  0  0  0  0  0  0  0  0
   -7.6066   -1.3205   -0.3668 H   0  0  0  0  0  0  0  0  0  0  0  0
   -9.2895   -1.1270    0.1645 H   0  0  0  0  0  0  0  0  0  0  0  0
   -4.7054    1.4351    1.7835 H   0  0  0  0  0  0  0  0  0  0  0  0
   -2.5040    0.3249    1.4573 H   0  0  0  0  0  0  0  0  0  0  0  0
    4.5826    1.3845   -2.4012 H   0  0  0  0  0  0  0  0  0  0  0  0
    6.9594    1.5425   -1.8955 H   0  0  0  0  0  0  0  0  0  0  0  0
  1  2  1  0
  2  3  2  0
  2  4  1  0
  4  5  1  0
  5  6  2  0
  6  7  1  0
  7  8  2  0
  8  9  1  0
  9 10  1  0
 10 11  2  0
 10 12  1  0
 12 13  1  0
 13 14  1  0
 14 15  1  0
 15 16  2  0
 16 17  1  0
 17 18  2  0
 18 19  1  0
 19 20  1  0
 20 21  2  0
 20 22  2  0
 20 23  1  0
 23 24  1  0
 23 25  1  0
 19 26  2  0
 26 27  1  0
 27 28  2  0
  8 29  1  0
 29 30  2  0
 30  5  1  0
 28 14  1  0
 28 17  1  0
  1 31  1  0
  1 32  1  0
  1 33  1  0
  4 34  1  0
  6 35  1  0
  7 36  1  0
  9 37  1  0
 12 38  1  0
 12 39  1  0
 13 40  1  0
 13 41  1  0
 18 42  1  0
 24 43  1  0
 24 44  1  0
 24 45  1  0
 25 46  1  0
 25 47  1  0
 25 48  1  0
 26 49  1  0
 27 50  1  0
 29 51  1  0
 30 52  1  0
M  END
$$$$
