
     RDKit          3D

 40 41  0  0  0  0  0  0  0  0999 V2000
    6.0855   -0.8300   -2.9364 C   0  0  0  0  0  0  0  0  0  0  0  0
    5.3389   -0.1192   -1.8350 C   0  0  0  0  0  0  0  0  0  0  0  0
    5.7226    0.9672   -1.4176 O   0  0  0  0  0  0  0  0  0  0  0  0
    4.2175   -0.8192   -1.4270 N   0  0  0  0  0  0  0  0  0  0  0  0
    3.3007   -0.4585   -0.4183 C   0  0  0  0  0  0  0  0  0  0  0  0
    3.4281    0.6810    0.3814 C   0  0  0  0  0  0  0  0  0  0  0  0
    2.4764    0.9708    1.3653 C   0  0  0  0  0  0  0  0  0  0  0  0
    1.3845    0.1200    1.5424 C   0  0  0  0  0  0  0  0  0  0  0  0
    0.1835    0.4901    2.7977 S   0  0  0  0  0  6  0  0  0  0  0  0
    0.8737    1.1343    3.8929 O   0  0  0  0  0  0  0  0  0  0  0  0
   -0.6365   -0.6834    2.9988 O   0  0  0  0  0  0  0  0  0  0  0  0
   -0.7532    1.6721    2.0675 N   0  0  0  0  0  0  0  0  0  0  0  0
   -1.4301    1.3858    0.7932 C   0  0  0  0  0  0  0  0  0  0  0  0
   -2.7416    2.1700    0.7226 C   0  0  0  0  0  0  0  0  0  0  0  0
   -3.5226    2.0686   -0.9277 S   0  0  0  0  0  0  0  0  0  0  0  0
   -4.2706    0.4501   -0.8641 C   0  0  0  0  0  0  0  0  0  0  0  0
   -5.0642    0.0335   -1.9267 C   0  0  0  0  0  0  0  0  0  0  0  0
   -5.6445   -1.2322   -1.8763 C   0  0  0  0  0  0  0  0  0  0  0  0
   -5.4151   -2.0416   -0.7709 C   0  0  0  0  0  0  0  0  0  0  0  0
   -4.6098   -1.5486    0.2406 C   0  0  0  0  0  0  0  0  0  0  0  0
   -4.0348   -0.3263    0.2136 N   0  0  0  0  0  0  0  0  0  0  0  0
    1.2503   -1.0303    0.7643 C   0  0  0  0  0  0  0  0  0  0  0  0
    2.2072   -1.3133   -0.2144 C   0  0  0  0  0  0  0  0  0  0  0  0
    5.6162   -0.6032   -3.8973 H   0  0  0  0  0  0  0  0  0  0  0  0
    6.0863   -1.9116   -2.7727 H   0  0  0  0  0  0  0  0  0  0  0  0
    7.1248   -0.4888   -2.9498 H   0  0  0  0  0  0  0  0  0  0  0  0
    4.0202   -1.6828   -1.9170 H   0  0  0  0  0  0  0  0  0  0  0  0
    4.2656    1.3638    0.2722 H   0  0  0  0  0  0  0  0  0  0  0  0
    2.6012    1.8549    1.9869 H   0  0  0  0  0  0  0  0  0  0  0  0
   -0.4443    2.6234    2.2590 H   0  0  0  0  0  0  0  0  0  0  0  0
   -0.7606    1.6937   -0.0184 H   0  0  0  0  0  0  0  0  0  0  0  0
   -1.6150    0.3132    0.6955 H   0  0  0  0  0  0  0  0  0  0  0  0
   -2.5362    3.2315    0.9042 H   0  0  0  0  0  0  0  0  0  0  0  0
   -3.4404    1.8563    1.5059 H   0  0  0  0  0  0  0  0  0  0  0  0
   -5.2361    0.6783   -2.7824 H   0  0  0  0  0  0  0  0  0  0  0  0
   -6.2710   -1.5803   -2.6926 H   0  0  0  0  0  0  0  0  0  0  0  0
   -5.8530   -3.0309   -0.6983 H   0  0  0  0  0  0  0  0  0  0  0  0
   -4.3979   -2.1390    1.1282 H   0  0  0  0  0  0  0  0  0  0  0  0
    0.4105   -1.7066    0.9109 H   0  0  0  0  0  0  0  0  0  0  0  0
    2.0838   -2.2128   -0.8128 H   0  0  0  0  0  0  0  0  0  0  0  0
  1  2  1  0
  2  3  2  0
  2  4  1  0
  4  5  1  0
  5  6  2  0
  6  7  1  0
  7  8  2  0
  8  9  1  0
  9 10  2  0
  9 11  2  0
  9 12  1  0
 12 13  1  0
 13 14  1  0
 14 15  1  0
 15 16  1  0
 16 17  2  0
 17 18  1  0
 18 19  2  0
 19 20  1  0
 20 21  2  0
  8 22  1  0
 22 23  2  0
 23  5  1  0
 21 16  1  0
  1 24  1  0
  1 25  1  0
  1 26  1  0
  4 27  1  0
  6 28  1  0
  7 29  1  0
 12 30  1  0
 13 31  1  0
 13 32  1  0
 14 33  1  0
 14 34  1  0
 17 35  1  0
 18 36  1  0
 19 37  1  0
 20 38  1  0
 22 39  1  0
 23 40  1  0
M  END
$$$$
