
     RDKit          3D

 47 49  0  0  0  0  0  0  0  0999 V2000
   -2.1497    1.4436    1.6296 O   0  0  0  0  0  0  0  0  0  0  0  0
   -3.0691    0.6342    1.6532 C   0  0  0  0  0  0  0  0  0  0  0  0
   -4.3907    1.0045    1.7897 N   0  0  0  0  0  0  0  0  0  0  0  0
   -4.7734    2.4007    1.9350 C   0  0  0  0  0  0  0  0  0  0  0  0
   -4.6867    3.1714    0.6163 C   0  0  0  0  0  0  0  0  0  0  0  0
   -5.5225    2.5577   -0.3666 O   0  0  0  0  0  0  0  0  0  0  0  0
   -2.7899   -0.8190    1.4820 C   0  0  0  0  0  0  0  0  0  0  0  0
   -3.6536   -1.8081    1.9582 C   0  0  0  0  0  0  0  0  0  0  0  0
   -3.3400   -3.1512    1.7609 C   0  0  0  0  0  0  0  0  0  0  0  0
   -2.1576   -3.5071    1.1065 C   0  0  0  0  0  0  0  0  0  0  0  0
   -1.2506   -2.5376    0.6399 C   0  0  0  0  0  0  0  0  0  0  0  0
    0.0072   -2.9385   -0.0279 C   0  0  0  0  0  0  0  0  0  0  0  0
    1.1549   -2.1665    0.0035 C   0  0  0  0  0  0  0  0  0  0  0  0
    2.2700   -2.6481   -0.6561 C   0  0  0  0  0  0  0  0  0  0  0  0
    3.4851   -1.9527   -0.6561 N   0  0  0  0  0  0  0  0  0  0  0  0
    3.7473   -0.5748   -0.7665 C   0  0  0  0  0  0  0  0  0  0  0  0
    2.8198    0.3498   -1.2628 C   0  0  0  0  0  0  0  0  0  0  0  0
    3.1360    1.7115   -1.3519 C   0  0  0  0  0  0  0  0  0  0  0  0
    4.3945    2.1627   -0.9521 C   0  0  0  0  0  0  0  0  0  0  0  0
    4.7890    3.4694   -0.9720 O   0  0  0  0  0  0  0  0  0  0  0  0
    4.4444    4.1768   -2.1589 C   0  0  0  0  0  0  0  0  0  0  0  0
    3.1356    4.5190   -2.1610 F   0  0  0  0  0  0  0  0  0  0  0  0
    5.1721    5.3153   -2.2043 F   0  0  0  0  0  0  0  0  0  0  0  0
    4.7289    3.4570   -3.2657 F   0  0  0  0  0  0  0  0  0  0  0  0
    5.3203    1.2554   -0.4345 C   0  0  0  0  0  0  0  0  0  0  0  0
    5.0036   -0.1032   -0.3576 C   0  0  0  0  0  0  0  0  0  0  0  0
    2.2692   -3.8372   -1.2781 N   0  0  0  0  0  0  0  0  0  0  0  0
    1.1163   -4.5165   -1.2569 C   0  0  0  0  0  0  0  0  0  0  0  0
   -0.0201   -4.1281   -0.6660 N   0  0  0  0  0  0  0  0  0  0  0  0
   -1.5973   -1.1876    0.8369 C   0  0  0  0  0  0  0  0  0  0  0  0
   -5.1287    0.3309    1.6460 H   0  0  0  0  0  0  0  0  0  0  0  0
   -4.1290    2.8673    2.6875 H   0  0  0  0  0  0  0  0  0  0  0  0
   -5.8052    2.3991    2.3036 H   0  0  0  0  0  0  0  0  0  0  0  0
   -3.6632    3.2048    0.2266 H   0  0  0  0  0  0  0  0  0  0  0  0
   -5.0319    4.1999    0.7586 H   0  0  0  0  0  0  0  0  0  0  0  0
   -5.1153    1.6928   -0.5500 H   0  0  0  0  0  0  0  0  0  0  0  0
   -4.5586   -1.5586    2.5025 H   0  0  0  0  0  0  0  0  0  0  0  0
   -4.0076   -3.9284    2.1251 H   0  0  0  0  0  0  0  0  0  0  0  0
   -1.9346   -4.5661    0.9708 H   0  0  0  0  0  0  0  0  0  0  0  0
    1.2026   -1.2353    0.5551 H   0  0  0  0  0  0  0  0  0  0  0  0
    4.1723   -2.5164   -1.1532 H   0  0  0  0  0  0  0  0  0  0  0  0
    1.8399    0.0270   -1.6115 H   0  0  0  0  0  0  0  0  0  0  0  0
    2.3710    2.3923   -1.7214 H   0  0  0  0  0  0  0  0  0  0  0  0
    6.2963    1.5995   -0.0966 H   0  0  0  0  0  0  0  0  0  0  0  0
    5.7414   -0.7941    0.0470 H   0  0  0  0  0  0  0  0  0  0  0  0
    1.1017   -5.4730   -1.7673 H   0  0  0  0  0  0  0  0  0  0  0  0
   -0.9441   -0.3948    0.4743 H   0  0  0  0  0  0  0  0  0  0  0  0
  1  2  2  0
  2  3  1  0
  3  4  1  0
  4  5  1  0
  5  6  1  0
  2  7  1  0
  7  8  2  0
  8  9  1  0
  9 10  2  0
 10 11  1  0
 11 12  1  0
 12 13  2  0
 13 14  1  0
 14 15  1  0
 15 16  1  0
 16 17  2  0
 17 18  1  0
 18 19  2  0
 19 20  1  0
 20 21  1  0
 21 22  1  0
 21 23  1  0
 21 24  1  0
 19 25  1  0
 25 26  2  0
 14 27  2  0
 27 28  1  0
 28 29  2  0
 11 30  2  0
 30  7  1  0
 29 12  1  0
 26 16  1  0
  3 31  1  0
  4 32  1  0
  4 33  1  0
  5 34  1  0
  5 35  1  0
  6 36  1  0
  8 37  1  0
  9 38  1  0
 10 39  1  0
 13 40  1  0
 15 41  1  0
 17 42  1  0
 18 43  1  0
 25 44  1  0
 26 45  1  0
 28 46  1  0
 30 47  1  0
M  END
$$$$
