
     RDKit          3D

 51 54  0  0  0  0  0  0  0  0999 V2000
   -1.7748    2.4026    0.8800 C   0  0  0  0  0  0  0  0  0  0  0  0
   -2.2955    1.5539   -0.2812 C   0  0  2  0  0  0  0  0  0  0  0  0
   -3.5396    2.1809   -0.9445 C   0  0  0  0  0  0  0  0  0  0  0  0
   -4.6924    2.2553   -0.0993 O   0  0  0  0  0  0  0  0  0  0  0  0
   -4.8139    1.1425    0.7923 C   0  0  0  0  0  0  0  0  0  0  0  0
   -4.0300   -0.1114    0.3780 C   0  0  0  0  0  0  0  0  0  0  0  0
   -2.5917    0.1725    0.1902 N   0  0  0  0  0  0  0  0  0  0  0  0
   -1.5808   -0.8092    0.1854 C   0  0  0  0  0  0  0  0  0  0  0  0
   -1.8282   -2.0691    0.5746 C   0  0  0  0  0  0  0  0  0  0  0  0
   -0.7511   -3.0595    0.5963 C   0  0  0  0  0  0  0  0  0  0  0  0
   -1.0081   -4.2228    0.9014 O   0  0  0  0  0  0  0  0  0  0  0  0
    0.5012   -2.5972    0.2628 N   0  0  0  0  0  0  0  0  0  0  0  0
    0.6703   -1.3046   -0.1920 C   0  0  0  0  0  0  0  0  0  0  0  0
   -0.3170   -0.4618   -0.2270 N   0  0  0  0  0  0  0  0  0  0  0  0
    1.9330   -0.8968   -0.6071 N   0  0  0  0  0  0  0  0  0  0  0  0
    2.1054    0.4222   -1.2356 C   0  0  0  0  0  0  0  0  0  0  0  0
    2.0936    1.5540   -0.2401 C   0  0  0  0  0  0  0  0  0  0  0  0
    1.6351    2.8107   -0.6331 C   0  0  0  0  0  0  0  0  0  0  0  0
    1.6185    3.9038    0.1648 N   0  0  0  0  0  0  0  0  0  0  0  0
    2.0792    3.7355    1.4272 C   0  0  0  0  0  0  0  0  0  0  0  0
    2.5654    2.5332    1.9151 C   0  0  0  0  0  0  0  0  0  0  0  0
    3.1456    2.4035    3.5251 Cl  0  0  0  0  0  0  0  0  0  0  0  0
    2.5822    1.4311    1.0667 C   0  0  0  0  0  0  0  0  0  0  0  0
    2.9975   -1.8823   -0.8893 C   0  0  2  0  0  0  0  0  0  0  0  0
    2.9236   -2.4828   -2.3096 C   0  0  0  0  0  0  0  0  0  0  0  0
    3.9096   -3.3922   -2.4920 F   0  0  0  0  0  0  0  0  0  0  0  0
    1.7507   -3.0966   -2.5642 F   0  0  0  0  0  0  0  0  0  0  0  0
    3.0929   -1.5202   -3.2476 F   0  0  0  0  0  0  0  0  0  0  0  0
    2.9541   -2.9407    0.2055 C   0  0  0  0  0  0  0  0  0  0  0  0
    1.5789   -3.5700    0.2724 C   0  0  0  0  0  0  0  0  0  0  0  0
   -0.8701    1.9623    1.3115 H   0  0  0  0  0  0  0  0  0  0  0  0
   -1.5263    3.4120    0.5363 H   0  0  0  0  0  0  0  0  0  0  0  0
   -2.5026    2.4959    1.6903 H   0  0  0  0  0  0  0  0  0  0  0  0
   -1.5216    1.5254   -1.0587 H   0  0  0  0  0  0  0  0  0  0  0  0
   -3.8202    1.6023   -1.8333 H   0  0  0  0  0  0  0  0  0  0  0  0
   -3.3179    3.1980   -1.2856 H   0  0  0  0  0  0  0  0  0  0  0  0
   -5.8797    0.9026    0.8690 H   0  0  0  0  0  0  0  0  0  0  0  0
   -4.4969    1.4753    1.7865 H   0  0  0  0  0  0  0  0  0  0  0  0
   -4.1874   -0.8615    1.1592 H   0  0  0  0  0  0  0  0  0  0  0  0
   -4.4315   -0.5057   -0.5631 H   0  0  0  0  0  0  0  0  0  0  0  0
   -2.7895   -2.4318    0.9003 H   0  0  0  0  0  0  0  0  0  0  0  0
    3.0659    0.4777   -1.7633 H   0  0  0  0  0  0  0  0  0  0  0  0
    1.3288    0.5657   -1.9978 H   0  0  0  0  0  0  0  0  0  0  0  0
    1.2511    2.9826   -1.6362 H   0  0  0  0  0  0  0  0  0  0  0  0
    2.0456    4.6245    2.0500 H   0  0  0  0  0  0  0  0  0  0  0  0
    2.9573    0.4779    1.4272 H   0  0  0  0  0  0  0  0  0  0  0  0
    3.9691   -1.3783   -0.8027 H   0  0  0  0  0  0  0  0  0  0  0  0
    3.7182   -3.7096    0.0469 H   0  0  0  0  0  0  0  0  0  0  0  0
    3.1750   -2.4657    1.1708 H   0  0  0  0  0  0  0  0  0  0  0  0
    1.4164   -4.2574   -0.5658 H   0  0  0  0  0  0  0  0  0  0  0  0
    1.5027   -4.1766    1.1834 H   0  0  0  0  0  0  0  0  0  0  0  0
  1  2  1  0
  2  3  1  0
  3  4  1  0
  4  5  1  0
  5  6  1  0
  6  7  1  0
  7  8  1  0
  8  9  2  0
  9 10  1  0
 10 11  2  0
 10 12  1  0
 12 13  1  0
 13 14  2  0
 13 15  1  0
 15 16  1  0
 16 17  1  0
 17 18  2  0
 18 19  1  0
 19 20  2  0
 20 21  1  0
 21 22  1  0
 21 23  2  0
 15 24  1  0
 24 25  1  0
 25 26  1  0
 25 27  1  0
 25 28  1  0
 24 29  1  0
 29 30  1  0
  7  2  1  0
 14  8  1  0
 23 17  1  0
 30 12  1  0
  1 31  1  0
  1 32  1  0
  1 33  1  0
  2 34  1  6
  3 35  1  0
  3 36  1  0
  5 37  1  0
  5 38  1  0
  6 39  1  0
  6 40  1  0
  9 41  1  0
 16 42  1  0
 16 43  1  0
 18 44  1  0
 20 45  1  0
 23 46  1  0
 24 47  1  6
 29 48  1  0
 29 49  1  0
 30 50  1  0
 30 51  1  0
M  END
$$$$
