
     RDKit          3D

 78 81  0  0  0  0  0  0  0  0999 V2000
    0.6898    0.0000    0.0000 Cl  0  0  0  0  0  0  0  0  0  0  0  0
    0.6877    0.0000    0.0000 Cl  0  0  0  0  0  0  0  0  0  0  0  0
   -7.7157   -3.0603   -0.3146 C   0  0  0  0  0  0  0  0  0  0  0  0
   -6.4854   -3.4044   -0.8390 C   0  0  0  0  0  0  0  0  0  0  0  0
   -5.4878   -2.4522   -0.8658 C   0  0  0  0  0  0  0  0  0  0  0  0
   -5.7589   -1.2077   -0.3721 C   0  0  0  0  0  0  0  0  0  0  0  0
   -4.7783   -0.2361   -0.3869 C   0  0  0  0  0  0  0  0  0  0  0  0
   -3.4850   -0.4830   -0.9012 N   0  0  0  0  0  0  0  0  0  0  0  0
   -2.4743   -0.9744    0.0086 C   0  0  0  0  0  0  0  0  0  0  0  0
   -1.1575   -1.1840   -0.7096 C   0  0  0  0  0  0  0  0  0  0  0  0
   -0.1149   -1.6982    0.2639 C   0  0  0  0  0  0  0  0  0  0  0  0
    1.1753   -1.8872   -0.5161 C   0  0  0  0  0  0  0  0  0  0  0  0
    2.2858   -2.3911    0.3270 C   0  0  0  0  0  0  0  0  0  0  0  0
    2.7060   -1.5993    1.4933 C   0  0  0  0  0  0  0  0  0  0  0  0
    3.2638   -0.3049    1.3491 N   0  0  0  0  0  0  0  0  0  0  0  0
    4.5337    0.0169    0.8131 C   0  0  0  0  0  0  0  0  0  0  0  0
    4.7048    0.4460   -0.4753 C   0  0  0  0  0  0  0  0  0  0  0  0
    5.9676    0.6837   -0.9781 C   0  0  0  0  0  0  0  0  0  0  0  0
    7.0840    0.5044   -0.2127 N   0  0  0  0  0  0  0  0  0  0  0  0
    6.9560    0.0875    1.0587 C   0  0  0  0  0  0  0  0  0  0  0  0
    8.0832   -0.0885    1.8508 C   0  0  0  0  0  0  0  0  0  0  0  0
    8.0064   -0.5026    3.1559 C   0  0  0  0  0  0  0  0  0  0  0  0
    6.7490   -0.7456    3.6746 C   0  0  0  0  0  0  0  0  0  0  0  0
    5.6117   -0.5732    2.8911 C   0  0  0  0  0  0  0  0  0  0  0  0
    5.6989   -0.1575    1.5798 C   0  0  0  0  0  0  0  0  0  0  0  0
    6.0677    1.1245   -2.3892 C   0  0  0  0  0  0  0  0  0  0  0  0
    5.1615    2.3162   -2.5721 C   0  0  0  0  0  0  0  0  0  0  0  0
    3.8255    2.1572   -1.9450 C   0  0  0  0  0  0  0  0  0  0  0  0
    3.5733    0.7469   -1.3886 C   0  0  0  0  0  0  0  0  0  0  0  0
   -5.0561    1.0107    0.1097 C   0  0  0  0  0  0  0  0  0  0  0  0
   -6.2903    1.3348    0.6291 C   0  0  0  0  0  0  0  0  0  0  0  0
   -7.2411    0.3961    0.6444 N   0  0  0  0  0  0  0  0  0  0  0  0
   -6.9916   -0.8407    0.1604 C   0  0  0  0  0  0  0  0  0  0  0  0
   -7.9930   -1.8051    0.1846 C   0  0  0  0  0  0  0  0  0  0  0  0
   -6.4521    2.7202    1.1357 C   0  0  0  0  0  0  0  0  0  0  0  0
   -5.9231    3.7114    0.1326 C   0  0  0  0  0  0  0  0  0  0  0  0
   -4.6693    3.2696   -0.5688 C   0  0  0  0  0  0  0  0  0  0  0  0
   -4.0130    2.0584    0.0953 C   0  0  0  0  0  0  0  0  0  0  0  0
   -0.6898    0.0000    0.0000 H   0  0  0  0  0  0  0  0  0  0  0  0
   -0.6877    0.0000    0.0000 H   0  0  0  0  0  0  0  0  0  0  0  0
   -8.5102   -3.7960   -0.2860 H   0  0  0  0  0  0  0  0  0  0  0  0
   -6.2727   -4.3958   -1.2311 H   0  0  0  0  0  0  0  0  0  0  0  0
   -4.5002   -2.6422   -1.2588 H   0  0  0  0  0  0  0  0  0  0  0  0
   -3.2258   -0.3307   -1.8919 H   0  0  0  0  0  0  0  0  0  0  0  0
   -2.7721   -1.9267    0.5055 H   0  0  0  0  0  0  0  0  0  0  0  0
   -2.3591   -0.2200    0.8298 H   0  0  0  0  0  0  0  0  0  0  0  0
   -0.8681   -0.2196   -1.1489 H   0  0  0  0  0  0  0  0  0  0  0  0
   -1.3462   -1.8937   -1.5329 H   0  0  0  0  0  0  0  0  0  0  0  0
   -0.0014   -0.9351    1.0593 H   0  0  0  0  0  0  0  0  0  0  0  0
   -0.4130   -2.6456    0.7172 H   0  0  0  0  0  0  0  0  0  0  0  0
    1.4490   -1.0784   -1.1643 H   0  0  0  0  0  0  0  0  0  0  0  0
    0.9202   -2.7608   -1.2201 H   0  0  0  0  0  0  0  0  0  0  0  0
    2.0548   -3.4316    0.7101 H   0  0  0  0  0  0  0  0  0  0  0  0
    3.1467   -2.5945   -0.3943 H   0  0  0  0  0  0  0  0  0  0  0  0
    3.4724   -2.2461    2.0405 H   0  0  0  0  0  0  0  0  0  0  0  0
    1.8453   -1.6078    2.2255 H   0  0  0  0  0  0  0  0  0  0  0  0
    2.6988    0.5444    1.6660 H   0  0  0  0  0  0  0  0  0  0  0  0
    9.0752    0.1008    1.4498 H   0  0  0  0  0  0  0  0  0  0  0  0
    8.9043   -0.6289    3.7416 H   0  0  0  0  0  0  0  0  0  0  0  0
    6.6871   -1.0754    4.7155 H   0  0  0  0  0  0  0  0  0  0  0  0
    4.6738   -0.7744    3.3799 H   0  0  0  0  0  0  0  0  0  0  0  0
    5.7602    0.2937   -3.0867 H   0  0  0  0  0  0  0  0  0  0  0  0
    7.1202    1.4213   -2.5719 H   0  0  0  0  0  0  0  0  0  0  0  0
    5.0859    2.6126   -3.6412 H   0  0  0  0  0  0  0  0  0  0  0  0
    5.6963    3.1812   -2.0804 H   0  0  0  0  0  0  0  0  0  0  0  0
    3.6500    2.8667   -1.0939 H   0  0  0  0  0  0  0  0  0  0  0  0
    2.9969    2.3577   -2.6751 H   0  0  0  0  0  0  0  0  0  0  0  0
    3.5034    0.0788   -2.2420 H   0  0  0  0  0  0  0  0  0  0  0  0
    2.6335    0.8499   -0.7889 H   0  0  0  0  0  0  0  0  0  0  0  0
   -8.9725   -1.5506    0.5956 H   0  0  0  0  0  0  0  0  0  0  0  0
   -7.4956    2.9335    1.4307 H   0  0  0  0  0  0  0  0  0  0  0  0
   -5.7746    2.7893    2.0371 H   0  0  0  0  0  0  0  0  0  0  0  0
   -6.7305    3.8700   -0.6227 H   0  0  0  0  0  0  0  0  0  0  0  0
   -5.7083    4.6923    0.6524 H   0  0  0  0  0  0  0  0  0  0  0  0
   -4.9638    2.9021   -1.5830 H   0  0  0  0  0  0  0  0  0  0  0  0
   -3.9555    4.1165   -0.6366 H   0  0  0  0  0  0  0  0  0  0  0  0
   -3.7375    2.3545    1.1420 H   0  0  0  0  0  0  0  0  0  0  0  0
   -3.1335    1.8004   -0.4905 H   0  0  0  0  0  0  0  0  0  0  0  0
  3  4  2  0
  4  5  1  0
  5  6  2  0
  6  7  1  0
  7  8  1  0
  8  9  1  0
  9 10  1  0
 10 11  1  0
 11 12  1  0
 12 13  1  0
 13 14  1  0
 14 15  1  0
 15 16  1  0
 16 17  2  0
 17 18  1  0
 18 19  2  0
 19 20  1  0
 20 21  2  0
 21 22  1  0
 22 23  2  0
 23 24  1  0
 24 25  2  0
 18 26  1  0
 26 27  1  0
 27 28  1  0
 28 29  1  0
  7 30  2  0
 30 31  1  0
 31 32  2  0
 32 33  1  0
 33 34  2  0
 31 35  1  0
 35 36  1  0
 36 37  1  0
 37 38  1  0
 34  3  1  0
 33  6  1  0
 25 16  1  0
 38 30  1  0
 29 17  1  0
 25 20  1  0
  1 39  1  0
  2 40  1  0
  3 41  1  0
  4 42  1  0
  5 43  1  0
  8 44  1  0
  9 45  1  0
  9 46  1  0
 10 47  1  0
 10 48  1  0
 11 49  1  0
 11 50  1  0
 12 51  1  0
 12 52  1  0
 13 53  1  0
 13 54  1  0
 14 55  1  0
 14 56  1  0
 15 57  1  0
 21 58  1  0
 22 59  1  0
 23 60  1  0
 24 61  1  0
 26 62  1  0
 26 63  1  0
 27 64  1  0
 27 65  1  0
 28 66  1  0
 28 67  1  0
 29 68  1  0
 29 69  1  0
 34 70  1  0
 35 71  1  0
 35 72  1  0
 36 73  1  0
 36 74  1  0
 37 75  1  0
 37 76  1  0
 38 77  1  0
 38 78  1  0
M  END
$$$$
