
     RDKit          3D

 45 49  0  0  0  0  0  0  0  0999 V2000
    7.2053    1.6294   -1.6704 C   0  0  0  0  0  0  0  0  0  0  0  0
    5.8890    1.0214   -1.2885 C   0  0  0  0  0  0  0  0  0  0  0  0
    4.8618    1.8196   -0.7765 C   0  0  0  0  0  0  0  0  0  0  0  0
    3.6238    1.2570   -0.4503 C   0  0  0  0  0  0  0  0  0  0  0  0
    3.3810   -0.1108   -0.6370 C   0  0  0  0  0  0  0  0  0  0  0  0
    2.0786   -0.6570   -0.2841 C   0  0  0  0  0  0  0  0  0  0  0  0
    1.6896   -1.9790   -0.3335 C   0  0  0  0  0  0  0  0  0  0  0  0
    0.3951   -1.9735    0.0959 N   0  0  0  0  0  0  0  0  0  0  0  0
    0.0265   -0.6835    0.3962 C   0  0  0  0  0  0  0  0  0  0  0  0
    1.0350    0.1246    0.1659 N   0  0  0  0  0  0  0  0  0  0  0  0
   -1.2606   -0.4032    0.8558 N   0  0  0  0  0  0  0  0  0  0  0  0
   -1.5417    0.9234    1.2243 C   0  0  0  0  0  0  0  0  0  0  0  0
   -0.6925    1.7737    1.4837 O   0  0  0  0  0  0  0  0  0  0  0  0
   -2.9370    1.3062    1.4037 C   0  0  0  0  0  0  0  0  0  0  0  0
   -3.4356    2.1232    2.4416 C   0  0  0  0  0  0  0  0  0  0  0  0
   -4.7469    2.3453    2.3578 N   0  0  0  0  0  0  0  0  0  0  0  0
   -5.1091    1.7484    1.2002 N   0  0  0  0  0  0  0  0  0  0  0  0
   -6.3702    1.7495    0.6121 C   0  0  0  0  0  0  0  0  0  0  0  0
   -6.5767    1.1241   -0.5538 C   0  0  0  0  0  0  0  0  0  0  0  0
   -5.3792    0.4537   -1.1267 C   0  0  0  0  0  0  0  0  0  0  0  0
   -4.1915    0.4183   -0.6004 N   0  0  0  0  0  0  0  0  0  0  0  0
   -4.0349    1.0829    0.5902 C   0  0  0  0  0  0  0  0  0  0  0  0
   -2.2403   -1.4949    0.9378 C   0  0  0  0  0  0  0  0  0  0  0  0
   -1.5752   -2.8344    1.2556 C   0  0  0  0  0  0  0  0  0  0  0  0
   -0.4778   -3.1179    0.2397 C   0  0  0  0  0  0  0  0  0  0  0  0
    4.4087   -0.9031   -1.1648 C   0  0  0  0  0  0  0  0  0  0  0  0
    5.6488   -0.3415   -1.4922 C   0  0  0  0  0  0  0  0  0  0  0  0
    7.4412    2.4853   -1.0292 H   0  0  0  0  0  0  0  0  0  0  0  0
    7.1746    1.9649   -2.7115 H   0  0  0  0  0  0  0  0  0  0  0  0
    8.0182    0.9046   -1.5557 H   0  0  0  0  0  0  0  0  0  0  0  0
    5.0122    2.8859   -0.6244 H   0  0  0  0  0  0  0  0  0  0  0  0
    2.8395    1.8969   -0.0465 H   0  0  0  0  0  0  0  0  0  0  0  0
    2.2006   -2.8856   -0.6217 H   0  0  0  0  0  0  0  0  0  0  0  0
   -2.8792    2.5553    3.2652 H   0  0  0  0  0  0  0  0  0  0  0  0
   -7.1412    2.2858    1.1488 H   0  0  0  0  0  0  0  0  0  0  0  0
   -7.5217    1.0873   -1.0749 H   0  0  0  0  0  0  0  0  0  0  0  0
   -5.5477   -0.0595   -2.0884 H   0  0  0  0  0  0  0  0  0  0  0  0
   -2.9863   -1.2800    1.7088 H   0  0  0  0  0  0  0  0  0  0  0  0
   -2.7428   -1.5667   -0.0319 H   0  0  0  0  0  0  0  0  0  0  0  0
   -2.3164   -3.6406    1.2491 H   0  0  0  0  0  0  0  0  0  0  0  0
   -1.1419   -2.7937    2.2632 H   0  0  0  0  0  0  0  0  0  0  0  0
   -0.8988   -3.3223   -0.7510 H   0  0  0  0  0  0  0  0  0  0  0  0
    0.1262   -3.9759    0.5523 H   0  0  0  0  0  0  0  0  0  0  0  0
    4.2637   -1.9654   -1.3356 H   0  0  0  0  0  0  0  0  0  0  0  0
    6.4261   -0.9785   -1.9077 H   0  0  0  0  0  0  0  0  0  0  0  0
  1  2  1  0
  2  3  2  0
  3  4  1  0
  4  5  2  0
  5  6  1  0
  6  7  2  0
  7  8  1  0
  8  9  1  0
  9 10  2  0
  9 11  1  0
 11 12  1  0
 12 13  2  0
 12 14  1  0
 14 15  1  0
 15 16  2  0
 16 17  1  0
 17 18  1  0
 18 19  2  0
 19 20  1  0
 20 21  2  0
 21 22  1  0
 11 23  1  0
 23 24  1  0
 24 25  1  0
  5 26  1  0
 26 27  2  0
 27  2  1  0
 10  6  1  0
 22 14  2  0
 25  8  1  0
 22 17  1  0
  1 28  1  0
  1 29  1  0
  1 30  1  0
  3 31  1  0
  4 32  1  0
  7 33  1  0
 15 34  1  0
 18 35  1  0
 19 36  1  0
 20 37  1  0
 23 38  1  0
 23 39  1  0
 24 40  1  0
 24 41  1  0
 25 42  1  0
 25 43  1  0
 26 44  1  0
 27 45  1  0
M  END
$$$$
