
     RDKit          3D

 49 51  0  0  0  0  0  0  0  0999 V2000
    5.2151    1.8627   -1.3324 C   0  0  0  0  0  0  0  0  0  0  0  0
    6.0500    1.2815   -0.2885 N   0  0  0  0  0  0  0  0  0  0  0  0
    7.4504    1.6720   -0.2989 C   0  0  0  0  0  0  0  0  0  0  0  0
    5.7014    0.1495    0.4480 C   0  0  0  0  0  0  0  0  0  0  0  0
    6.4767   -0.4844    1.1572 O   0  0  0  0  0  0  0  0  0  0  0  0
    4.3179   -0.3313    0.3796 C   0  0  0  0  0  0  0  0  0  0  0  0
    3.9670   -1.3837   -0.4603 C   0  0  0  0  0  0  0  0  0  0  0  0
    2.6444   -1.8201   -0.4632 C   0  0  0  0  0  0  0  0  0  0  0  0
    1.7380   -1.1963    0.3856 C   0  0  0  0  0  0  0  0  0  0  0  0
    0.4406   -1.6619    0.3352 O   0  0  0  0  0  0  0  0  0  0  0  0
   -0.4048   -1.2189    1.4079 C   0  0  0  0  0  0  0  0  0  0  0  0
   -1.4475   -2.3151    1.6554 C   0  0  0  0  0  0  0  0  0  0  0  0
   -2.4187   -2.4506    0.4877 C   0  0  0  0  0  0  0  0  0  0  0  0
   -3.0334   -1.1698    0.1560 N   0  0  0  0  0  0  0  0  0  0  0  0
   -4.2711   -1.2236   -0.4988 C   0  0  0  0  0  0  0  0  0  0  0  0
   -4.7990   -2.2721   -0.8640 O   0  0  0  0  0  0  0  0  0  0  0  0
   -5.0149    0.0421   -0.7176 C   0  0  0  0  0  0  0  0  0  0  0  0
   -5.1494    0.9799    0.3147 C   0  0  0  0  0  0  0  0  0  0  0  0
   -5.8898    2.1440    0.1040 C   0  0  0  0  0  0  0  0  0  0  0  0
   -6.5081    2.3637   -1.1279 C   0  0  0  0  0  0  0  0  0  0  0  0
   -6.3952    1.4181   -2.1490 C   0  0  0  0  0  0  0  0  0  0  0  0
   -5.6561    0.2521   -1.9427 C   0  0  0  0  0  0  0  0  0  0  0  0
   -2.0828   -0.0882   -0.1111 C   0  0  0  0  0  0  0  0  0  0  0  0
   -1.1041    0.0949    1.0431 C   0  0  0  0  0  0  0  0  0  0  0  0
    2.0577   -0.1732    1.2088 N   0  0  0  0  0  0  0  0  0  0  0  0
    3.3522    0.2279    1.2014 C   0  0  0  0  0  0  0  0  0  0  0  0
    5.4808    1.3951   -2.2864 H   0  0  0  0  0  0  0  0  0  0  0  0
    5.4033    2.9380   -1.3876 H   0  0  0  0  0  0  0  0  0  0  0  0
    4.1517    1.7047   -1.1468 H   0  0  0  0  0  0  0  0  0  0  0  0
    7.5212    2.7643   -0.3272 H   0  0  0  0  0  0  0  0  0  0  0  0
    7.9755    1.3105    0.5913 H   0  0  0  0  0  0  0  0  0  0  0  0
    7.9265    1.2466   -1.1887 H   0  0  0  0  0  0  0  0  0  0  0  0
    4.7103   -1.8623   -1.0917 H   0  0  0  0  0  0  0  0  0  0  0  0
    2.3268   -2.6369   -1.1010 H   0  0  0  0  0  0  0  0  0  0  0  0
    0.1660   -1.1048    2.3389 H   0  0  0  0  0  0  0  0  0  0  0  0
   -2.0111   -2.0710    2.5648 H   0  0  0  0  0  0  0  0  0  0  0  0
   -0.9514   -3.2784    1.8184 H   0  0  0  0  0  0  0  0  0  0  0  0
   -1.9135   -2.8280   -0.4100 H   0  0  0  0  0  0  0  0  0  0  0  0
   -3.1963   -3.1762    0.7520 H   0  0  0  0  0  0  0  0  0  0  0  0
   -4.6911    0.7997    1.2843 H   0  0  0  0  0  0  0  0  0  0  0  0
   -5.9952    2.8739    0.9031 H   0  0  0  0  0  0  0  0  0  0  0  0
   -7.0914    3.2672   -1.2880 H   0  0  0  0  0  0  0  0  0  0  0  0
   -6.8938    1.5826   -3.1010 H   0  0  0  0  0  0  0  0  0  0  0  0
   -5.5850   -0.4957   -2.7289 H   0  0  0  0  0  0  0  0  0  0  0  0
   -2.5939    0.8571   -0.3072 H   0  0  0  0  0  0  0  0  0  0  0  0
   -1.5504   -0.3450   -1.0360 H   0  0  0  0  0  0  0  0  0  0  0  0
   -0.3734    0.8598    0.7601 H   0  0  0  0  0  0  0  0  0  0  0  0
   -1.6470    0.4685    1.9193 H   0  0  0  0  0  0  0  0  0  0  0  0
    3.5950    1.0312    1.8906 H   0  0  0  0  0  0  0  0  0  0  0  0
  1  2  1  0
  2  3  1  0
  2  4  1  0
  4  5  2  0
  4  6  1  0
  6  7  2  0
  7  8  1  0
  8  9  2  0
  9 10  1  0
 10 11  1  0
 11 12  1  0
 12 13  1  0
 13 14  1  0
 14 15  1  0
 15 16  2  0
 15 17  1  0
 17 18  2  0
 18 19  1  0
 19 20  2  0
 20 21  1  0
 21 22  2  0
 14 23  1  0
 23 24  1  0
  9 25  1  0
 25 26  2  0
 26  6  1  0
 24 11  1  0
 22 17  1  0
  1 27  1  0
  1 28  1  0
  1 29  1  0
  3 30  1  0
  3 31  1  0
  3 32  1  0
  7 33  1  0
  8 34  1  0
 11 35  1  0
 12 36  1  0
 12 37  1  0
 13 38  1  0
 13 39  1  0
 18 40  1  0
 19 41  1  0
 20 42  1  0
 21 43  1  0
 22 44  1  0
 23 45  1  0
 23 46  1  0
 24 47  1  0
 24 48  1  0
 26 49  1  0
M  END
$$$$
