
     RDKit          3D

 44 46  0  0  0  0  0  0  0  0999 V2000
    6.1041    0.1488   -1.4861 C   0  0  0  0  0  0  0  0  0  0  0  0
    5.3265   -0.4420   -0.4533 O   0  0  0  0  0  0  0  0  0  0  0  0
    5.3128    0.3403    0.7492 C   0  0  0  0  0  0  0  0  0  0  0  0
    4.1797    1.3698    0.7092 C   0  0  0  0  0  0  0  0  0  0  0  0
    2.8797    0.7236    0.6505 N   0  0  0  0  0  0  0  0  0  0  0  0
    2.2504    0.2996    1.8012 C   0  0  0  0  0  0  0  0  0  0  0  0
    2.6566    0.5833    2.9234 O   0  0  0  0  0  0  0  0  0  0  0  0
    1.0766   -0.5297    1.5974 C   0  0  0  0  0  0  0  0  0  0  0  0
    0.3338   -1.2138    2.6125 C   0  0  0  0  0  0  0  0  0  0  0  0
   -0.7237   -1.8940    2.1377 N   0  0  0  0  0  0  0  0  0  0  0  0
   -0.6334   -1.6617    0.8365 N   0  0  0  0  0  0  0  0  0  0  0  0
    0.3793   -0.8436    0.4536 C   0  0  0  0  0  0  0  0  0  0  0  0
    0.3042   -0.6049   -1.0034 C   0  0  0  0  0  0  0  0  0  0  0  0
   -1.1647   -1.0374   -1.3238 C   0  0  2  0  0  0  0  0  0  0  0  0
   -2.0581    0.1262   -1.3035 N   0  0  0  0  0  0  0  0  0  0  0  0
   -3.3505    0.0208   -1.7765 C   0  0  0  0  0  0  0  0  0  0  0  0
   -3.7768   -0.9939   -2.3192 O   0  0  0  0  0  0  0  0  0  0  0  0
   -4.1924    1.2625   -1.5589 C   0  0  0  0  0  0  0  0  0  0  0  0
   -4.9922    1.3263   -0.2904 C   0  0  0  0  0  0  0  0  0  0  0  0
   -5.7315    0.1229    0.2371 C   0  0  0  0  0  0  0  0  0  0  0  0
   -4.5624    0.6819    1.0052 C   0  0  0  0  0  0  0  0  0  0  0  0
   -1.5372   -2.0676   -0.2266 C   0  0  0  0  0  0  0  0  0  0  0  0
    6.0619   -0.5047   -2.3616 H   0  0  0  0  0  0  0  0  0  0  0  0
    5.7061    1.1282   -1.7660 H   0  0  0  0  0  0  0  0  0  0  0  0
    7.1483    0.2395   -1.1726 H   0  0  0  0  0  0  0  0  0  0  0  0
    6.2822    0.8281    0.9029 H   0  0  0  0  0  0  0  0  0  0  0  0
    5.1573   -0.3564    1.5795 H   0  0  0  0  0  0  0  0  0  0  0  0
    4.2265    2.0142    1.5933 H   0  0  0  0  0  0  0  0  0  0  0  0
    4.2513    1.9971   -0.1839 H   0  0  0  0  0  0  0  0  0  0  0  0
    2.6752    0.2162   -0.1985 H   0  0  0  0  0  0  0  0  0  0  0  0
    0.5334   -1.2262    3.6779 H   0  0  0  0  0  0  0  0  0  0  0  0
    1.0138   -1.2569   -1.5242 H   0  0  0  0  0  0  0  0  0  0  0  0
    0.4993    0.4370   -1.2742 H   0  0  0  0  0  0  0  0  0  0  0  0
   -1.2369   -1.4836   -2.3223 H   0  0  0  0  0  0  0  0  0  0  0  0
   -1.8827    0.8489   -0.6118 H   0  0  0  0  0  0  0  0  0  0  0  0
   -4.8730    1.3480   -2.4144 H   0  0  0  0  0  0  0  0  0  0  0  0
   -3.5386    2.1420   -1.6081 H   0  0  0  0  0  0  0  0  0  0  0  0
   -5.5093    2.2790   -0.2184 H   0  0  0  0  0  0  0  0  0  0  0  0
   -6.7256    0.2750    0.6439 H   0  0  0  0  0  0  0  0  0  0  0  0
   -5.6064   -0.8357   -0.2549 H   0  0  0  0  0  0  0  0  0  0  0  0
   -3.6620    0.0825    1.0521 H   0  0  0  0  0  0  0  0  0  0  0  0
   -4.7741    1.2102    1.9291 H   0  0  0  0  0  0  0  0  0  0  0  0
   -1.2597   -3.0884   -0.5055 H   0  0  0  0  0  0  0  0  0  0  0  0
   -2.5679   -2.0113    0.1290 H   0  0  0  0  0  0  0  0  0  0  0  0
  1  2  1  0
  2  3  1  0
  3  4  1  0
  4  5  1  0
  5  6  1  0
  6  7  2  0
  6  8  1  0
  8  9  1  0
  9 10  2  0
 10 11  1  0
 11 12  1  0
 12 13  1  0
 13 14  1  0
 14 15  1  0
 15 16  1  0
 16 17  2  0
 16 18  1  0
 18 19  1  0
 19 20  1  0
 20 21  1  0
 14 22  1  0
 12  8  2  0
 21 19  1  0
 22 11  1  0
  1 23  1  0
  1 24  1  0
  1 25  1  0
  3 26  1  0
  3 27  1  0
  4 28  1  0
  4 29  1  0
  5 30  1  0
  9 31  1  0
 13 32  1  0
 13 33  1  0
 14 34  1  6
 15 35  1  0
 18 36  1  0
 18 37  1  0
 19 38  1  0
 20 39  1  0
 20 40  1  0
 21 41  1  0
 21 42  1  0
 22 43  1  0
 22 44  1  0
M  END
$$$$
