
     RDKit          3D

 55 58  0  0  0  0  0  0  0  0999 V2000
   -0.8175   -0.3841    4.7976 C   0  0  0  0  0  0  0  0  0  0  0  0
   -1.4380    0.1498    3.5242 C   0  0  0  0  0  0  0  0  0  0  0  0
   -2.1257   -0.9270    2.8837 O   0  0  0  0  0  0  0  0  0  0  0  0
   -2.8506   -0.5156    1.7874 C   0  0  0  0  0  0  0  0  0  0  0  0
   -4.1604    0.0012    2.0772 C   0  0  0  0  0  0  0  0  0  0  0  0
   -4.9968    0.3123    1.0838 C   0  0  0  0  0  0  0  0  0  0  0  0
   -4.6507    0.1723   -0.2613 N   0  0  0  0  0  0  0  0  0  0  0  0
   -5.6018    0.4986   -1.3040 C   0  0  0  0  0  0  0  0  0  0  0  0
   -5.5825   -0.1528   -2.5514 C   0  0  0  0  0  0  0  0  0  0  0  0
   -6.5259    0.1442   -3.5436 C   0  0  0  0  0  0  0  0  0  0  0  0
   -7.5032    1.0949   -3.2978 C   0  0  0  0  0  0  0  0  0  0  0  0
   -8.4122    1.3728   -4.2444 F   0  0  0  0  0  0  0  0  0  0  0  0
   -7.5513    1.7597   -2.0811 C   0  0  0  0  0  0  0  0  0  0  0  0
   -6.6063    1.4636   -1.0904 C   0  0  0  0  0  0  0  0  0  0  0  0
   -3.3592   -0.3023   -0.6109 C   0  0  0  0  0  0  0  0  0  0  0  0
   -2.8971   -0.3387   -1.7526 O   0  0  0  0  0  0  0  0  0  0  0  0
   -2.4723   -0.7198    0.5149 C   0  0  0  0  0  0  0  0  0  0  0  0
   -1.1738   -1.3719    0.2304 C   0  0  0  0  0  0  0  0  0  0  0  0
   -1.1258   -2.5739    0.0197 O   0  0  0  0  0  0  0  0  0  0  0  0
   -0.1151   -0.4821    0.2709 N   0  0  0  0  0  0  0  0  0  0  0  0
    1.2497   -0.7727    0.0728 C   0  0  0  0  0  0  0  0  0  0  0  0
    1.7290   -2.0131   -0.3597 C   0  0  0  0  0  0  0  0  0  0  0  0
    3.1026   -2.2264   -0.5293 C   0  0  0  0  0  0  0  0  0  0  0  0
    4.0118   -1.1984   -0.2737 C   0  0  0  0  0  0  0  0  0  0  0  0
    5.3419   -1.5147   -0.4287 O   0  0  0  0  0  0  0  0  0  0  0  0
    6.1817   -0.5294   -0.8975 C   0  0  0  0  0  0  0  0  0  0  0  0
    5.9819    0.0270   -2.1594 C   0  0  0  0  0  0  0  0  0  0  0  0
    6.8829    0.9828   -2.5896 C   0  0  0  0  0  0  0  0  0  0  0  0
    7.9473    1.3980   -1.8651 N   0  0  0  0  0  0  0  0  0  0  0  0
    8.1408    0.8312   -0.6547 C   0  0  0  0  0  0  0  0  0  0  0  0
    9.2939    1.2518    0.0148 N   0  0  0  0  0  0  0  0  0  0  0  0
    7.2873   -0.1472   -0.1338 C   0  0  0  0  0  0  0  0  0  0  0  0
    7.5710   -0.8378    1.4223 Cl  0  0  0  0  0  0  0  0  0  0  0  0
    3.5331    0.0320    0.1804 C   0  0  0  0  0  0  0  0  0  0  0  0
    4.3731    1.0270    0.5099 F   0  0  0  0  0  0  0  0  0  0  0  0
    2.1652    0.2524    0.3360 C   0  0  0  0  0  0  0  0  0  0  0  0
   -0.1775   -1.2451    4.5863 H   0  0  0  0  0  0  0  0  0  0  0  0
   -1.5919   -0.7256    5.4933 H   0  0  0  0  0  0  0  0  0  0  0  0
   -0.2174    0.3841    5.2919 H   0  0  0  0  0  0  0  0  0  0  0  0
   -2.1233    0.9639    3.7638 H   0  0  0  0  0  0  0  0  0  0  0  0
   -0.6547    0.5343    2.8661 H   0  0  0  0  0  0  0  0  0  0  0  0
   -4.4786    0.0761    3.1122 H   0  0  0  0  0  0  0  0  0  0  0  0
   -6.0031    0.6387    1.3244 H   0  0  0  0  0  0  0  0  0  0  0  0
   -4.8581   -0.9329   -2.7752 H   0  0  0  0  0  0  0  0  0  0  0  0
   -6.5014   -0.3678   -4.5020 H   0  0  0  0  0  0  0  0  0  0  0  0
   -8.3174    2.5092   -1.9105 H   0  0  0  0  0  0  0  0  0  0  0  0
   -6.6546    2.0398   -0.1697 H   0  0  0  0  0  0  0  0  0  0  0  0
   -0.3389    0.4794    0.4837 H   0  0  0  0  0  0  0  0  0  0  0  0
    1.0574   -2.8369   -0.5899 H   0  0  0  0  0  0  0  0  0  0  0  0
    3.4576   -3.1991   -0.8688 H   0  0  0  0  0  0  0  0  0  0  0  0
    5.1569   -0.2763   -2.7886 H   0  0  0  0  0  0  0  0  0  0  0  0
    6.7776    1.4528   -3.5626 H   0  0  0  0  0  0  0  0  0  0  0  0
    9.0943    1.5006    0.9744 H   0  0  0  0  0  0  0  0  0  0  0  0
    9.7040    2.0133   -0.5197 H   0  0  0  0  0  0  0  0  0  0  0  0
    1.8418    1.2279    0.6942 H   0  0  0  0  0  0  0  0  0  0  0  0
  1  2  1  0
  2  3  1  0
  3  4  1  0
  4  5  1  0
  5  6  2  0
  6  7  1  0
  7  8  1  0
  8  9  2  0
  9 10  1  0
 10 11  2  0
 11 12  1  0
 11 13  1  0
 13 14  2  0
  7 15  1  0
 15 16  2  0
 15 17  1  0
 17 18  1  0
 18 19  2  0
 18 20  1  0
 20 21  1  0
 21 22  2  0
 22 23  1  0
 23 24  2  0
 24 25  1  0
 25 26  1  0
 26 27  2  0
 27 28  1  0
 28 29  2  0
 29 30  1  0
 30 31  1  0
 30 32  2  0
 32 33  1  0
 24 34  1  0
 34 35  1  0
 34 36  2  0
 17  4  2  0
 36 21  1  0
 14  8  1  0
 32 26  1  0
  1 37  1  0
  1 38  1  0
  1 39  1  0
  2 40  1  0
  2 41  1  0
  5 42  1  0
  6 43  1  0
  9 44  1  0
 10 45  1  0
 13 46  1  0
 14 47  1  0
 20 48  1  0
 22 49  1  0
 23 50  1  0
 27 51  1  0
 28 52  1  0
 31 53  1  0
 31 54  1  0
 36 55  1  0
M  END
$$$$
