
     RDKit          3D

 18 18  0  0  0  0  0  0  0  0999 V2000
   -1.3211   -2.8902   -0.0821 Cl  0  0  0  0  0  0  0  0  0  0  0  0
   -0.5484   -1.2901   -0.3856 C   0  0  1  0  0  0  0  0  0  0  0  0
   -1.4491   -0.1132    0.0343 C   0  0  2  0  0  0  0  0  0  0  0  0
   -3.0949   -0.2122   -0.6945 Cl  0  0  0  0  0  0  0  0  0  0  0  0
   -0.7945    1.2439   -0.3045 C   0  0  2  0  0  0  0  0  0  0  0  0
   -0.7349    1.5396   -2.0850 Cl  0  0  0  0  0  0  0  0  0  0  0  0
    0.6230    1.3755    0.2853 C   0  0  1  0  0  0  0  0  0  0  0  0
    0.4754    1.7713    2.0413 Cl  0  0  0  0  0  0  0  0  0  0  0  0
    1.5279    0.1356    0.0930 C   0  0  2  0  0  0  0  0  0  0  0  0
    2.2518    0.1447   -1.5617 Cl  0  0  0  0  0  0  0  0  0  0  0  0
    0.8284   -1.2201    0.3104 C   0  0  1  0  0  0  0  0  0  0  0  0
    0.7088   -1.5580    2.0804 Cl  0  0  0  0  0  0  0  0  0  0  0  0
   -0.3979   -1.2684   -1.4701 H   0  0  0  0  0  0  0  0  0  0  0  0
   -1.6323   -0.1579    1.1131 H   0  0  0  0  0  0  0  0  0  0  0  0
   -1.4281    2.0537    0.0766 H   0  0  0  0  0  0  0  0  0  0  0  0
    1.1185    2.2607   -0.1301 H   0  0  0  0  0  0  0  0  0  0  0  0
    2.4024    0.2129    0.7493 H   0  0  0  0  0  0  0  0  0  0  0  0
    1.4650   -2.0277   -0.0701 H   0  0  0  0  0  0  0  0  0  0  0  0
  1  2  1  0
  2  3  1  0
  3  4  1  0
  3  5  1  0
  5  6  1  0
  5  7  1  0
  7  8  1  0
  7  9  1  0
  9 10  1  0
  9 11  1  0
 11 12  1  0
 11  2  1  0
  2 13  1  6
  3 14  1  1
  5 15  1  1
  7 16  1  6
  9 17  1  1
 11 18  1  6
M  END
$$$$
