
     RDKit          3D

 42 44  0  0  0  0  0  0  0  0999 V2000
   -8.4011    0.6977   -0.4817 C   0  0  0  0  0  0  0  0  0  0  0  0
   -6.9394    0.3860   -0.3855 C   0  0  0  0  0  0  0  0  0  0  0  0
   -6.4868   -0.9296   -0.2602 C   0  0  0  0  0  0  0  0  0  0  0  0
   -5.1177   -1.1948   -0.1445 C   0  0  0  0  0  0  0  0  0  0  0  0
   -4.1808   -0.1526   -0.1427 C   0  0  0  0  0  0  0  0  0  0  0  0
   -2.8274   -0.5091   -0.0228 N   0  0  0  0  0  0  0  0  0  0  0  0
   -1.7222    0.3159    0.0050 C   0  0  0  0  0  0  0  0  0  0  0  0
   -1.7070    1.5382   -0.0712 O   0  0  0  0  0  0  0  0  0  0  0  0
   -0.4877   -0.4644    0.1416 C   0  0  0  0  0  0  0  0  0  0  0  0
    0.8011    0.0281    0.2089 C   0  0  0  0  0  0  0  0  0  0  0  0
    1.6257   -1.0659    0.3302 N   0  0  0  0  0  0  0  0  0  0  0  0
    3.0429   -1.1114    0.4305 C   0  0  0  0  0  0  0  0  0  0  0  0
    3.7818    0.0574    0.4248 C   0  0  0  0  0  0  0  0  0  0  0  0
    5.1603   -0.0572    0.5239 C   0  0  0  0  0  0  0  0  0  0  0  0
    5.9541    1.1103    0.5383 N   0  0  0  0  0  0  0  0  0  0  0  0
    5.8249    1.9047   -0.6854 C   0  0  0  0  0  0  0  0  0  0  0  0
    7.3413    0.8552    0.9342 C   0  0  0  0  0  0  0  0  0  0  0  0
    5.7421   -1.2632    0.6461 N   0  0  0  0  0  0  0  0  0  0  0  0
    4.9450   -2.3381    0.6410 C   0  0  0  0  0  0  0  0  0  0  0  0
    3.6129   -2.3300    0.5312 N   0  0  0  0  0  0  0  0  0  0  0  0
    0.7962   -2.1675    0.3324 C   0  0  0  0  0  0  0  0  0  0  0  0
   -0.4751   -1.8463    0.2208 N   0  0  0  0  0  0  0  0  0  0  0  0
   -4.6325    1.1609   -0.2546 C   0  0  0  0  0  0  0  0  0  0  0  0
   -5.9981    1.4173   -0.3699 C   0  0  0  0  0  0  0  0  0  0  0  0
   -6.4095    2.6903   -0.4672 F   0  0  0  0  0  0  0  0  0  0  0  0
   -8.5804    1.4877   -1.2184 H   0  0  0  0  0  0  0  0  0  0  0  0
   -8.9727   -0.1800   -0.8014 H   0  0  0  0  0  0  0  0  0  0  0  0
   -8.7800    1.0234    0.4920 H   0  0  0  0  0  0  0  0  0  0  0  0
   -7.1922   -1.7575   -0.2521 H   0  0  0  0  0  0  0  0  0  0  0  0
   -4.7946   -2.2295   -0.0532 H   0  0  0  0  0  0  0  0  0  0  0  0
   -2.5987   -1.4979    0.0548 H   0  0  0  0  0  0  0  0  0  0  0  0
    1.1556    1.0478    0.1778 H   0  0  0  0  0  0  0  0  0  0  0  0
    3.3288    1.0371    0.3778 H   0  0  0  0  0  0  0  0  0  0  0  0
    6.4734    2.7866   -0.6313 H   0  0  0  0  0  0  0  0  0  0  0  0
    6.1168    1.3255   -1.5694 H   0  0  0  0  0  0  0  0  0  0  0  0
    4.8056    2.2788   -0.8263 H   0  0  0  0  0  0  0  0  0  0  0  0
    7.3917    0.3581    1.9101 H   0  0  0  0  0  0  0  0  0  0  0  0
    7.8771    1.8054    1.0395 H   0  0  0  0  0  0  0  0  0  0  0  0
    7.8742    0.2520    0.1895 H   0  0  0  0  0  0  0  0  0  0  0  0
    5.4272   -3.3051    0.7346 H   0  0  0  0  0  0  0  0  0  0  0  0
    1.1845   -3.1750    0.4182 H   0  0  0  0  0  0  0  0  0  0  0  0
   -3.9596    2.0106   -0.2536 H   0  0  0  0  0  0  0  0  0  0  0  0
  1  2  1  0
  2  3  2  0
  3  4  1  0
  4  5  2  0
  5  6  1  0
  6  7  1  0
  7  8  2  0
  7  9  1  0
  9 10  2  0
 10 11  1  0
 11 12  1  0
 12 13  2  0
 13 14  1  0
 14 15  1  0
 15 16  1  0
 15 17  1  0
 14 18  2  0
 18 19  1  0
 19 20  2  0
 11 21  1  0
 21 22  2  0
  5 23  1  0
 23 24  2  0
 24 25  1  0
 24  2  1  0
 22  9  1  0
 20 12  1  0
  1 26  1  0
  1 27  1  0
  1 28  1  0
  3 29  1  0
  4 30  1  0
  6 31  1  0
 10 32  1  0
 13 33  1  0
 16 34  1  0
 16 35  1  0
 16 36  1  0
 17 37  1  0
 17 38  1  0
 17 39  1  0
 19 40  1  0
 21 41  1  0
 23 42  1  0
M  END
$$$$
