
     RDKit          3D

 51 54  0  0  0  0  0  0  0  0999 V2000
    4.8008    0.1028    3.0670 C   0  0  0  0  0  0  0  0  0  0  0  0
    3.4783    0.1083    2.3541 C   0  0  0  0  0  0  0  0  0  0  0  0
    2.6149   -0.9810    2.5643 C   0  0  0  0  0  0  0  0  0  0  0  0
    1.3601   -1.0455    1.9498 C   0  0  0  0  0  0  0  0  0  0  0  0
    0.9230   -0.0177    1.1097 C   0  0  0  0  0  0  0  0  0  0  0  0
   -0.3869   -0.0931    0.4721 C   0  0  0  0  0  0  0  0  0  0  0  0
   -0.8493    0.8157   -0.4019 N   0  0  0  0  0  0  0  0  0  0  0  0
   -2.1095    0.3344   -0.7419 O   0  0  0  0  0  0  0  0  0  0  0  0
   -2.3027   -0.8175   -0.0385 C   0  0  0  0  0  0  0  0  0  0  0  0
   -3.5233   -1.6098   -0.1744 C   0  0  0  0  0  0  0  0  0  0  0  0
   -3.5542   -2.7822    0.2133 O   0  0  0  0  0  0  0  0  0  0  0  0
   -4.6879   -1.0410   -0.7384 N   0  0  0  0  0  0  0  0  0  0  0  0
   -4.8285    0.3637   -1.1299 C   0  0  0  0  0  0  0  0  0  0  0  0
   -6.2414    0.7299   -1.5800 C   0  0  0  0  0  0  0  0  0  0  0  0
   -7.2896    0.2566   -0.5778 C   0  0  0  0  0  0  0  0  0  0  0  0
   -7.0621   -1.1853   -0.1144 C   0  0  0  0  0  0  0  0  0  0  0  0
   -5.8963   -1.8618   -0.8299 C   0  0  0  0  0  0  0  0  0  0  0  0
   -1.2609   -1.1280    0.7089 N   0  0  0  0  0  0  0  0  0  0  0  0
    1.7716    1.0750    0.8956 C   0  0  0  0  0  0  0  0  0  0  0  0
    3.0454    1.1350    1.4968 C   0  0  0  0  0  0  0  0  0  0  0  0
    4.0214    2.5823    1.0957 S   0  0  0  0  0  6  0  0  0  0  0  0
    3.1309    3.7220    1.1653 O   0  0  0  0  0  0  0  0  0  0  0  0
    5.2686    2.5695    1.8245 O   0  0  0  0  0  0  0  0  0  0  0  0
    4.3586    2.3576   -0.5448 N   0  0  0  0  0  0  0  0  0  0  0  0
    4.9879    1.1535   -0.9702 C   0  0  0  0  0  0  0  0  0  0  0  0
    4.3330    0.3319   -1.8842 C   0  0  0  0  0  0  0  0  0  0  0  0
    4.9313   -0.8618   -2.2828 C   0  0  0  0  0  0  0  0  0  0  0  0
    6.1702   -1.1880   -1.7538 C   0  0  0  0  0  0  0  0  0  0  0  0
    6.8366   -0.4107   -0.8739 N   0  0  0  0  0  0  0  0  0  0  0  0
    6.2338    0.7459   -0.5044 C   0  0  0  0  0  0  0  0  0  0  0  0
    5.6278    0.0969    2.3525 H   0  0  0  0  0  0  0  0  0  0  0  0
    4.8777    0.9626    3.7392 H   0  0  0  0  0  0  0  0  0  0  0  0
    4.9167   -0.7925    3.6883 H   0  0  0  0  0  0  0  0  0  0  0  0
    2.9129   -1.8003    3.2182 H   0  0  0  0  0  0  0  0  0  0  0  0
    0.7245   -1.9099    2.1403 H   0  0  0  0  0  0  0  0  0  0  0  0
   -4.1363    0.5621   -1.9543 H   0  0  0  0  0  0  0  0  0  0  0  0
   -4.5402    0.9830   -0.2729 H   0  0  0  0  0  0  0  0  0  0  0  0
   -6.4443    0.2695   -2.5554 H   0  0  0  0  0  0  0  0  0  0  0  0
   -6.3204    1.8132   -1.7251 H   0  0  0  0  0  0  0  0  0  0  0  0
   -8.2871    0.3519   -1.0226 H   0  0  0  0  0  0  0  0  0  0  0  0
   -7.2814    0.9171    0.2981 H   0  0  0  0  0  0  0  0  0  0  0  0
   -7.9766   -1.7715   -0.2602 H   0  0  0  0  0  0  0  0  0  0  0  0
   -6.8665   -1.1796    0.9655 H   0  0  0  0  0  0  0  0  0  0  0  0
   -5.7445   -2.8606   -0.4101 H   0  0  0  0  0  0  0  0  0  0  0  0
   -6.1213   -1.9988   -1.8943 H   0  0  0  0  0  0  0  0  0  0  0  0
    1.4419    1.8939    0.2570 H   0  0  0  0  0  0  0  0  0  0  0  0
    3.6599    2.7844   -1.1502 H   0  0  0  0  0  0  0  0  0  0  0  0
    3.3591    0.5991   -2.2826 H   0  0  0  0  0  0  0  0  0  0  0  0
    4.4418   -1.5248   -2.9879 H   0  0  0  0  0  0  0  0  0  0  0  0
    6.6748   -2.1089   -2.0332 H   0  0  0  0  0  0  0  0  0  0  0  0
    6.8077    1.3524    0.1908 H   0  0  0  0  0  0  0  0  0  0  0  0
  1  2  1  0
  2  3  2  0
  3  4  1  0
  4  5  2  0
  5  6  1  0
  6  7  2  0
  7  8  1  0
  8  9  1  0
  9 10  1  0
 10 11  2  0
 10 12  1  0
 12 13  1  0
 13 14  1  0
 14 15  1  0
 15 16  1  0
 16 17  1  0
  9 18  2  0
  5 19  1  0
 19 20  2  0
 20 21  1  0
 21 22  2  0
 21 23  2  0
 21 24  1  0
 24 25  1  0
 25 26  2  0
 26 27  1  0
 27 28  2  0
 28 29  1  0
 29 30  2  0
 20  2  1  0
 30 25  1  0
 18  6  1  0
 17 12  1  0
  1 31  1  0
  1 32  1  0
  1 33  1  0
  3 34  1  0
  4 35  1  0
 13 36  1  0
 13 37  1  0
 14 38  1  0
 14 39  1  0
 15 40  1  0
 15 41  1  0
 16 42  1  0
 16 43  1  0
 17 44  1  0
 17 45  1  0
 19 46  1  0
 24 47  1  0
 26 48  1  0
 27 49  1  0
 28 50  1  0
 30 51  1  0
M  END
$$$$
