
     RDKit          3D

 26 26  0  0  0  0  0  0  0  0999 V2000
    2.9333    1.0050   -0.9301 C   0  0  0  0  0  0  0  0  0  0  0  0
    2.3228    0.4408    0.3435 C   0  0  0  0  0  0  0  0  0  0  0  0
    1.8131   -0.9964    0.1935 C   0  0  0  0  0  0  0  0  0  0  0  0
    0.6516   -1.1813   -0.7917 C   0  0  0  0  0  0  0  0  0  0  0  0
   -0.6276   -0.4985   -0.3684 C   0  0  0  0  0  0  0  0  0  0  0  0
   -1.0096    0.6857   -1.0240 C   0  0  0  0  0  0  0  0  0  0  0  0
   -2.1739    1.3655   -0.6602 C   0  0  0  0  0  0  0  0  0  0  0  0
   -2.9686    0.8679    0.3625 C   0  0  0  0  0  0  0  0  0  0  0  0
   -4.0963    1.5616    0.6888 O   0  0  0  0  0  0  0  0  0  0  0  0
   -2.6187   -0.3012    1.0261 C   0  0  0  0  0  0  0  0  0  0  0  0
   -1.4554   -0.9781    0.6575 C   0  0  0  0  0  0  0  0  0  0  0  0
   -1.1946   -2.1235    1.3565 O   0  0  0  0  0  0  0  0  0  0  0  0
    3.3633    1.9926   -0.7340 H   0  0  0  0  0  0  0  0  0  0  0  0
    2.1861    1.1212   -1.7197 H   0  0  0  0  0  0  0  0  0  0  0  0
    3.7326    0.3567   -1.3029 H   0  0  0  0  0  0  0  0  0  0  0  0
    1.5193    1.0998    0.6900 H   0  0  0  0  0  0  0  0  0  0  0  0
    3.0909    0.4513    1.1265 H   0  0  0  0  0  0  0  0  0  0  0  0
    1.5209   -1.3599    1.1860 H   0  0  0  0  0  0  0  0  0  0  0  0
    2.6461   -1.6321   -0.1323 H   0  0  0  0  0  0  0  0  0  0  0  0
    0.4497   -2.2531   -0.9149 H   0  0  0  0  0  0  0  0  0  0  0  0
    0.9487   -0.8414   -1.7911 H   0  0  0  0  0  0  0  0  0  0  0  0
   -0.3979    1.0941   -1.8256 H   0  0  0  0  0  0  0  0  0  0  0  0
   -2.4572    2.2804   -1.1727 H   0  0  0  0  0  0  0  0  0  0  0  0
   -4.5416    1.0957    1.4158 H   0  0  0  0  0  0  0  0  0  0  0  0
   -3.2331   -0.7020    1.8255 H   0  0  0  0  0  0  0  0  0  0  0  0
   -0.4041   -2.5508    0.9943 H   0  0  0  0  0  0  0  0  0  0  0  0
  1  2  1  0
  2  3  1  0
  3  4  1  0
  4  5  1  0
  5  6  2  0
  6  7  1  0
  7  8  2  0
  8  9  1  0
  8 10  1  0
 10 11  2  0
 11 12  1  0
 11  5  1  0
  1 13  1  0
  1 14  1  0
  1 15  1  0
  2 16  1  0
  2 17  1  0
  3 18  1  0
  3 19  1  0
  4 20  1  0
  4 21  1  0
  6 22  1  0
  7 23  1  0
  9 24  1  0
 10 25  1  0
 12 26  1  0
M  END
$$$$
