
     RDKit          3D

 64 67  0  0  0  0  0  0  0  0999 V2000
   -4.4169    3.1566    1.5694 C   0  0  0  0  0  0  0  0  0  0  0  0
   -4.9063    2.3010    0.5429 O   0  0  0  0  0  0  0  0  0  0  0  0
   -4.1047    2.3657   -0.6300 C   0  0  0  0  0  0  0  0  0  0  0  0
   -2.6935    1.7641   -0.5073 C   0  0  0  0  0  0  0  0  0  0  0  0
   -1.7200    2.5025   -0.6765 O   0  0  0  0  0  0  0  0  0  0  0  0
   -2.5625    0.4038   -0.2041 N   0  0  0  0  0  0  0  0  0  0  0  0
   -3.7242   -0.4980   -0.0101 C   0  0  0  0  0  0  0  0  0  0  0  0
   -3.7013   -1.7196   -0.9411 C   0  0  0  0  0  0  0  0  0  0  0  0
   -4.9015   -2.6118   -0.6531 C   0  0  0  0  0  0  0  0  0  0  0  0
   -4.9252   -2.9877    0.7234 O   0  0  0  0  0  0  0  0  0  0  0  0
   -5.0753   -1.8645    1.5915 C   0  0  0  0  0  0  0  0  0  0  0  0
   -3.8874   -0.9235    1.4540 C   0  0  0  0  0  0  0  0  0  0  0  0
   -1.2158   -0.1526    0.0192 C   0  0  0  0  0  0  0  0  0  0  0  0
   -0.4190    0.4812    1.1630 C   0  0  0  0  0  0  0  0  0  0  0  0
    1.0010   -0.0151    0.8996 C   0  0  0  0  0  0  0  0  0  0  0  0
    1.0814   -0.2237   -0.5416 N   0  0  0  0  0  0  0  0  0  0  0  0
    2.1942   -0.3783   -1.3449 C   0  0  0  0  0  0  0  0  0  0  0  0
    2.0529   -0.4057   -2.5744 O   0  0  0  0  0  0  0  0  0  0  0  0
    3.6142   -0.5484   -0.7108 C   0  0  0  0  0  0  0  0  0  0  0  0
    4.0448    0.7188    0.0364 C   0  0  0  0  0  0  0  0  0  0  0  0
    4.4990    0.7072    1.3652 C   0  0  0  0  0  0  0  0  0  0  0  0
    4.8760    1.8914    2.0063 C   0  0  0  0  0  0  0  0  0  0  0  0
    4.8106    3.1072    1.3319 C   0  0  0  0  0  0  0  0  0  0  0  0
    4.3713    3.1418    0.0130 C   0  0  0  0  0  0  0  0  0  0  0  0
    3.9941    1.9604   -0.6286 C   0  0  0  0  0  0  0  0  0  0  0  0
    4.6628   -0.8272   -1.8259 C   0  0  0  0  0  0  0  0  0  0  0  0
    4.5350   -2.3111   -2.1768 C   0  0  0  0  0  0  0  0  0  0  0  0
    3.7671   -2.9536   -1.0288 C   0  0  0  0  0  0  0  0  0  0  0  0
    3.7023   -1.8851    0.0579 C   0  0  0  0  0  0  0  0  0  0  0  0
   -0.2341   -0.0735   -1.1561 C   0  0  0  0  0  0  0  0  0  0  0  0
   -4.3833    4.1945    1.2242 H   0  0  0  0  0  0  0  0  0  0  0  0
   -5.1024    3.0953    2.4189 H   0  0  0  0  0  0  0  0  0  0  0  0
   -3.4259    2.8352    1.9037 H   0  0  0  0  0  0  0  0  0  0  0  0
   -4.6284    1.8490   -1.4420 H   0  0  0  0  0  0  0  0  0  0  0  0
   -4.0127    3.4103   -0.9530 H   0  0  0  0  0  0  0  0  0  0  0  0
   -4.6349    0.0414   -0.2778 H   0  0  0  0  0  0  0  0  0  0  0  0
   -3.7055   -1.4024   -1.9897 H   0  0  0  0  0  0  0  0  0  0  0  0
   -2.7910   -2.3077   -0.7858 H   0  0  0  0  0  0  0  0  0  0  0  0
   -5.8436   -2.1152   -0.9139 H   0  0  0  0  0  0  0  0  0  0  0  0
   -4.8362   -3.5280   -1.2486 H   0  0  0  0  0  0  0  0  0  0  0  0
   -6.0206   -1.3543    1.3713 H   0  0  0  0  0  0  0  0  0  0  0  0
   -5.1345   -2.2413    2.6177 H   0  0  0  0  0  0  0  0  0  0  0  0
   -4.0189   -0.0490    2.1006 H   0  0  0  0  0  0  0  0  0  0  0  0
   -2.9861   -1.4453    1.7961 H   0  0  0  0  0  0  0  0  0  0  0  0
   -1.3203   -1.2138    0.2751 H   0  0  0  0  0  0  0  0  0  0  0  0
   -0.4339    1.5746    1.1273 H   0  0  0  0  0  0  0  0  0  0  0  0
   -0.7864    0.1830    2.1495 H   0  0  0  0  0  0  0  0  0  0  0  0
    1.7361    0.7062    1.2515 H   0  0  0  0  0  0  0  0  0  0  0  0
    1.1623   -0.9755    1.3967 H   0  0  0  0  0  0  0  0  0  0  0  0
    4.5611   -0.2147    1.9350 H   0  0  0  0  0  0  0  0  0  0  0  0
    5.2219    1.8636    3.0360 H   0  0  0  0  0  0  0  0  0  0  0  0
    5.1044    4.0259    1.8325 H   0  0  0  0  0  0  0  0  0  0  0  0
    4.3187    4.0874   -0.5203 H   0  0  0  0  0  0  0  0  0  0  0  0
    3.6522    2.0186   -1.6619 H   0  0  0  0  0  0  0  0  0  0  0  0
    5.6800   -0.6448   -1.4523 H   0  0  0  0  0  0  0  0  0  0  0  0
    4.5390   -0.1989   -2.7151 H   0  0  0  0  0  0  0  0  0  0  0  0
    3.9957   -2.4497   -3.1202 H   0  0  0  0  0  0  0  0  0  0  0  0
    5.5248   -2.7636   -2.2982 H   0  0  0  0  0  0  0  0  0  0  0  0
    2.7566   -3.2245   -1.3573 H   0  0  0  0  0  0  0  0  0  0  0  0
    4.2518   -3.8681   -0.6725 H   0  0  0  0  0  0  0  0  0  0  0  0
    4.6278   -1.9505    0.6433 H   0  0  0  0  0  0  0  0  0  0  0  0
    2.8720   -2.0749    0.7393 H   0  0  0  0  0  0  0  0  0  0  0  0
   -0.2492    0.8834   -1.6852 H   0  0  0  0  0  0  0  0  0  0  0  0
   -0.4097   -0.8684   -1.8886 H   0  0  0  0  0  0  0  0  0  0  0  0
  1  2  1  0
  2  3  1  0
  3  4  1  0
  4  5  2  0
  4  6  1  0
  6  7  1  0
  7  8  1  0
  8  9  1  0
  9 10  1  0
 10 11  1  0
 11 12  1  0
  6 13  1  0
 13 14  1  0
 14 15  1  0
 15 16  1  0
 16 17  1  0
 17 18  2  0
 17 19  1  0
 19 20  1  0
 20 21  2  0
 21 22  1  0
 22 23  2  0
 23 24  1  0
 24 25  2  0
 19 26  1  0
 26 27  1  0
 27 28  1  0
 28 29  1  0
 16 30  1  0
 12  7  1  0
 30 13  1  0
 29 19  1  0
 25 20  1  0
  1 31  1  0
  1 32  1  0
  1 33  1  0
  3 34  1  0
  3 35  1  0
  7 36  1  0
  8 37  1  0
  8 38  1  0
  9 39  1  0
  9 40  1  0
 11 41  1  0
 11 42  1  0
 12 43  1  0
 12 44  1  0
 13 45  1  0
 14 46  1  0
 14 47  1  0
 15 48  1  0
 15 49  1  0
 21 50  1  0
 22 51  1  0
 23 52  1  0
 24 53  1  0
 25 54  1  0
 26 55  1  0
 26 56  1  0
 27 57  1  0
 27 58  1  0
 28 59  1  0
 28 60  1  0
 29 61  1  0
 29 62  1  0
 30 63  1  0
 30 64  1  0
M  END
$$$$
