
     RDKit          3D

 45 48  0  0  0  0  0  0  0  0999 V2000
   -2.3723    1.2360    2.2668 O   0  0  0  0  0  0  0  0  0  0  0  0
   -2.8061    1.2229    1.1202 C   0  0  0  0  0  0  0  0  0  0  0  0
   -2.1853    1.8292    0.0556 N   0  0  0  0  0  0  0  0  0  0  0  0
   -0.8940    2.4621    0.1967 C   0  0  0  0  0  0  0  0  0  0  0  0
    0.2105    1.5257   -0.2263 C   0  0  0  0  0  0  0  0  0  0  0  0
    0.7406    1.5836   -1.5245 C   0  0  0  0  0  0  0  0  0  0  0  0
    1.7434    0.6964   -1.9203 C   0  0  0  0  0  0  0  0  0  0  0  0
    2.2188   -0.2529   -1.0125 C   0  0  0  0  0  0  0  0  0  0  0  0
    3.4892   -1.3936   -1.5050 S   0  0  0  0  0  6  0  0  0  0  0  0
    3.6594   -1.2798   -2.9419 O   0  0  0  0  0  0  0  0  0  0  0  0
    3.1724   -2.6741   -0.9007 O   0  0  0  0  0  0  0  0  0  0  0  0
    4.9935   -0.8079   -0.7662 C   0  0  0  0  0  0  0  0  0  0  0  0
    5.4925   -1.4260    0.3829 C   0  0  0  0  0  0  0  0  0  0  0  0
    6.6796   -0.9572    0.9345 C   0  0  0  0  0  0  0  0  0  0  0  0
    7.1623   -1.5362    2.0410 F   0  0  0  0  0  0  0  0  0  0  0  0
    7.3734    0.1009    0.3601 C   0  0  0  0  0  0  0  0  0  0  0  0
    6.8672    0.6919   -0.7908 C   0  0  0  0  0  0  0  0  0  0  0  0
    7.5309    1.7085   -1.3553 F   0  0  0  0  0  0  0  0  0  0  0  0
    5.6829    0.2482   -1.3682 C   0  0  0  0  0  0  0  0  0  0  0  0
    1.6876   -0.3395    0.2764 C   0  0  0  0  0  0  0  0  0  0  0  0
    0.6874    0.5517    0.6657 C   0  0  0  0  0  0  0  0  0  0  0  0
   -4.0498    0.4784    0.7626 C   0  0  0  0  0  0  0  0  0  0  0  0
   -4.9945    0.9344   -0.2574 C   0  0  0  0  0  0  0  0  0  0  0  0
   -6.1095    0.2339   -0.5466 C   0  0  0  0  0  0  0  0  0  0  0  0
   -6.3894   -0.9714    0.1566 C   0  0  0  0  0  0  0  0  0  0  0  0
   -7.3868   -1.8245    0.0593 N   0  0  0  0  0  0  0  0  0  0  0  0
   -7.1326   -2.7879    1.0027 C   0  0  0  0  0  0  0  0  0  0  0  0
   -5.9669   -2.5208    1.6831 C   0  0  0  0  0  0  0  0  0  0  0  0
   -5.4849   -1.3573    1.1406 N   0  0  0  0  0  0  0  0  0  0  0  0
   -4.3307   -0.6462    1.4494 C   0  0  0  0  0  0  0  0  0  0  0  0
   -2.4860    1.5985   -0.8809 H   0  0  0  0  0  0  0  0  0  0  0  0
   -0.8993    3.3561   -0.4366 H   0  0  0  0  0  0  0  0  0  0  0  0
   -0.7343    2.7967    1.2281 H   0  0  0  0  0  0  0  0  0  0  0  0
    0.3723    2.3187   -2.2377 H   0  0  0  0  0  0  0  0  0  0  0  0
    2.1379    0.7503   -2.9329 H   0  0  0  0  0  0  0  0  0  0  0  0
    4.9812   -2.2624    0.8519 H   0  0  0  0  0  0  0  0  0  0  0  0
    8.2984    0.4556    0.8002 H   0  0  0  0  0  0  0  0  0  0  0  0
    5.3210    0.7229   -2.2761 H   0  0  0  0  0  0  0  0  0  0  0  0
    2.0325   -1.0972    0.9766 H   0  0  0  0  0  0  0  0  0  0  0  0
    0.2668    0.4800    1.6690 H   0  0  0  0  0  0  0  0  0  0  0  0
   -4.8006    1.8741   -0.7651 H   0  0  0  0  0  0  0  0  0  0  0  0
   -6.8201    0.5712   -1.2929 H   0  0  0  0  0  0  0  0  0  0  0  0
   -7.8046   -3.6250    1.1430 H   0  0  0  0  0  0  0  0  0  0  0  0
   -5.4554   -3.0422    2.4789 H   0  0  0  0  0  0  0  0  0  0  0  0
   -3.6985   -1.0412    2.2362 H   0  0  0  0  0  0  0  0  0  0  0  0
  1  2  2  0
  2  3  1  0
  3  4  1  0
  4  5  1  0
  5  6  2  0
  6  7  1  0
  7  8  2  0
  8  9  1  0
  9 10  2  0
  9 11  2  0
  9 12  1  0
 12 13  2  0
 13 14  1  0
 14 15  1  0
 14 16  2  0
 16 17  1  0
 17 18  1  0
 17 19  2  0
  8 20  1  0
 20 21  2  0
  2 22  1  0
 22 23  1  0
 23 24  2  0
 24 25  1  0
 25 26  2  0
 26 27  1  0
 27 28  2  0
 28 29  1  0
 29 30  1  0
 21  5  1  0
 30 22  2  0
 19 12  1  0
 29 25  1  0
  3 31  1  0
  4 32  1  0
  4 33  1  0
  6 34  1  0
  7 35  1  0
 13 36  1  0
 16 37  1  0
 19 38  1  0
 20 39  1  0
 21 40  1  0
 23 41  1  0
 24 42  1  0
 27 43  1  0
 28 44  1  0
 30 45  1  0
M  END
$$$$
