
     RDKit          3D

 37 39  0  0  0  0  0  0  0  0999 V2000
    1.8533    1.9955    0.0530 N   0  0  0  0  0  0  0  0  0  0  0  0
    1.5477    0.6765   -0.1297 C   0  0  0  0  0  0  0  0  0  0  0  0
    0.3363    0.0788   -0.4431 C   0  0  0  0  0  0  0  0  0  0  0  0
   -0.9569    0.7263   -0.6142 C   0  0  0  0  0  0  0  0  0  0  0  0
   -1.1166    1.9395   -0.5063 O   0  0  0  0  0  0  0  0  0  0  0  0
   -1.9798   -0.1520   -0.9082 N   0  0  0  0  0  0  0  0  0  0  0  0
   -3.3579    0.2709   -0.9690 C   0  0  0  0  0  0  0  0  0  0  0  0
   -4.2535   -0.7438   -1.6679 C   0  0  0  0  0  0  0  0  0  0  0  0
   -5.6516   -0.3171   -1.2472 C   0  0  0  0  0  0  0  0  0  0  0  0
   -5.4996    0.2251    0.1734 C   0  0  0  0  0  0  0  0  0  0  0  0
   -3.9999    0.3986    0.4113 C   0  0  0  0  0  0  0  0  0  0  0  0
    0.5236   -1.2660   -0.6330 N   0  0  0  0  0  0  0  0  0  0  0  0
    1.8068   -1.5339   -0.4564 N   0  0  0  0  0  0  0  0  0  0  0  0
    2.4464   -0.3955   -0.0659 N   0  0  0  0  0  0  0  0  0  0  0  0
    3.8122   -0.4468    0.3356 C   0  0  0  0  0  0  0  0  0  0  0  0
    4.5670   -1.5980    0.0467 C   0  0  0  0  0  0  0  0  0  0  0  0
    5.9098   -1.6801    0.4241 C   0  0  0  0  0  0  0  0  0  0  0  0
    6.5092   -0.6220    1.1031 C   0  0  0  0  0  0  0  0  0  0  0  0
    5.7583    0.5100    1.4115 C   0  0  0  0  0  0  0  0  0  0  0  0
    6.5659    1.9335    2.3608 Br  0  0  0  0  0  0  0  0  0  0  0  0
    4.4149    0.6040    1.0384 C   0  0  0  0  0  0  0  0  0  0  0  0
    2.7320    2.3517   -0.3213 H   0  0  0  0  0  0  0  0  0  0  0  0
    1.0960    2.6610   -0.1426 H   0  0  0  0  0  0  0  0  0  0  0  0
   -1.7572   -1.1415   -0.8646 H   0  0  0  0  0  0  0  0  0  0  0  0
   -3.4097    1.2371   -1.4875 H   0  0  0  0  0  0  0  0  0  0  0  0
   -4.1254   -0.7356   -2.7547 H   0  0  0  0  0  0  0  0  0  0  0  0
   -4.0475   -1.7620   -1.3146 H   0  0  0  0  0  0  0  0  0  0  0  0
   -6.3681   -1.1424   -1.3002 H   0  0  0  0  0  0  0  0  0  0  0  0
   -6.0135    0.4796   -1.9080 H   0  0  0  0  0  0  0  0  0  0  0  0
   -6.0298    1.1780    0.2773 H   0  0  0  0  0  0  0  0  0  0  0  0
   -5.9247   -0.4672    0.9082 H   0  0  0  0  0  0  0  0  0  0  0  0
   -3.6410   -0.3909    1.0839 H   0  0  0  0  0  0  0  0  0  0  0  0
   -3.7680    1.3573    0.8865 H   0  0  0  0  0  0  0  0  0  0  0  0
    4.1285   -2.4417   -0.4852 H   0  0  0  0  0  0  0  0  0  0  0  0
    6.4858   -2.5719    0.1882 H   0  0  0  0  0  0  0  0  0  0  0  0
    7.5535   -0.6938    1.3957 H   0  0  0  0  0  0  0  0  0  0  0  0
    3.8537    1.4791    1.3489 H   0  0  0  0  0  0  0  0  0  0  0  0
  1  2  1  0
  2  3  2  0
  3  4  1  0
  4  5  2  0
  4  6  1  0
  6  7  1  0
  7  8  1  0
  8  9  1  0
  9 10  1  0
 10 11  1  0
  3 12  1  0
 12 13  2  0
 13 14  1  0
 14 15  1  0
 15 16  2  0
 16 17  1  0
 17 18  2  0
 18 19  1  0
 19 20  1  0
 19 21  2  0
 14  2  1  0
 21 15  1  0
 11  7  1  0
  1 22  1  0
  1 23  1  0
  6 24  1  0
  7 25  1  0
  8 26  1  0
  8 27  1  0
  9 28  1  0
  9 29  1  0
 10 30  1  0
 10 31  1  0
 11 32  1  0
 11 33  1  0
 16 34  1  0
 17 35  1  0
 18 36  1  0
 21 37  1  0
M  END
$$$$
