
     RDKit          3D

 23 24  0  0  0  0  0  0  0  0999 V2000
   -3.0944   -2.1103   -0.2373 N   0  0  0  0  0  0  0  0  0  0  0  0
   -2.2892   -1.0453    0.1324 C   0  0  0  0  0  0  0  0  0  0  0  0
   -0.9693   -0.9587   -0.1025 C   0  0  0  0  0  0  0  0  0  0  0  0
   -0.1722    0.1846    0.3162 C   0  0  0  0  0  0  0  0  0  0  0  0
    1.2784    0.2725    0.0813 C   0  0  0  0  0  0  0  0  0  0  0  0
    1.7945    1.1443   -0.8790 C   0  0  0  0  0  0  0  0  0  0  0  0
    3.1664    1.1793   -1.0634 C   0  0  0  0  0  0  0  0  0  0  0  0
    4.0368    0.4170   -0.3679 N   0  0  0  0  0  0  0  0  0  0  0  0
    3.5130   -0.4215    0.5516 C   0  0  0  0  0  0  0  0  0  0  0  0
    2.1570   -0.5311    0.8093 C   0  0  0  0  0  0  0  0  0  0  0  0
   -0.7820    1.1954    0.9601 C   0  0  0  0  0  0  0  0  0  0  0  0
   -2.1303    1.1600    1.2078 N   0  0  0  0  0  0  0  0  0  0  0  0
   -2.9537    0.1258    0.8358 C   0  0  0  0  0  0  0  0  0  0  0  0
   -4.1662    0.1459    1.0337 O   0  0  0  0  0  0  0  0  0  0  0  0
   -2.8184   -2.5361   -1.1161 H   0  0  0  0  0  0  0  0  0  0  0  0
   -4.0787   -1.8307   -0.2244 H   0  0  0  0  0  0  0  0  0  0  0  0
   -0.4516   -1.7696   -0.6053 H   0  0  0  0  0  0  0  0  0  0  0  0
    1.1484    1.7790   -1.4759 H   0  0  0  0  0  0  0  0  0  0  0  0
    3.6159    1.8403   -1.7991 H   0  0  0  0  0  0  0  0  0  0  0  0
    4.2363   -1.0236    1.0943 H   0  0  0  0  0  0  0  0  0  0  0  0
    1.7995   -1.2248    1.5630 H   0  0  0  0  0  0  0  0  0  0  0  0
   -0.2562    2.0776    1.3143 H   0  0  0  0  0  0  0  0  0  0  0  0
   -2.5838    1.9301    1.6834 H   0  0  0  0  0  0  0  0  0  0  0  0
  1  2  1  0
  2  3  2  0
  3  4  1  0
  4  5  1  0
  5  6  2  0
  6  7  1  0
  7  8  2  0
  8  9  1  0
  9 10  2  0
  4 11  2  0
 11 12  1  0
 12 13  1  0
 13 14  2  0
 13  2  1  0
 10  5  1  0
  1 15  1  0
  1 16  1  0
  3 17  1  0
  6 18  1  0
  7 19  1  0
  9 20  1  0
 10 21  1  0
 11 22  1  0
 12 23  1  0
M  END
$$$$
