
     RDKit          3D

 30 32  0  0  0  0  0  0  0  0999 V2000
    1.7512   -2.9047    0.3293 O   0  0  0  0  0  0  0  0  0  0  0  0
    1.1807   -1.8235    0.2329 C   0  0  0  0  0  0  0  0  0  0  0  0
   -0.2833   -1.7261    0.1341 C   0  0  0  0  0  0  0  0  0  0  0  0
   -0.8652   -0.5201    0.0300 C   0  0  0  0  0  0  0  0  0  0  0  0
   -2.3412   -0.3262   -0.0749 C   0  0  0  0  0  0  0  0  0  0  0  0
   -2.8752    0.9725   -0.1810 C   0  0  0  0  0  0  0  0  0  0  0  0
   -4.2534    1.1935   -0.2812 C   0  0  0  0  0  0  0  0  0  0  0  0
   -5.1335    0.1181   -0.2778 C   0  0  0  0  0  0  0  0  0  0  0  0
   -4.6351   -1.1756   -0.1743 C   0  0  0  0  0  0  0  0  0  0  0  0
   -3.2555   -1.3948   -0.0741 C   0  0  0  0  0  0  0  0  0  0  0  0
   -0.1387    0.6684    0.0104 O   0  0  0  0  0  0  0  0  0  0  0  0
    1.2298    0.6220    0.1003 C   0  0  0  0  0  0  0  0  0  0  0  0
    1.9074    1.8450    0.0757 C   0  0  0  0  0  0  0  0  0  0  0  0
    3.2993    1.8613    0.1636 C   0  0  0  0  0  0  0  0  0  0  0  0
    3.9814    3.0441    0.1415 O   0  0  0  0  0  0  0  0  0  0  0  0
    4.0064    0.6644    0.2751 C   0  0  0  0  0  0  0  0  0  0  0  0
    5.3722    0.6666    0.3622 O   0  0  0  0  0  0  0  0  0  0  0  0
    3.3302   -0.5547    0.2996 C   0  0  0  0  0  0  0  0  0  0  0  0
    4.0945   -1.6904    0.4114 O   0  0  0  0  0  0  0  0  0  0  0  0
    1.9376   -0.5718    0.2117 C   0  0  0  0  0  0  0  0  0  0  0  0
   -0.8076   -2.6705    0.1530 H   0  0  0  0  0  0  0  0  0  0  0  0
   -2.2245    1.8445   -0.1878 H   0  0  0  0  0  0  0  0  0  0  0  0
   -4.6348    2.2084   -0.3618 H   0  0  0  0  0  0  0  0  0  0  0  0
   -6.2042    0.2873   -0.3555 H   0  0  0  0  0  0  0  0  0  0  0  0
   -5.3190   -2.0210   -0.1710 H   0  0  0  0  0  0  0  0  0  0  0  0
   -2.9268   -2.4268    0.0041 H   0  0  0  0  0  0  0  0  0  0  0  0
    1.3414    2.7673   -0.0116 H   0  0  0  0  0  0  0  0  0  0  0  0
    3.3579    3.7819    0.0608 H   0  0  0  0  0  0  0  0  0  0  0  0
    5.6240   -0.2753    0.4305 H   0  0  0  0  0  0  0  0  0  0  0  0
    3.4838   -2.4638    0.4154 H   0  0  0  0  0  0  0  0  0  0  0  0
  1  2  2  0
  2  3  1  0
  3  4  2  0
  4  5  1  0
  5  6  2  0
  6  7  1  0
  7  8  2  0
  8  9  1  0
  9 10  2  0
  4 11  1  0
 11 12  1  0
 12 13  2  0
 13 14  1  0
 14 15  1  0
 14 16  2  0
 16 17  1  0
 16 18  1  0
 18 19  1  0
 18 20  2  0
 20  2  1  0
 10  5  1  0
 20 12  1  0
  3 21  1  0
  6 22  1  0
  7 23  1  0
  8 24  1  0
  9 25  1  0
 10 26  1  0
 13 27  1  0
 15 28  1  0
 17 29  1  0
 19 30  1  0
M  END
$$$$
