
     RDKit          3D

 62 66  0  0  0  0  0  0  0  0999 V2000
   -2.4740   -0.7726   -2.9125 O   0  0  0  0  0  0  0  0  0  0  0  0
   -2.0348   -0.7840   -1.7630 C   0  0  0  0  0  0  0  0  0  0  0  0
   -0.8053    0.0186   -1.3946 C   0  0  0  0  0  0  0  0  0  0  0  0
   -0.1831    0.6578   -2.6308 C   0  0  0  0  0  0  0  0  0  0  0  0
    0.9994    1.4270   -2.2948 N   0  0  0  0  0  0  0  0  0  0  0  0
    1.0193    2.7718   -2.0518 C   0  0  0  0  0  0  0  0  0  0  0  0
    2.2259    3.1910   -1.7479 N   0  0  0  0  0  0  0  0  0  0  0  0
    3.0246    2.0776   -1.8202 C   0  0  0  0  0  0  0  0  0  0  0  0
    4.4037    1.9629   -1.6062 C   0  0  0  0  0  0  0  0  0  0  0  0
    4.9838    0.6915   -1.7123 C   0  0  0  0  0  0  0  0  0  0  0  0
    6.7406    0.5216   -1.4665 S   0  0  0  0  0  6  0  0  0  0  0  0
    7.3496    1.7978   -1.7749 O   0  0  0  0  0  0  0  0  0  0  0  0
    7.1547   -0.6904   -2.1429 O   0  0  0  0  0  0  0  0  0  0  0  0
    6.8873    0.2608    0.1884 N   0  0  0  0  0  0  0  0  0  0  0  0
    6.6474    1.3708    1.1292 C   0  0  0  0  0  0  0  0  0  0  0  0
    6.4704    0.6708    2.4699 C   0  0  0  0  0  0  0  0  0  0  0  0
    5.7388   -0.6001    2.0797 C   0  0  0  0  0  0  0  0  0  0  0  0
    6.4226   -1.0090    0.7804 C   0  0  0  0  0  0  0  0  0  0  0  0
    4.2257   -0.4293   -2.0747 C   0  0  0  0  0  0  0  0  0  0  0  0
    2.8487   -0.3232   -2.2988 C   0  0  0  0  0  0  0  0  0  0  0  0
    2.2801    0.9481   -2.1573 C   0  0  0  0  0  0  0  0  0  0  0  0
   -2.6215   -1.5308   -0.7525 N   0  0  0  0  0  0  0  0  0  0  0  0
   -3.8849   -2.2202   -1.0384 C   0  0  0  0  0  0  0  0  0  0  0  0
   -5.0837   -1.4125   -0.4986 C   0  0  0  0  0  0  0  0  0  0  0  0
   -4.8924   -1.1073    0.9490 N   0  0  0  0  0  0  0  0  0  0  0  0
   -6.0450   -0.5955    1.5705 C   0  0  0  0  0  0  0  0  0  0  0  0
   -7.2137   -1.3763    1.6108 C   0  0  0  0  0  0  0  0  0  0  0  0
   -8.3854   -0.9201    2.2236 C   0  0  0  0  0  0  0  0  0  0  0  0
   -8.4131    0.3342    2.8211 C   0  0  0  0  0  0  0  0  0  0  0  0
   -7.2681    1.1233    2.8096 C   0  0  0  0  0  0  0  0  0  0  0  0
   -6.0977    0.6594    2.1957 C   0  0  0  0  0  0  0  0  0  0  0  0
   -3.5978   -0.4521    1.2494 C   0  0  0  0  0  0  0  0  0  0  0  0
   -2.4284   -1.2870    0.6836 C   0  0  0  0  0  0  0  0  0  0  0  0
   -0.0794   -0.6460   -0.9124 H   0  0  0  0  0  0  0  0  0  0  0  0
   -1.0942    0.8011   -0.6836 H   0  0  0  0  0  0  0  0  0  0  0  0
    0.1076   -0.0966   -3.3710 H   0  0  0  0  0  0  0  0  0  0  0  0
   -0.8898    1.3371   -3.1230 H   0  0  0  0  0  0  0  0  0  0  0  0
    0.1346    3.3936   -2.1062 H   0  0  0  0  0  0  0  0  0  0  0  0
    4.9887    2.8447   -1.3674 H   0  0  0  0  0  0  0  0  0  0  0  0
    7.4948    2.0611    1.1502 H   0  0  0  0  0  0  0  0  0  0  0  0
    5.7358    1.9177    0.8754 H   0  0  0  0  0  0  0  0  0  0  0  0
    7.4472    0.4258    2.9042 H   0  0  0  0  0  0  0  0  0  0  0  0
    5.9147    1.2780    3.1897 H   0  0  0  0  0  0  0  0  0  0  0  0
    5.7975   -1.3782    2.8458 H   0  0  0  0  0  0  0  0  0  0  0  0
    4.6803   -0.3809    1.8939 H   0  0  0  0  0  0  0  0  0  0  0  0
    5.7369   -1.5665    0.1392 H   0  0  0  0  0  0  0  0  0  0  0  0
    7.2971   -1.6368    0.9827 H   0  0  0  0  0  0  0  0  0  0  0  0
    4.7059   -1.3996   -2.1962 H   0  0  0  0  0  0  0  0  0  0  0  0
    2.2610   -1.1901   -2.5830 H   0  0  0  0  0  0  0  0  0  0  0  0
   -3.8398   -3.1987   -0.5450 H   0  0  0  0  0  0  0  0  0  0  0  0
   -4.0042   -2.3971   -2.1120 H   0  0  0  0  0  0  0  0  0  0  0  0
   -5.9902   -2.0009   -0.6763 H   0  0  0  0  0  0  0  0  0  0  0  0
   -5.1770   -0.4712   -1.0557 H   0  0  0  0  0  0  0  0  0  0  0  0
   -7.2129   -2.3757    1.1827 H   0  0  0  0  0  0  0  0  0  0  0  0
   -9.2694   -1.5519    2.2388 H   0  0  0  0  0  0  0  0  0  0  0  0
   -9.3205    0.6926    3.2992 H   0  0  0  0  0  0  0  0  0  0  0  0
   -7.2803    2.1040    3.2780 H   0  0  0  0  0  0  0  0  0  0  0  0
   -5.2360    1.3188    2.2068 H   0  0  0  0  0  0  0  0  0  0  0  0
   -3.4583   -0.3587    2.3330 H   0  0  0  0  0  0  0  0  0  0  0  0
   -3.5706    0.5493    0.8010 H   0  0  0  0  0  0  0  0  0  0  0  0
   -1.4804   -0.7836    0.8845 H   0  0  0  0  0  0  0  0  0  0  0  0
   -2.3928   -2.2660    1.1766 H   0  0  0  0  0  0  0  0  0  0  0  0
  1  2  2  0
  2  3  1  0
  3  4  1  0
  4  5  1  0
  5  6  1  0
  6  7  2  0
  7  8  1  0
  8  9  2  0
  9 10  1  0
 10 11  1  0
 11 12  2  0
 11 13  2  0
 11 14  1  0
 14 15  1  0
 15 16  1  0
 16 17  1  0
 17 18  1  0
 10 19  2  0
 19 20  1  0
 20 21  2  0
  2 22  1  0
 22 23  1  0
 23 24  1  0
 24 25  1  0
 25 26  1  0
 26 27  2  0
 27 28  1  0
 28 29  2  0
 29 30  1  0
 30 31  2  0
 25 32  1  0
 32 33  1  0
 21  5  1  0
 33 22  1  0
 21  8  1  0
 31 26  1  0
 18 14  1  0
  3 34  1  0
  3 35  1  0
  4 36  1  0
  4 37  1  0
  6 38  1  0
  9 39  1  0
 15 40  1  0
 15 41  1  0
 16 42  1  0
 16 43  1  0
 17 44  1  0
 17 45  1  0
 18 46  1  0
 18 47  1  0
 19 48  1  0
 20 49  1  0
 23 50  1  0
 23 51  1  0
 24 52  1  0
 24 53  1  0
 27 54  1  0
 28 55  1  0
 29 56  1  0
 30 57  1  0
 31 58  1  0
 32 59  1  0
 32 60  1  0
 33 61  1  0
 33 62  1  0
M  END
$$$$
