
     RDKit          3D

 77 81  0  0  0  0  0  0  0  0999 V2000
   -0.1146    6.0632   -3.0269 C   0  0  0  0  0  0  0  0  0  0  0  0
    0.7342    5.2425   -2.0662 C   0  0  0  0  0  0  0  0  0  0  0  0
   -0.0655    4.7065   -0.8624 C   0  0  2  0  0  0  0  0  0  0  0  0
   -0.5158    5.8152    0.0922 C   0  0  0  0  0  0  0  0  0  0  0  0
    0.6801    3.6759   -0.1265 N   0  0  0  0  0  0  0  0  0  0  0  0
    1.9534    3.8363    0.3516 C   0  0  0  0  0  0  0  0  0  0  0  0
    2.3383    2.6785    0.9940 C   0  0  0  0  0  0  0  0  0  0  0  0
    3.6671    2.4588    1.6270 C   0  0  0  0  0  0  0  0  0  0  0  0
    1.2250    1.7710    0.9316 C   0  0  0  0  0  0  0  0  0  0  0  0
    0.9665    0.4538    1.3860 C   0  0  0  0  0  0  0  0  0  0  0  0
    1.9768   -0.3100    2.1532 C   0  0  0  0  0  0  0  0  0  0  0  0
    2.5234    0.1682    3.1377 O   0  0  0  0  0  0  0  0  0  0  0  0
    2.2280   -1.5736    1.6695 N   0  0  0  0  0  0  0  0  0  0  0  0
    3.2776   -2.4145    2.1970 C   0  0  0  0  0  0  0  0  0  0  0  0
    4.4354   -2.4035    1.2427 C   0  0  0  0  0  0  0  0  0  0  0  0
    5.6222   -1.7774    1.4085 C   0  0  0  0  0  0  0  0  0  0  0  0
    5.9902   -0.9046    2.5762 C   0  0  0  0  0  0  0  0  0  0  0  0
    6.6660   -1.9116    0.4016 C   0  0  0  0  0  0  0  0  0  0  0  0
    6.4800   -2.6583   -0.6970 C   0  0  0  0  0  0  0  0  0  0  0  0
    7.5126   -2.8428   -1.7645 C   0  0  0  0  0  0  0  0  0  0  0  0
    5.2770   -3.2936   -0.8739 N   0  0  0  0  0  0  0  0  0  0  0  0
    4.2223   -3.2153   -0.0009 C   0  0  0  0  0  0  0  0  0  0  0  0
    3.1551   -3.7748   -0.2378 O   0  0  0  0  0  0  0  0  0  0  0  0
   -0.2715   -0.1628    1.1201 C   0  0  0  0  0  0  0  0  0  0  0  0
   -1.2735    0.4922    0.4002 C   0  0  0  0  0  0  0  0  0  0  0  0
   -2.5547   -0.1700    0.1187 C   0  0  0  0  0  0  0  0  0  0  0  0
   -3.7799    0.4138    0.4410 C   0  0  0  0  0  0  0  0  0  0  0  0
   -4.9732   -0.2518    0.1475 C   0  0  0  0  0  0  0  0  0  0  0  0
   -4.9454   -1.5065   -0.4626 C   0  0  0  0  0  0  0  0  0  0  0  0
   -6.1566   -2.1611   -0.7652 N   0  0  0  0  0  0  0  0  0  0  0  0
   -5.9648   -3.3312   -1.6489 C   0  0  0  0  0  0  0  0  0  0  0  0
   -7.3258   -3.9781   -1.9911 C   0  0  0  0  0  0  0  0  0  0  0  0
   -8.1086   -4.3631   -0.7968 N   0  0  0  0  0  0  0  0  0  0  0  0
   -8.2798   -3.1662    0.0520 C   0  0  0  0  0  0  0  0  0  0  0  0
   -6.9486   -2.4789    0.4412 C   0  0  0  0  0  0  0  0  0  0  0  0
   -3.7690   -2.0787   -0.7940 N   0  0  0  0  0  0  0  0  0  0  0  0
   -2.6225   -1.4154   -0.4996 C   0  0  0  0  0  0  0  0  0  0  0  0
   -1.0299    1.8006   -0.0523 C   0  0  0  0  0  0  0  0  0  0  0  0
    0.2084    2.4210    0.2132 C   0  0  0  0  0  0  0  0  0  0  0  0
    0.4774    6.3473   -3.9022 H   0  0  0  0  0  0  0  0  0  0  0  0
   -0.4763    6.9827   -2.5584 H   0  0  0  0  0  0  0  0  0  0  0  0
   -0.9787    5.4892   -3.3756 H   0  0  0  0  0  0  0  0  0  0  0  0
    1.5784    5.8557   -1.7277 H   0  0  0  0  0  0  0  0  0  0  0  0
    1.1654    4.4003   -2.6243 H   0  0  0  0  0  0  0  0  0  0  0  0
   -0.9626    4.2191   -1.2587 H   0  0  0  0  0  0  0  0  0  0  0  0
   -1.0374    5.3953    0.9595 H   0  0  0  0  0  0  0  0  0  0  0  0
   -1.2039    6.5082   -0.4012 H   0  0  0  0  0  0  0  0  0  0  0  0
    0.3369    6.3924    0.4645 H   0  0  0  0  0  0  0  0  0  0  0  0
    2.4976    4.7595    0.1994 H   0  0  0  0  0  0  0  0  0  0  0  0
    4.0890    1.4947    1.3287 H   0  0  0  0  0  0  0  0  0  0  0  0
    3.5841    2.4964    2.7173 H   0  0  0  0  0  0  0  0  0  0  0  0
    4.3794    3.2331    1.3203 H   0  0  0  0  0  0  0  0  0  0  0  0
    1.8165   -1.8667    0.7908 H   0  0  0  0  0  0  0  0  0  0  0  0
    3.5544   -2.0916    3.2035 H   0  0  0  0  0  0  0  0  0  0  0  0
    2.8689   -3.4259    2.2986 H   0  0  0  0  0  0  0  0  0  0  0  0
    6.3217    0.0802    2.2263 H   0  0  0  0  0  0  0  0  0  0  0  0
    6.8074   -1.3591    3.1471 H   0  0  0  0  0  0  0  0  0  0  0  0
    5.1634   -0.7270    3.2667 H   0  0  0  0  0  0  0  0  0  0  0  0
    7.6075   -1.3938    0.5660 H   0  0  0  0  0  0  0  0  0  0  0  0
    7.1377   -2.4776   -2.7260 H   0  0  0  0  0  0  0  0  0  0  0  0
    7.7647   -3.9031   -1.8719 H   0  0  0  0  0  0  0  0  0  0  0  0
    8.4362   -2.3008   -1.5376 H   0  0  0  0  0  0  0  0  0  0  0  0
    5.1120   -3.8492   -1.7044 H   0  0  0  0  0  0  0  0  0  0  0  0
   -0.4551   -1.1633    1.5108 H   0  0  0  0  0  0  0  0  0  0  0  0
   -3.8218    1.3873    0.9232 H   0  0  0  0  0  0  0  0  0  0  0  0
   -5.9200    0.2270    0.3759 H   0  0  0  0  0  0  0  0  0  0  0  0
   -5.3305   -4.0855   -1.1641 H   0  0  0  0  0  0  0  0  0  0  0  0
   -5.4863   -3.0247   -2.5873 H   0  0  0  0  0  0  0  0  0  0  0  0
   -7.9229   -3.2887   -2.6013 H   0  0  0  0  0  0  0  0  0  0  0  0
   -7.1566   -4.8732   -2.5993 H   0  0  0  0  0  0  0  0  0  0  0  0
   -7.5608   -5.0460   -0.2711 H   0  0  0  0  0  0  0  0  0  0  0  0
   -8.9248   -2.4498   -0.4714 H   0  0  0  0  0  0  0  0  0  0  0  0
   -8.8113   -3.4597    0.9632 H   0  0  0  0  0  0  0  0  0  0  0  0
   -7.1950   -1.5737    1.0062 H   0  0  0  0  0  0  0  0  0  0  0  0
   -6.3778   -3.1443    1.1026 H   0  0  0  0  0  0  0  0  0  0  0  0
   -1.7195   -1.9398   -0.8045 H   0  0  0  0  0  0  0  0  0  0  0  0
   -1.7971    2.3213   -0.6196 H   0  0  0  0  0  0  0  0  0  0  0  0
  1  2  1  0
  2  3  1  0
  3  4  1  0
  3  5  1  0
  5  6  1  0
  6  7  2  0
  7  8  1  0
  7  9  1  0
  9 10  2  0
 10 11  1  0
 11 12  2  0
 11 13  1  0
 13 14  1  0
 14 15  1  0
 15 16  2  0
 16 17  1  0
 16 18  1  0
 18 19  2  0
 19 20  1  0
 19 21  1  0
 21 22  1  0
 22 23  2  0
 10 24  1  0
 24 25  2  0
 25 26  1  0
 26 27  2  0
 27 28  1  0
 28 29  2  0
 29 30  1  0
 30 31  1  0
 31 32  1  0
 32 33  1  0
 33 34  1  0
 34 35  1  0
 29 36  1  0
 36 37  2  0
 25 38  1  0
 38 39  2  0
 39  5  1  0
 39  9  1  0
 22 15  1  0
 37 26  1  0
 35 30  1  0
  1 40  1  0
  1 41  1  0
  1 42  1  0
  2 43  1  0
  2 44  1  0
  3 45  1  6
  4 46  1  0
  4 47  1  0
  4 48  1  0
  6 49  1  0
  8 50  1  0
  8 51  1  0
  8 52  1  0
 13 53  1  0
 14 54  1  0
 14 55  1  0
 17 56  1  0
 17 57  1  0
 17 58  1  0
 18 59  1  0
 20 60  1  0
 20 61  1  0
 20 62  1  0
 21 63  1  0
 24 64  1  0
 27 65  1  0
 28 66  1  0
 31 67  1  0
 31 68  1  0
 32 69  1  0
 32 70  1  0
 33 71  1  0
 34 72  1  0
 34 73  1  0
 35 74  1  0
 35 75  1  0
 37 76  1  0
 38 77  1  0
M  END
$$$$
