
     RDKit          3D

 52 54  0  0  0  0  0  0  0  0999 V2000
   -5.5212   -0.6713    1.4348 C   0  0  0  0  0  0  0  0  0  0  0  0
   -4.2602   -0.7525    0.5847 C   0  0  0  0  0  0  0  0  0  0  0  0
   -3.0893   -1.4315    1.3129 C   0  0  2  0  0  0  0  0  0  0  0  0
   -2.5229   -0.5981    2.4841 C   0  0  0  0  0  0  0  0  0  0  0  0
   -1.4273   -1.2759    3.1043 O   0  0  0  0  0  0  0  0  0  0  0  0
   -2.0416   -1.8674    0.3687 N   0  0  0  0  0  0  0  0  0  0  0  0
   -1.1671   -0.8873   -0.0833 C   0  0  0  0  0  0  0  0  0  0  0  0
    0.1262   -1.1404    0.2010 N   0  0  0  0  0  0  0  0  0  0  0  0
    1.0903   -0.2503   -0.1588 C   0  0  0  0  0  0  0  0  0  0  0  0
    2.4327   -0.4858    0.1527 N   0  0  0  0  0  0  0  0  0  0  0  0
    2.8270   -1.8809    0.1031 C   0  0  0  0  0  0  0  0  0  0  0  0
    4.3248   -1.9782    0.2784 C   0  0  0  0  0  0  0  0  0  0  0  0
    4.9044   -1.7689    1.5387 C   0  0  0  0  0  0  0  0  0  0  0  0
    6.2879   -1.8455    1.7046 C   0  0  0  0  0  0  0  0  0  0  0  0
    7.1065   -2.1262    0.6123 C   0  0  0  0  0  0  0  0  0  0  0  0
    6.5434   -2.3271   -0.6469 C   0  0  0  0  0  0  0  0  0  0  0  0
    5.1595   -2.2504   -0.8151 C   0  0  0  0  0  0  0  0  0  0  0  0
    0.6823    0.9151   -0.8278 C   0  0  0  0  0  0  0  0  0  0  0  0
    1.3810    1.9898   -1.3374 N   0  0  0  0  0  0  0  0  0  0  0  0
    0.4580    2.7731   -1.8555 C   0  0  0  0  0  0  0  0  0  0  0  0
   -0.8016    2.2514   -1.7075 N   0  0  0  0  0  0  0  0  0  0  0  0
   -2.0494    2.8459   -2.1649 C   0  0  0  0  0  0  0  0  0  0  0  0
   -2.3174    4.1873   -1.4827 C   0  0  0  0  0  0  0  0  0  0  0  0
   -2.0840    2.9786   -3.6874 C   0  0  0  0  0  0  0  0  0  0  0  0
   -0.6740    1.0571   -1.0514 C   0  0  0  0  0  0  0  0  0  0  0  0
   -1.6439    0.2042   -0.6970 N   0  0  0  0  0  0  0  0  0  0  0  0
   -5.3749   -0.0304    2.3091 H   0  0  0  0  0  0  0  0  0  0  0  0
   -5.8289   -1.6637    1.7790 H   0  0  0  0  0  0  0  0  0  0  0  0
   -6.3425   -0.2482    0.8473 H   0  0  0  0  0  0  0  0  0  0  0  0
   -3.9908    0.2621    0.2719 H   0  0  0  0  0  0  0  0  0  0  0  0
   -4.4961   -1.3122   -0.3291 H   0  0  0  0  0  0  0  0  0  0  0  0
   -3.4702   -2.3661    1.7467 H   0  0  0  0  0  0  0  0  0  0  0  0
   -2.1827    0.3929    2.1656 H   0  0  0  0  0  0  0  0  0  0  0  0
   -3.2871   -0.4528    3.2533 H   0  0  0  0  0  0  0  0  0  0  0  0
   -0.6668   -1.1990    2.4949 H   0  0  0  0  0  0  0  0  0  0  0  0
   -1.4320   -2.5527    0.8116 H   0  0  0  0  0  0  0  0  0  0  0  0
    3.0291    0.1396   -0.3871 H   0  0  0  0  0  0  0  0  0  0  0  0
    2.3414   -2.4587    0.9000 H   0  0  0  0  0  0  0  0  0  0  0  0
    2.5387   -2.3360   -0.8536 H   0  0  0  0  0  0  0  0  0  0  0  0
    4.2730   -1.5369    2.3942 H   0  0  0  0  0  0  0  0  0  0  0  0
    6.7259   -1.6809    2.6853 H   0  0  0  0  0  0  0  0  0  0  0  0
    8.1839   -2.1837    0.7417 H   0  0  0  0  0  0  0  0  0  0  0  0
    7.1830   -2.5405   -1.4993 H   0  0  0  0  0  0  0  0  0  0  0  0
    4.7366   -2.4042   -1.8055 H   0  0  0  0  0  0  0  0  0  0  0  0
    0.6459    3.7201   -2.3460 H   0  0  0  0  0  0  0  0  0  0  0  0
   -2.8546    2.1602   -1.8736 H   0  0  0  0  0  0  0  0  0  0  0  0
   -2.3017    4.0808   -0.3924 H   0  0  0  0  0  0  0  0  0  0  0  0
   -1.5665    4.9373   -1.7544 H   0  0  0  0  0  0  0  0  0  0  0  0
   -3.2999    4.5770   -1.7691 H   0  0  0  0  0  0  0  0  0  0  0  0
   -3.0603    3.3456   -4.0214 H   0  0  0  0  0  0  0  0  0  0  0  0
   -1.9056    2.0101   -4.1675 H   0  0  0  0  0  0  0  0  0  0  0  0
   -1.3209    3.6754   -4.0507 H   0  0  0  0  0  0  0  0  0  0  0  0
  1  2  1  0
  2  3  1  0
  3  4  1  0
  4  5  1  0
  3  6  1  0
  6  7  1  0
  7  8  2  0
  8  9  1  0
  9 10  1  0
 10 11  1  0
 11 12  1  0
 12 13  2  0
 13 14  1  0
 14 15  2  0
 15 16  1  0
 16 17  2  0
  9 18  2  0
 18 19  1  0
 19 20  2  0
 20 21  1  0
 21 22  1  0
 22 23  1  0
 22 24  1  0
 21 25  1  0
 25 26  2  0
 26  7  1  0
 17 12  1  0
 25 18  1  0
  1 27  1  0
  1 28  1  0
  1 29  1  0
  2 30  1  0
  2 31  1  0
  3 32  1  1
  4 33  1  0
  4 34  1  0
  5 35  1  0
  6 36  1  0
 10 37  1  0
 11 38  1  0
 11 39  1  0
 13 40  1  0
 14 41  1  0
 15 42  1  0
 16 43  1  0
 17 44  1  0
 20 45  1  0
 22 46  1  0
 23 47  1  0
 23 48  1  0
 23 49  1  0
 24 50  1  0
 24 51  1  0
 24 52  1  0
M  END
$$$$
