
     RDKit          3D

 64 68  0  0  0  0  0  0  0  0999 V2000
   -4.1337    3.4468   -0.5855 C   0  0  0  0  0  0  0  0  0  0  0  0
   -4.5794    1.9553   -0.5802 C   0  0  0  0  0  0  0  0  0  0  0  0
   -5.2633    1.7242   -1.9452 C   0  0  0  0  0  0  0  0  0  0  0  0
   -5.5781    1.7789    0.5926 C   0  0  0  0  0  0  0  0  0  0  0  0
   -6.6537    2.7129    0.5171 O   0  0  0  0  0  0  0  0  0  0  0  0
   -3.3439    1.0370   -0.4307 C   0  0  0  0  0  0  0  0  0  0  0  0
   -2.0182    1.4291   -0.2805 C   0  0  0  0  0  0  0  0  0  0  0  0
   -1.1764    0.2945   -0.3326 C   0  0  0  0  0  0  0  0  0  0  0  0
    0.2267    0.1240   -0.2849 C   0  0  0  0  0  0  0  0  0  0  0  0
    0.7752   -1.1553   -0.4039 C   0  0  0  0  0  0  0  0  0  0  0  0
    2.1595   -1.4387   -0.3738 N   0  0  0  0  0  0  0  0  0  0  0  0
    3.2037   -0.5526   -0.1878 C   0  0  0  0  0  0  0  0  0  0  0  0
    3.0813    0.6503    0.0084 O   0  0  0  0  0  0  0  0  0  0  0  0
    4.6108   -1.1608   -0.2207 C   0  0  0  0  0  0  0  0  0  0  0  0
    5.7717   -0.1545   -0.1334 C   0  0  0  0  0  0  0  0  0  0  0  0
    6.3213    0.4282   -1.3053 C   0  0  0  0  0  0  0  0  0  0  0  0
    7.3734    1.3498   -1.2529 C   0  0  0  0  0  0  0  0  0  0  0  0
    7.8641    1.6852   -0.0125 C   0  0  0  0  0  0  0  0  0  0  0  0
    7.3441    1.1428    1.1387 C   0  0  0  0  0  0  0  0  0  0  0  0
    6.3074    0.2326    1.1107 C   0  0  0  0  0  0  0  0  0  0  0  0
    7.9609    1.6064    2.2585 O   0  0  0  0  0  0  0  0  0  0  0  0
    8.9168    2.4948    1.6641 C   0  0  0  0  0  0  0  0  0  0  0  0
   10.1592    2.1018    2.0406 F   0  0  0  0  0  0  0  0  0  0  0  0
    8.7160    3.7408    2.1594 F   0  0  0  0  0  0  0  0  0  0  0  0
    8.8757    2.5595    0.2322 O   0  0  0  0  0  0  0  0  0  0  0  0
    4.8842   -2.4208   -1.0509 C   0  0  0  0  0  0  0  0  0  0  0  0
    4.8348   -2.5250    0.4411 C   0  0  0  0  0  0  0  0  0  0  0  0
   -0.0858   -2.2425   -0.5742 C   0  0  0  0  0  0  0  0  0  0  0  0
    0.4357   -3.4755   -0.6958 F   0  0  0  0  0  0  0  0  0  0  0  0
   -1.4739   -2.1053   -0.6185 C   0  0  0  0  0  0  0  0  0  0  0  0
   -2.0050   -0.8122   -0.4858 C   0  0  0  0  0  0  0  0  0  0  0  0
   -3.3202   -0.3549   -0.4528 N   0  0  0  0  0  0  0  0  0  0  0  0
   -4.4505   -1.2803   -0.4140 C   0  0  0  0  0  0  0  0  0  0  0  0
   -4.5718   -2.0003    0.9412 C   0  0  1  0  0  0  0  0  0  0  0  0
   -4.8829   -1.0674    1.9892 O   0  0  0  0  0  0  0  0  0  0  0  0
   -5.6974   -3.0381    0.9065 C   0  0  0  0  0  0  0  0  0  0  0  0
   -6.9490   -2.3942    0.6795 O   0  0  0  0  0  0  0  0  0  0  0  0
   -3.6698    3.7278    0.3676 H   0  0  0  0  0  0  0  0  0  0  0  0
   -4.9802    4.1241   -0.7480 H   0  0  0  0  0  0  0  0  0  0  0  0
   -3.4105    3.6485   -1.3851 H   0  0  0  0  0  0  0  0  0  0  0  0
   -5.7089    0.7316   -2.0370 H   0  0  0  0  0  0  0  0  0  0  0  0
   -6.0688    2.4479   -2.1157 H   0  0  0  0  0  0  0  0  0  0  0  0
   -4.5451    1.8315   -2.7670 H   0  0  0  0  0  0  0  0  0  0  0  0
   -5.0710    1.9247    1.5535 H   0  0  0  0  0  0  0  0  0  0  0  0
   -6.0317    0.7878    0.5999 H   0  0  0  0  0  0  0  0  0  0  0  0
   -7.2238    2.5528    1.2892 H   0  0  0  0  0  0  0  0  0  0  0  0
   -1.6667    2.4505   -0.1993 H   0  0  0  0  0  0  0  0  0  0  0  0
    0.8454    1.0068   -0.1685 H   0  0  0  0  0  0  0  0  0  0  0  0
    2.3844   -2.4190   -0.4862 H   0  0  0  0  0  0  0  0  0  0  0  0
    5.9071    0.1604   -2.2762 H   0  0  0  0  0  0  0  0  0  0  0  0
    7.7801    1.7885   -2.1572 H   0  0  0  0  0  0  0  0  0  0  0  0
    5.9061   -0.1680    2.0362 H   0  0  0  0  0  0  0  0  0  0  0  0
    5.8558   -2.5328   -1.5241 H   0  0  0  0  0  0  0  0  0  0  0  0
    4.0893   -2.8589   -1.6412 H   0  0  0  0  0  0  0  0  0  0  0  0
    3.9975   -3.0316    0.9062 H   0  0  0  0  0  0  0  0  0  0  0  0
    5.7711   -2.7057    0.9609 H   0  0  0  0  0  0  0  0  0  0  0  0
   -2.0964   -2.9812   -0.7567 H   0  0  0  0  0  0  0  0  0  0  0  0
   -4.3012   -1.9977   -1.2295 H   0  0  0  0  0  0  0  0  0  0  0  0
   -5.3611   -0.7321   -0.6382 H   0  0  0  0  0  0  0  0  0  0  0  0
   -3.6401   -2.5053    1.2156 H   0  0  0  0  0  0  0  0  0  0  0  0
   -4.0848   -0.5202    2.1240 H   0  0  0  0  0  0  0  0  0  0  0  0
   -5.5359   -3.7775    0.1163 H   0  0  0  0  0  0  0  0  0  0  0  0
   -5.7689   -3.5609    1.8662 H   0  0  0  0  0  0  0  0  0  0  0  0
   -7.0113   -1.7085    1.3740 H   0  0  0  0  0  0  0  0  0  0  0  0
  1  2  1  0
  2  3  1  0
  2  4  1  0
  4  5  1  0
  2  6  1  0
  6  7  2  0
  7  8  1  0
  8  9  2  0
  9 10  1  0
 10 11  1  0
 11 12  1  0
 12 13  2  0
 12 14  1  0
 14 15  1  0
 15 16  2  0
 16 17  1  0
 17 18  2  0
 18 19  1  0
 19 20  2  0
 19 21  1  0
 21 22  1  0
 22 23  1  0
 22 24  1  0
 22 25  1  0
 14 26  1  0
 26 27  1  0
 10 28  2  0
 28 29  1  0
 28 30  1  0
 30 31  2  0
 31 32  1  0
 32 33  1  0
 33 34  1  0
 34 35  1  0
 34 36  1  0
 36 37  1  0
 32  6  1  0
 31  8  1  0
 27 14  1  0
 20 15  1  0
 25 18  1  0
  1 38  1  0
  1 39  1  0
  1 40  1  0
  3 41  1  0
  3 42  1  0
  3 43  1  0
  4 44  1  0
  4 45  1  0
  5 46  1  0
  7 47  1  0
  9 48  1  0
 11 49  1  0
 16 50  1  0
 17 51  1  0
 20 52  1  0
 26 53  1  0
 26 54  1  0
 27 55  1  0
 27 56  1  0
 30 57  1  0
 33 58  1  0
 33 59  1  0
 34 60  1  1
 35 61  1  0
 36 62  1  0
 36 63  1  0
 37 64  1  0
M  END
$$$$
