
     RDKit          3D

 27 28  0  0  0  0  0  0  0  0999 V2000
    1.0249   -1.7765    0.8649 O   0  0  0  0  0  0  0  0  0  0  0  0
    1.7273   -0.6939    0.4004 C   0  0  0  0  0  0  0  0  0  0  0  0
    2.8856   -0.2780    1.0670 C   0  0  0  0  0  0  0  0  0  0  0  0
    3.4233   -1.1035    2.4831 Cl  0  0  0  0  0  0  0  0  0  0  0  0
    3.6161    0.8024    0.5934 C   0  0  0  0  0  0  0  0  0  0  0  0
    3.1928    1.4636   -0.5606 C   0  0  0  0  0  0  0  0  0  0  0  0
    4.1685    2.7910   -1.0974 Cl  0  0  0  0  0  0  0  0  0  0  0  0
    2.0288    1.0521   -1.2420 C   0  0  0  0  0  0  0  0  0  0  0  0
    1.5637    1.8796   -2.6989 Cl  0  0  0  0  0  0  0  0  0  0  0  0
    1.2629   -0.0315   -0.7523 C   0  0  0  0  0  0  0  0  0  0  0  0
   -0.0107   -0.5115   -1.4362 C   0  0  0  0  0  0  0  0  0  0  0  0
   -1.2729   -0.4451   -0.5862 C   0  0  0  0  0  0  0  0  0  0  0  0
   -1.7251    0.7989   -0.1056 C   0  0  0  0  0  0  0  0  0  0  0  0
   -1.0217    1.9281   -0.4392 O   0  0  0  0  0  0  0  0  0  0  0  0
   -2.8725    0.9034    0.6891 C   0  0  0  0  0  0  0  0  0  0  0  0
   -3.3954    2.4406    1.2716 Cl  0  0  0  0  0  0  0  0  0  0  0  0
   -3.6042   -0.2297    1.0147 C   0  0  0  0  0  0  0  0  0  0  0  0
   -3.1930   -1.4735    0.5328 C   0  0  0  0  0  0  0  0  0  0  0  0
   -4.1695   -2.8368    0.9688 Cl  0  0  0  0  0  0  0  0  0  0  0  0
   -2.0401   -1.5907   -0.2706 C   0  0  0  0  0  0  0  0  0  0  0  0
   -1.5904   -3.1550   -0.8826 Cl  0  0  0  0  0  0  0  0  0  0  0  0
    1.4944   -2.1311    1.6439 H   0  0  0  0  0  0  0  0  0  0  0  0
    4.5151    1.1252    1.1122 H   0  0  0  0  0  0  0  0  0  0  0  0
   -0.2298    0.0459   -2.3525 H   0  0  0  0  0  0  0  0  0  0  0  0
    0.1989   -1.5235   -1.7968 H   0  0  0  0  0  0  0  0  0  0  0  0
   -1.4826    2.6975   -0.0535 H   0  0  0  0  0  0  0  0  0  0  0  0
   -4.4946   -0.1477    1.6325 H   0  0  0  0  0  0  0  0  0  0  0  0
  1  2  1  0
  2  3  2  0
  3  4  1  0
  3  5  1  0
  5  6  2  0
  6  7  1  0
  6  8  1  0
  8  9  1  0
  8 10  2  0
 10 11  1  0
 11 12  1  0
 12 13  2  0
 13 14  1  0
 13 15  1  0
 15 16  1  0
 15 17  2  0
 17 18  1  0
 18 19  1  0
 18 20  2  0
 20 21  1  0
 10  2  1  0
 20 12  1  0
  1 22  1  0
  5 23  1  0
 11 24  1  0
 11 25  1  0
 14 26  1  0
 17 27  1  0
M  END
$$$$
