
     RDKit          3D

 63 66  0  0  0  0  0  0  0  0999 V2000
    5.8226   -3.3309   -0.4862 C   0  0  0  0  0  0  0  0  0  0  0  0
    6.5316   -2.0658   -0.3692 N   0  0  0  0  0  0  0  0  0  0  0  0
    7.9759   -2.1311   -0.5314 C   0  0  0  0  0  0  0  0  0  0  0  0
    5.9221   -0.8121   -0.5153 C   0  0  0  0  0  0  0  0  0  0  0  0
    6.5963    0.2074   -0.6805 O   0  0  0  0  0  0  0  0  0  0  0  0
    4.3767   -0.7900   -0.4416 C   0  0  0  0  0  0  0  0  0  0  0  0
    3.8074    0.5714   -0.5567 N   0  0  0  0  0  0  0  0  0  0  0  0
    4.0648    1.4045    0.6458 C   0  0  0  0  0  0  0  0  0  0  0  0
    3.1931    1.0548    1.8719 C   0  0  0  0  0  0  0  0  0  0  0  0
    1.7684    1.0477    1.5173 N   0  0  0  0  0  0  0  0  0  0  0  0
    0.9435    1.9985    2.0895 C   0  0  0  0  0  0  0  0  0  0  0  0
    1.3787    2.7934    2.9314 O   0  0  0  0  0  0  0  0  0  0  0  0
   -0.5414    2.1038    1.7197 C   0  0  0  0  0  0  0  0  0  0  0  0
   -1.3256    0.8427    2.1110 C   0  0  0  0  0  0  0  0  0  0  0  0
   -2.8456    1.0271    2.0764 C   0  0  0  0  0  0  0  0  0  0  0  0
   -3.4142    0.9961    0.6754 C   0  0  0  0  0  0  0  0  0  0  0  0
   -4.2467   -0.0695    0.4275 N   0  0  0  0  0  0  0  0  0  0  0  0
   -4.7950   -0.1658   -0.7414 C   0  0  0  0  0  0  0  0  0  0  0  0
   -5.7188   -1.2904   -1.0586 C   0  0  0  0  0  0  0  0  0  0  0  0
   -6.7181   -1.1778   -2.0350 C   0  0  0  0  0  0  0  0  0  0  0  0
   -7.5647   -2.2581   -2.2990 C   0  0  0  0  0  0  0  0  0  0  0  0
   -7.4253   -3.4483   -1.5858 C   0  0  0  0  0  0  0  0  0  0  0  0
   -6.4448   -3.5610   -0.6017 C   0  0  0  0  0  0  0  0  0  0  0  0
   -5.5959   -2.4849   -0.3358 C   0  0  0  0  0  0  0  0  0  0  0  0
   -4.5440    0.7379   -1.7406 N   0  0  0  0  0  0  0  0  0  0  0  0
   -3.6852    1.7824   -1.5850 C   0  0  0  0  0  0  0  0  0  0  0  0
   -3.4030    2.5216   -2.5215 O   0  0  0  0  0  0  0  0  0  0  0  0
   -3.1027    1.9391   -0.2322 C   0  0  0  0  0  0  0  0  0  0  0  0
   -2.1862    3.1014    0.0182 C   0  0  0  0  0  0  0  0  0  0  0  0
   -0.7468    2.6646    0.3036 C   0  0  0  0  0  0  0  0  0  0  0  0
    1.4746    0.1700    0.3823 C   0  0  0  0  0  0  0  0  0  0  0  0
    2.3549    0.5365   -0.8327 C   0  0  0  0  0  0  0  0  0  0  0  0
    5.8371   -3.6408   -1.5356 H   0  0  0  0  0  0  0  0  0  0  0  0
    4.7869   -3.2556   -0.1530 H   0  0  0  0  0  0  0  0  0  0  0  0
    6.3260   -4.0849    0.1274 H   0  0  0  0  0  0  0  0  0  0  0  0
    8.3745   -2.9379    0.0897 H   0  0  0  0  0  0  0  0  0  0  0  0
    8.2013   -2.3303   -1.5830 H   0  0  0  0  0  0  0  0  0  0  0  0
    8.4577   -1.1949   -0.2369 H   0  0  0  0  0  0  0  0  0  0  0  0
    4.0566   -1.2758    0.4856 H   0  0  0  0  0  0  0  0  0  0  0  0
    4.0276   -1.3861   -1.2932 H   0  0  0  0  0  0  0  0  0  0  0  0
    3.8634    2.4480    0.3680 H   0  0  0  0  0  0  0  0  0  0  0  0
    5.1204    1.3775    0.9347 H   0  0  0  0  0  0  0  0  0  0  0  0
    3.4390    0.0552    2.2493 H   0  0  0  0  0  0  0  0  0  0  0  0
    3.4071    1.7607    2.6809 H   0  0  0  0  0  0  0  0  0  0  0  0
   -0.9159    2.8905    2.3956 H   0  0  0  0  0  0  0  0  0  0  0  0
   -1.0447    0.5760    3.1380 H   0  0  0  0  0  0  0  0  0  0  0  0
   -1.0521   -0.0217    1.5010 H   0  0  0  0  0  0  0  0  0  0  0  0
   -3.1422    1.9523    2.5876 H   0  0  0  0  0  0  0  0  0  0  0  0
   -3.2962    0.2147    2.6627 H   0  0  0  0  0  0  0  0  0  0  0  0
   -6.8795   -0.2533   -2.5802 H   0  0  0  0  0  0  0  0  0  0  0  0
   -8.3431   -2.1670   -3.0535 H   0  0  0  0  0  0  0  0  0  0  0  0
   -8.0930   -4.2834   -1.7871 H   0  0  0  0  0  0  0  0  0  0  0  0
   -6.3425   -4.4845   -0.0359 H   0  0  0  0  0  0  0  0  0  0  0  0
   -4.8381   -2.5823    0.4389 H   0  0  0  0  0  0  0  0  0  0  0  0
   -4.8979    0.6141   -2.6756 H   0  0  0  0  0  0  0  0  0  0  0  0
   -2.5750    3.7112    0.8435 H   0  0  0  0  0  0  0  0  0  0  0  0
   -2.1710    3.7716   -0.8491 H   0  0  0  0  0  0  0  0  0  0  0  0
   -0.4265    1.9654   -0.4731 H   0  0  0  0  0  0  0  0  0  0  0  0
   -0.0973    3.5433    0.1898 H   0  0  0  0  0  0  0  0  0  0  0  0
    0.4296    0.2040    0.0891 H   0  0  0  0  0  0  0  0  0  0  0  0
    1.6782   -0.8579    0.7047 H   0  0  0  0  0  0  0  0  0  0  0  0
    2.1411   -0.1450   -1.6649 H   0  0  0  0  0  0  0  0  0  0  0  0
    2.0620    1.5341   -1.1851 H   0  0  0  0  0  0  0  0  0  0  0  0
  1  2  1  0
  2  3  1  0
  2  4  1  0
  4  5  2  0
  4  6  1  0
  6  7  1  0
  7  8  1  0
  8  9  1  0
  9 10  1  0
 10 11  1  0
 11 12  2  0
 11 13  1  0
 13 14  1  0
 14 15  1  0
 15 16  1  0
 16 17  1  0
 17 18  2  0
 18 19  1  0
 19 20  2  0
 20 21  1  0
 21 22  2  0
 22 23  1  0
 23 24  2  0
 18 25  1  0
 25 26  1  0
 26 27  2  0
 26 28  1  0
 28 29  1  0
 29 30  1  0
 10 31  1  0
 31 32  1  0
 32  7  1  0
 30 13  1  0
 28 16  2  0
 24 19  1  0
  1 33  1  0
  1 34  1  0
  1 35  1  0
  3 36  1  0
  3 37  1  0
  3 38  1  0
  6 39  1  0
  6 40  1  0
  8 41  1  0
  8 42  1  0
  9 43  1  0
  9 44  1  0
 13 45  1  0
 14 46  1  0
 14 47  1  0
 15 48  1  0
 15 49  1  0
 20 50  1  0
 21 51  1  0
 22 52  1  0
 23 53  1  0
 24 54  1  0
 25 55  1  0
 29 56  1  0
 29 57  1  0
 30 58  1  0
 30 59  1  0
 31 60  1  0
 31 61  1  0
 32 62  1  0
 32 63  1  0
M  END
$$$$
