
     RDKit          3D

 19 20  0  0  0  0  0  0  0  0999 V2000
    3.9631   -0.2869   -1.4198 O   0  0  0  0  0  0  0  0  0  0  0  0
    3.2769   -0.2831   -0.1397 B   0  0  0  0  0  0  0  0  0  0  0  0
    4.0659    0.0175    1.0496 O   0  0  0  0  0  0  0  0  0  0  0  0
    1.7034   -0.0618   -0.1468 C   0  0  0  0  0  0  0  0  0  0  0  0
    0.7179   -0.8722    0.3811 C   0  0  0  0  0  0  0  0  0  0  0  0
   -0.5504   -0.4420    0.2341 C   0  0  0  0  0  0  0  0  0  0  0  0
   -1.7152   -1.1110    0.6960 C   0  0  0  0  0  0  0  0  0  0  0  0
   -2.9526   -0.5636    0.4810 C   0  0  0  0  0  0  0  0  0  0  0  0
   -3.1680    0.6214   -0.1678 C   0  0  0  0  0  0  0  0  0  0  0  0
   -2.0430    1.2795   -0.6207 C   0  0  0  0  0  0  0  0  0  0  0  0
   -0.7968    0.7161   -0.3973 C   0  0  0  0  0  0  0  0  0  0  0  0
    0.8206    1.2903   -0.8397 S   0  0  0  0  0  0  0  0  0  0  0  0
    3.6356    0.4465   -2.0038 H   0  0  0  0  0  0  0  0  0  0  0  0
    3.7486    0.8854    1.4539 H   0  0  0  0  0  0  0  0  0  0  0  0
    1.0472   -1.8028    0.8787 H   0  0  0  0  0  0  0  0  0  0  0  0
   -1.6725   -2.0463    1.2176 H   0  0  0  0  0  0  0  0  0  0  0  0
   -3.8529   -1.0795    0.8373 H   0  0  0  0  0  0  0  0  0  0  0  0
   -4.1371    1.0570   -0.3401 H   0  0  0  0  0  0  0  0  0  0  0  0
   -2.0909    2.2355   -1.1535 H   0  0  0  0  0  0  0  0  0  0  0  0
  1  2  1  0
  2  3  1  0
  2  4  1  0
  4  5  2  0
  5  6  1  0
  6  7  2  0
  7  8  1  0
  8  9  2  0
  9 10  1  0
 10 11  2  0
 11 12  1  0
 12  4  1  0
 11  6  1  0
  1 13  1  0
  3 14  1  0
  5 15  1  0
  7 16  1  0
  8 17  1  0
  9 18  1  0
 10 19  1  0
M  END
$$$$
