
     RDKit          3D

 40 41  0  0  0  0  0  0  0  0999 V2000
   -2.2658   -0.7944   -1.5237 C   0  0  0  0  0  0  0  0  0  0  0  0
   -2.2492   -0.3644   -0.1202 N   0  0  0  0  0  0  0  0  0  0  0  0
   -1.0253   -0.2035    0.5602 C   0  0  0  0  0  0  0  0  0  0  0  0
   -0.8297    0.3353    1.6465 O   0  0  0  0  0  0  0  0  0  0  0  0
    0.1934   -0.7751   -0.0545 C   0  0  0  0  0  0  0  0  0  0  0  0
    0.3259   -2.1642   -0.1887 C   0  0  0  0  0  0  0  0  0  0  0  0
    1.4925   -2.7003   -0.7374 C   0  0  0  0  0  0  0  0  0  0  0  0
    2.5281   -1.8532   -1.1373 C   0  0  0  0  0  0  0  0  0  0  0  0
    2.3912   -0.4695   -0.9771 C   0  0  0  0  0  0  0  0  0  0  0  0
    3.7031    0.6192   -1.4687 S   0  0  0  0  0  6  0  0  0  0  0  0
    4.8674   -0.1813   -1.7869 O   0  0  0  0  0  0  0  0  0  0  0  0
    3.1384    1.5410   -2.4309 O   0  0  0  0  0  0  0  0  0  0  0  0
    4.0515    1.4775   -0.0315 N   0  0  0  0  0  0  0  0  0  0  0  0
    4.5971    0.6592    1.0748 C   0  0  0  0  0  0  0  0  0  0  0  0
    4.8712    2.6882   -0.2641 C   0  0  0  0  0  0  0  0  0  0  0  0
    1.2289    0.0811   -0.4324 C   0  0  0  0  0  0  0  0  0  0  0  0
   -3.5323   -0.0932    0.4994 C   0  0  0  0  0  0  0  0  0  0  0  0
   -3.6607    0.5603    1.7341 C   0  0  0  0  0  0  0  0  0  0  0  0
   -4.9140    0.8051    2.3140 C   0  0  0  0  0  0  0  0  0  0  0  0
   -6.0766    0.3977    1.6732 C   0  0  0  0  0  0  0  0  0  0  0  0
   -5.9845   -0.2574    0.4527 C   0  0  0  0  0  0  0  0  0  0  0  0
   -4.7301   -0.4987   -0.1236 C   0  0  0  0  0  0  0  0  0  0  0  0
   -2.5508   -1.8501   -1.5712 H   0  0  0  0  0  0  0  0  0  0  0  0
   -1.2944   -0.6694   -2.0080 H   0  0  0  0  0  0  0  0  0  0  0  0
   -2.9638   -0.1772   -2.0990 H   0  0  0  0  0  0  0  0  0  0  0  0
   -0.4711   -2.8249    0.1449 H   0  0  0  0  0  0  0  0  0  0  0  0
    1.5986   -3.7775   -0.8457 H   0  0  0  0  0  0  0  0  0  0  0  0
    3.4353   -2.2762   -1.5649 H   0  0  0  0  0  0  0  0  0  0  0  0
    5.6018    0.2960    0.8386 H   0  0  0  0  0  0  0  0  0  0  0  0
    4.6525    1.2635    1.9866 H   0  0  0  0  0  0  0  0  0  0  0  0
    3.9455   -0.1895    1.2973 H   0  0  0  0  0  0  0  0  0  0  0  0
    4.9871    3.2451    0.6718 H   0  0  0  0  0  0  0  0  0  0  0  0
    5.8651    2.4226   -0.6374 H   0  0  0  0  0  0  0  0  0  0  0  0
    4.3783    3.3567   -0.9759 H   0  0  0  0  0  0  0  0  0  0  0  0
    1.1310    1.1566   -0.2996 H   0  0  0  0  0  0  0  0  0  0  0  0
   -2.8022    0.9268    2.2861 H   0  0  0  0  0  0  0  0  0  0  0  0
   -4.9701    1.3222    3.2693 H   0  0  0  0  0  0  0  0  0  0  0  0
   -7.0464    0.5884    2.1243 H   0  0  0  0  0  0  0  0  0  0  0  0
   -6.8870   -0.5881   -0.0554 H   0  0  0  0  0  0  0  0  0  0  0  0
   -4.7298   -1.0346   -1.0679 H   0  0  0  0  0  0  0  0  0  0  0  0
  1  2  1  0
  2  3  1  0
  3  4  2  0
  3  5  1  0
  5  6  2  0
  6  7  1  0
  7  8  2  0
  8  9  1  0
  9 10  1  0
 10 11  2  0
 10 12  2  0
 10 13  1  0
 13 14  1  0
 13 15  1  0
  9 16  2  0
  2 17  1  0
 17 18  2  0
 18 19  1  0
 19 20  2  0
 20 21  1  0
 21 22  2  0
 16  5  1  0
 22 17  1  0
  1 23  1  0
  1 24  1  0
  1 25  1  0
  6 26  1  0
  7 27  1  0
  8 28  1  0
 14 29  1  0
 14 30  1  0
 14 31  1  0
 15 32  1  0
 15 33  1  0
 15 34  1  0
 16 35  1  0
 18 36  1  0
 19 37  1  0
 20 38  1  0
 21 39  1  0
 22 40  1  0
M  END
$$$$
