
     RDKit          3D

 78 81  0  0  0  0  0  0  0  0999 V2000
    1.3912    1.7342    1.3386 O   0  0  0  0  0  0  0  0  0  0  0  0
    1.5300    0.8614    0.4962 C   0  0  0  0  0  0  0  0  0  0  0  0
    2.6994    0.1946    0.3751 O   0  0  0  0  0  0  0  0  0  0  0  0
    0.4690    0.3740   -0.4830 C   0  0  1  0  0  0  0  0  0  0  0  0
    1.0158   -0.3984   -1.5596 O   0  0  0  0  0  0  0  0  0  0  0  0
   -0.5674   -0.4410    0.2923 C   0  0  2  0  0  0  0  0  0  0  0  0
   -0.2165   -1.8298    0.2733 O   0  0  0  0  0  0  0  0  0  0  0  0
   -1.9469   -0.1974   -0.3035 C   0  0  0  0  0  0  0  0  0  0  0  0
   -2.6199   -1.0051   -0.9261 O   0  0  0  0  0  0  0  0  0  0  0  0
   -2.4163    1.0450   -0.0696 O   0  0  0  0  0  0  0  0  0  0  0  0
   -5.3665   -3.7808    3.0341 O   0  0  0  0  0  0  0  0  0  0  0  0
   -4.5981   -2.7724    2.5319 C   0  0  0  0  0  0  0  0  0  0  0  0
   -3.4119   -3.1155    1.8980 C   0  0  0  0  0  0  0  0  0  0  0  0
   -2.5897   -2.1182    1.3693 C   0  0  0  0  0  0  0  0  0  0  0  0
   -2.9627   -0.7700    1.4516 C   0  0  0  0  0  0  0  0  0  0  0  0
   -4.1627   -0.4359    2.1201 C   0  0  0  0  0  0  0  0  0  0  0  0
   -4.9770   -1.4408    2.6589 C   0  0  0  0  0  0  0  0  0  0  0  0
   -4.5021    1.0183    2.3207 C   0  0  0  0  0  0  0  0  0  0  0  0
   -4.2545    1.8736    1.0756 C   0  0  0  0  0  0  0  0  0  0  0  0
   -3.0272    1.4649    0.2151 C   0  0  2  0  0  0  0  0  0  0  0  0
   -3.4792    1.1353   -1.2088 C   0  0  0  0  0  0  0  0  0  0  0  0
   -4.4045    0.1154   -1.4841 C   0  0  0  0  0  0  0  0  0  0  0  0
   -4.7981   -0.1582   -2.7955 C   0  0  0  0  0  0  0  0  0  0  0  0
   -4.2762    0.5832   -3.8518 C   0  0  0  0  0  0  0  0  0  0  0  0
   -3.3586    1.5988   -3.5979 C   0  0  0  0  0  0  0  0  0  0  0  0
   -2.9631    1.8734   -2.2874 C   0  0  0  0  0  0  0  0  0  0  0  0
   -2.1274    0.3913    0.9187 C   0  0  2  0  0  0  0  0  0  0  0  0
   -0.8411    0.0626    0.1616 C   0  0  0  0  0  0  0  0  0  0  0  0
    0.3928    0.5031    0.6698 C   0  0  0  0  0  0  0  0  0  0  0  0
    1.5934    0.2402   -0.0018 C   0  0  0  0  0  0  0  0  0  0  0  0
    1.5867   -0.4657   -1.2020 C   0  0  0  0  0  0  0  0  0  0  0  0
    2.6787   -0.7924   -1.9553 O   0  0  0  0  0  0  0  0  0  0  0  0
    3.9207   -0.1408   -1.6670 C   0  0  0  0  0  0  0  0  0  0  0  0
    4.7573   -0.9740   -0.6790 C   0  0  0  0  0  0  0  0  0  0  0  0
    6.0507   -0.4389   -0.2489 N   0  0  0  0  0  0  0  0  0  0  0  0
    5.9917    0.8222    0.4801 C   0  0  0  0  0  0  0  0  0  0  0  0
    7.4630    1.1823    0.6046 C   0  0  0  0  0  0  0  0  0  0  0  0
    8.1169    0.5893   -0.6404 C   0  0  0  0  0  0  0  0  0  0  0  0
    7.0303   -0.2438   -1.3117 C   0  0  0  0  0  0  0  0  0  0  0  0
    0.3699   -0.9216   -1.7088 C   0  0  0  0  0  0  0  0  0  0  0  0
   -0.8294   -0.6607   -1.0389 C   0  0  0  0  0  0  0  0  0  0  0  0
    3.2804    0.5993    1.0547 H   0  0  0  0  0  0  0  0  0  0  0  0
    0.0411    1.2760   -0.9354 H   0  0  0  0  0  0  0  0  0  0  0  0
    1.6899   -0.9735   -1.1430 H   0  0  0  0  0  0  0  0  0  0  0  0
   -0.6277   -0.1463    1.3458 H   0  0  0  0  0  0  0  0  0  0  0  0
   -0.4137   -2.1385   -0.6349 H   0  0  0  0  0  0  0  0  0  0  0  0
   -3.3085    1.0455   -0.4795 H   0  0  0  0  0  0  0  0  0  0  0  0
   -6.1562   -3.3920    3.4447 H   0  0  0  0  0  0  0  0  0  0  0  0
   -3.1203   -4.1591    1.8211 H   0  0  0  0  0  0  0  0  0  0  0  0
   -1.6553   -2.4195    0.9023 H   0  0  0  0  0  0  0  0  0  0  0  0
   -5.8927   -1.1740    3.1784 H   0  0  0  0  0  0  0  0  0  0  0  0
   -5.5497    1.1351    2.6249 H   0  0  0  0  0  0  0  0  0  0  0  0
   -3.8935    1.3932    3.1535 H   0  0  0  0  0  0  0  0  0  0  0  0
   -5.1725    1.8849    0.4736 H   0  0  0  0  0  0  0  0  0  0  0  0
   -4.1278    2.9145    1.4022 H   0  0  0  0  0  0  0  0  0  0  0  0
   -2.4042    2.3691    0.1350 H   0  0  0  0  0  0  0  0  0  0  0  0
   -4.8326   -0.4816   -0.6825 H   0  0  0  0  0  0  0  0  0  0  0  0
   -5.5142   -0.9521   -2.9902 H   0  0  0  0  0  0  0  0  0  0  0  0
   -4.5830    0.3685   -4.8714 H   0  0  0  0  0  0  0  0  0  0  0  0
   -2.9479    2.1786   -4.4207 H   0  0  0  0  0  0  0  0  0  0  0  0
   -2.2388    2.6668   -2.1159 H   0  0  0  0  0  0  0  0  0  0  0  0
   -1.7815    0.8785    1.8453 H   0  0  0  0  0  0  0  0  0  0  0  0
    0.4343    1.0548    1.6078 H   0  0  0  0  0  0  0  0  0  0  0  0
    2.5147    0.5911    0.4528 H   0  0  0  0  0  0  0  0  0  0  0  0
    4.4508   -0.0794   -2.6237 H   0  0  0  0  0  0  0  0  0  0  0  0
    3.7670    0.8943   -1.3438 H   0  0  0  0  0  0  0  0  0  0  0  0
    4.1596   -1.1822    0.2166 H   0  0  0  0  0  0  0  0  0  0  0  0
    4.9201   -1.9664   -1.1195 H   0  0  0  0  0  0  0  0  0  0  0  0
    5.4682    1.6057   -0.0790 H   0  0  0  0  0  0  0  0  0  0  0  0
    5.5210    0.7136    1.4626 H   0  0  0  0  0  0  0  0  0  0  0  0
    7.8972    0.7252    1.5019 H   0  0  0  0  0  0  0  0  0  0  0  0
    7.6149    2.2640    0.6722 H   0  0  0  0  0  0  0  0  0  0  0  0
    8.4788    1.3751   -1.3120 H   0  0  0  0  0  0  0  0  0  0  0  0
    8.9761   -0.0299   -0.3556 H   0  0  0  0  0  0  0  0  0  0  0  0
    6.6217    0.3172   -2.1615 H   0  0  0  0  0  0  0  0  0  0  0  0
    7.4275   -1.1944   -1.6837 H   0  0  0  0  0  0  0  0  0  0  0  0
    0.3496   -1.4833   -2.6401 H   0  0  0  0  0  0  0  0  0  0  0  0
   -1.7534   -1.0403   -1.4702 H   0  0  0  0  0  0  0  0  0  0  0  0
  1  2  2  0
  2  3  1  0
  2  4  1  0
  4  5  1  0
  4  6  1  0
  6  7  1  0
  6  8  1  0
  8  9  2  0
  8 10  1  0
 11 12  1  0
 12 13  2  0
 13 14  1  0
 14 15  2  0
 15 16  1  0
 16 17  2  0
 16 18  1  0
 18 19  1  0
 19 20  1  0
 20 21  1  0
 21 22  2  0
 22 23  1  0
 23 24  2  0
 24 25  1  0
 25 26  2  0
 20 27  1  0
 27 28  1  0
 28 29  2  0
 29 30  1  0
 30 31  2  0
 31 32  1  0
 32 33  1  0
 33 34  1  0
 34 35  1  0
 35 36  1  0
 36 37  1  0
 37 38  1  0
 38 39  1  0
 31 40  1  0
 40 41  2  0
 17 12  1  0
 26 21  1  0
 41 28  1  0
 27 15  1  0
 39 35  1  0
  3 42  1  0
  4 43  1  6
  5 44  1  0
  6 45  1  1
  7 46  1  0
 10 47  1  0
 11 48  1  0
 13 49  1  0
 14 50  1  0
 17 51  1  0
 18 52  1  0
 18 53  1  0
 19 54  1  0
 19 55  1  0
 20 56  1  6
 22 57  1  0
 23 58  1  0
 24 59  1  0
 25 60  1  0
 26 61  1  0
 27 62  1  1
 29 63  1  0
 30 64  1  0
 33 65  1  0
 33 66  1  0
 34 67  1  0
 34 68  1  0
 36 69  1  0
 36 70  1  0
 37 71  1  0
 37 72  1  0
 38 73  1  0
 38 74  1  0
 39 75  1  0
 39 76  1  0
 40 77  1  0
 41 78  1  0
M  END
$$$$
