
     RDKit          3D

 36 37  0  0  0  0  0  0  0  0999 V2000
   -4.6045    1.7796   -0.6192 C   0  0  0  0  0  0  0  0  0  0  0  0
   -4.8330    0.4586   -0.0100 N   0  0  0  0  0  0  0  0  0  0  0  0
   -4.7850   -0.6460   -0.9835 C   0  0  0  0  0  0  0  0  0  0  0  0
   -4.1163    0.1781    1.5088 S   0  0  0  0  0  6  0  0  0  0  0  0
   -4.3262    1.3519    2.3306 O   0  0  0  0  0  0  0  0  0  0  0  0
   -4.5198   -1.1346    1.9668 O   0  0  0  0  0  0  0  0  0  0  0  0
   -2.3775    0.1005    1.1269 C   0  0  0  0  0  0  0  0  0  0  0  0
   -1.7920   -1.1264    0.8066 C   0  0  0  0  0  0  0  0  0  0  0  0
   -0.4242   -1.1880    0.5212 C   0  0  0  0  0  0  0  0  0  0  0  0
    0.3638   -0.0352    0.5695 C   0  0  0  0  0  0  0  0  0  0  0  0
    1.7411   -0.0204    0.2952 N   0  0  0  0  0  0  0  0  0  0  0  0
    2.5579   -1.0754   -0.0668 C   0  0  0  0  0  0  0  0  0  0  0  0
    2.2318   -2.2452   -0.2252 O   0  0  0  0  0  0  0  0  0  0  0  0
    3.9868   -0.6586   -0.2642 C   0  0  0  0  0  0  0  0  0  0  0  0
    4.9483   -1.6002   -0.6086 C   0  0  0  0  0  0  0  0  0  0  0  0
    6.2606   -1.1670   -0.7723 C   0  0  0  0  0  0  0  0  0  0  0  0
    6.5627    0.1797   -0.5907 C   0  0  0  0  0  0  0  0  0  0  0  0
    5.5372    1.0491   -0.2496 C   0  0  0  0  0  0  0  0  0  0  0  0
    4.2518    0.6690   -0.0810 N   0  0  0  0  0  0  0  0  0  0  0  0
   -0.2314    1.1842    0.9211 C   0  0  0  0  0  0  0  0  0  0  0  0
   -1.5973    1.2557    1.2080 C   0  0  0  0  0  0  0  0  0  0  0  0
   -3.5904    1.8598   -1.0205 H   0  0  0  0  0  0  0  0  0  0  0  0
   -4.7777    2.5825    0.1022 H   0  0  0  0  0  0  0  0  0  0  0  0
   -5.3118    1.9330   -1.4405 H   0  0  0  0  0  0  0  0  0  0  0  0
   -3.7975   -0.7192   -1.4479 H   0  0  0  0  0  0  0  0  0  0  0  0
   -5.0406   -1.5994   -0.5139 H   0  0  0  0  0  0  0  0  0  0  0  0
   -5.5259   -0.4722   -1.7711 H   0  0  0  0  0  0  0  0  0  0  0  0
   -2.3848   -2.0378    0.7811 H   0  0  0  0  0  0  0  0  0  0  0  0
    0.0003   -2.1562    0.2720 H   0  0  0  0  0  0  0  0  0  0  0  0
    2.2325    0.8686    0.3678 H   0  0  0  0  0  0  0  0  0  0  0  0
    4.6835   -2.6438   -0.7444 H   0  0  0  0  0  0  0  0  0  0  0  0
    7.0418   -1.8746   -1.0376 H   0  0  0  0  0  0  0  0  0  0  0  0
    7.5782    0.5430   -0.7104 H   0  0  0  0  0  0  0  0  0  0  0  0
    5.7337    2.1075   -0.0979 H   0  0  0  0  0  0  0  0  0  0  0  0
    0.3632    2.0927    0.9827 H   0  0  0  0  0  0  0  0  0  0  0  0
   -2.0393    2.2069    1.4970 H   0  0  0  0  0  0  0  0  0  0  0  0
  1  2  1  0
  2  3  1  0
  2  4  1  0
  4  5  2  0
  4  6  2  0
  4  7  1  0
  7  8  2  0
  8  9  1  0
  9 10  2  0
 10 11  1  0
 11 12  1  0
 12 13  2  0
 12 14  1  0
 14 15  2  0
 15 16  1  0
 16 17  2  0
 17 18  1  0
 18 19  2  0
 10 20  1  0
 20 21  2  0
 21  7  1  0
 19 14  1  0
  1 22  1  0
  1 23  1  0
  1 24  1  0
  3 25  1  0
  3 26  1  0
  3 27  1  0
  8 28  1  0
  9 29  1  0
 11 30  1  0
 15 31  1  0
 16 32  1  0
 17 33  1  0
 18 34  1  0
 20 35  1  0
 21 36  1  0
M  END
$$$$
