
     RDKit          3D

 19 19  0  0  0  0  0  0  0  0999 V2000
   -3.4632   -0.3609    0.0400 N   0  0  0  0  0  0  0  0  0  0  0  0
   -2.0645   -0.2200    0.0602 C   0  0  0  0  0  0  0  0  0  0  0  0
   -1.2893   -1.0324   -0.7769 C   0  0  0  0  0  0  0  0  0  0  0  0
    0.1064   -1.0126   -0.7029 C   0  0  0  0  0  0  0  0  0  0  0  0
    0.7353   -0.1945    0.2381 C   0  0  0  0  0  0  0  0  0  0  0  0
    2.4981   -0.1872    0.3616 S   0  0  0  0  0  6  0  0  0  0  0  0
    2.8994    1.1643   -0.5491 N   0  0  0  0  0  0  0  0  0  0  0  0
    3.0316   -1.3205   -0.3566 O   0  0  0  0  0  0  0  0  0  0  0  0
    2.8745    0.1191    1.7212 O   0  0  0  0  0  0  0  0  0  0  0  0
   -0.0155    0.5779    1.1254 C   0  0  0  0  0  0  0  0  0  0  0  0
   -1.4081    0.5497    1.0411 C   0  0  0  0  0  0  0  0  0  0  0  0
   -2.3160    1.5139    2.1546 Cl  0  0  0  0  0  0  0  0  0  0  0  0
   -3.8519   -0.5984   -0.8666 H   0  0  0  0  0  0  0  0  0  0  0  0
   -3.9454    0.4167    0.4874 H   0  0  0  0  0  0  0  0  0  0  0  0
   -1.7706   -1.6967   -1.4912 H   0  0  0  0  0  0  0  0  0  0  0  0
    0.6882   -1.6462   -1.3693 H   0  0  0  0  0  0  0  0  0  0  0  0
    3.4566    0.8832   -1.3568 H   0  0  0  0  0  0  0  0  0  0  0  0
    3.3591    1.8567    0.0434 H   0  0  0  0  0  0  0  0  0  0  0  0
    0.4753    1.1878    1.8798 H   0  0  0  0  0  0  0  0  0  0  0  0
  1  2  1  0
  2  3  2  0
  3  4  1  0
  4  5  2  0
  5  6  1  0
  6  7  1  0
  6  8  2  0
  6  9  2  0
  5 10  1  0
 10 11  2  0
 11 12  1  0
 11  2  1  0
  1 13  1  0
  1 14  1  0
  3 15  1  0
  4 16  1  0
  7 17  1  0
  7 18  1  0
 10 19  1  0
M  END
$$$$
