
     RDKit          3D

 42 44  0  0  0  0  0  0  0  0999 V2000
   -0.5643    1.2192   -1.0995 C   0  0  0  0  0  0  0  0  0  0  0  0
   -1.1206    0.0097   -0.4879 N   0  0  0  0  0  0  0  0  0  0  0  0
   -0.5230   -1.2391   -0.6958 C   0  0  0  0  0  0  0  0  0  0  0  0
   -1.1066   -2.2875   -0.9392 O   0  0  0  0  0  0  0  0  0  0  0  0
    0.8735   -1.2797   -0.5151 N   0  0  0  0  0  0  0  0  0  0  0  0
    1.6768   -2.3313   -0.9041 C   0  0  0  0  0  0  0  0  0  0  0  0
    2.9450   -2.1327   -0.6225 N   0  0  0  0  0  0  0  0  0  0  0  0
    2.9882   -0.9299    0.0345 C   0  0  0  0  0  0  0  0  0  0  0  0
    4.2184   -0.3573    0.5536 C   0  0  0  0  0  0  0  0  0  0  0  0
    5.4218   -1.0614    0.4279 C   0  0  0  0  0  0  0  0  0  0  0  0
    6.6126   -0.5299    0.9155 C   0  0  0  0  0  0  0  0  0  0  0  0
    6.5945    0.7168    1.5311 C   0  0  0  0  0  0  0  0  0  0  0  0
    5.4198    1.4338    1.6667 N   0  0  0  0  0  4  0  0  0  0  0  0
    5.4168    2.5732    2.2275 O   0  0  0  0  0  1  0  0  0  0  0  0
    4.2443    0.8905    1.1784 C   0  0  0  0  0  0  0  0  0  0  0  0
    1.7214   -0.3976    0.1356 C   0  0  0  0  0  0  0  0  0  0  0  0
   -2.5662   -0.0041   -0.1922 C   0  0  0  0  0  0  0  0  0  0  0  0
   -3.4412   -0.0919   -1.4519 C   0  0  0  0  0  0  0  0  0  0  0  0
   -4.9101   -0.3474   -1.1005 C   0  0  0  0  0  0  0  0  0  0  0  0
   -5.3197    0.2055    0.2659 C   0  0  0  0  0  0  0  0  0  0  0  0
   -4.5177    1.4437    0.6413 C   0  0  0  0  0  0  0  0  0  0  0  0
   -3.0125    1.1639    0.7101 C   0  0  0  0  0  0  0  0  0  0  0  0
    0.3474    1.0089   -1.6641 H   0  0  0  0  0  0  0  0  0  0  0  0
   -0.3528    1.9489   -0.3137 H   0  0  0  0  0  0  0  0  0  0  0  0
   -1.2837    1.6455   -1.8033 H   0  0  0  0  0  0  0  0  0  0  0  0
    1.2683   -3.2025   -1.4014 H   0  0  0  0  0  0  0  0  0  0  0  0
    5.4337   -2.0385   -0.0558 H   0  0  0  0  0  0  0  0  0  0  0  0
    7.5437   -1.0806    0.8164 H   0  0  0  0  0  0  0  0  0  0  0  0
    7.4560    1.2204    1.9419 H   0  0  0  0  0  0  0  0  0  0  0  0
    3.3961    1.5364    1.3389 H   0  0  0  0  0  0  0  0  0  0  0  0
    1.3439    0.4878    0.6236 H   0  0  0  0  0  0  0  0  0  0  0  0
   -2.7451   -0.9261    0.3805 H   0  0  0  0  0  0  0  0  0  0  0  0
   -3.0898   -0.8784   -2.1295 H   0  0  0  0  0  0  0  0  0  0  0  0
   -3.3725    0.8457   -2.0175 H   0  0  0  0  0  0  0  0  0  0  0  0
   -5.1127   -1.4253   -1.1172 H   0  0  0  0  0  0  0  0  0  0  0  0
   -5.5397    0.0931   -1.8832 H   0  0  0  0  0  0  0  0  0  0  0  0
   -6.3916    0.4336    0.2630 H   0  0  0  0  0  0  0  0  0  0  0  0
   -5.1686   -0.5661    1.0313 H   0  0  0  0  0  0  0  0  0  0  0  0
   -4.8609    1.8410    1.6033 H   0  0  0  0  0  0  0  0  0  0  0  0
   -4.7042    2.2280   -0.1034 H   0  0  0  0  0  0  0  0  0  0  0  0
   -2.4898    2.0950    0.4666 H   0  0  0  0  0  0  0  0  0  0  0  0
   -2.7288    0.9290    1.7441 H   0  0  0  0  0  0  0  0  0  0  0  0
  1  2  1  0
  2  3  1  0
  3  4  2  0
  3  5  1  0
  5  6  1  0
  6  7  2  0
  7  8  1  0
  8  9  1  0
  9 10  2  0
 10 11  1  0
 11 12  2  0
 12 13  1  0
 13 14  1  0
 13 15  2  0
  8 16  2  0
  2 17  1  0
 17 18  1  0
 18 19  1  0
 19 20  1  0
 20 21  1  0
 21 22  1  0
 16  5  1  0
 22 17  1  0
 15  9  1  0
  1 23  1  0
  1 24  1  0
  1 25  1  0
  6 26  1  0
 10 27  1  0
 11 28  1  0
 12 29  1  0
 15 30  1  0
 16 31  1  0
 17 32  1  0
 18 33  1  0
 18 34  1  0
 19 35  1  0
 19 36  1  0
 20 37  1  0
 20 38  1  0
 21 39  1  0
 21 40  1  0
 22 41  1  0
 22 42  1  0
M  CHG  2  13   1  14  -1
M  END
$$$$
