
     RDKit          3D

 46 50  0  0  0  0  0  0  0  0999 V2000
   -3.5313   -3.4547    0.3154 N   0  0  0  0  0  0  0  0  0  0  0  0
   -2.4978   -2.5646    0.1694 C   0  0  0  0  0  0  0  0  0  0  0  0
   -1.3540   -2.9326    0.4039 O   0  0  0  0  0  0  0  0  0  0  0  0
   -2.8376   -1.1648   -0.2067 C   0  0  0  0  0  0  0  0  0  0  0  0
   -4.0135   -0.9290   -0.9233 C   0  0  0  0  0  0  0  0  0  0  0  0
   -4.5167    0.2794   -1.2689 N   0  0  0  0  0  0  0  0  0  0  0  0
   -3.7483    1.2933   -0.8386 C   0  0  0  0  0  0  0  0  0  0  0  0
   -4.0481    2.6138   -1.0357 N   0  0  0  0  0  0  0  0  0  0  0  0
   -3.0798    3.4008   -0.4713 C   0  0  0  0  0  0  0  0  0  0  0  0
   -2.1393    2.5634    0.0895 C   0  0  0  0  0  0  0  0  0  0  0  0
   -2.5448    1.2155   -0.1453 C   0  0  0  0  0  0  0  0  0  0  0  0
   -2.0217   -0.0652    0.1647 C   0  0  0  0  0  0  0  0  0  0  0  0
   -0.7532   -0.2028    0.7901 N   0  0  0  0  0  0  0  0  0  0  0  0
    0.3432   -0.4612   -0.1768 C   0  0  1  0  0  0  0  0  0  0  0  0
    0.9307    0.8507   -0.7561 C   0  0  1  0  0  0  0  0  0  0  0  0
    1.6056    1.6870    0.3501 C   0  0  0  0  0  0  0  0  0  0  0  0
    2.7402    0.8875    1.0095 C   0  0  1  0  0  0  0  0  0  0  0  0
    2.1586   -0.3991    1.6160 C   0  0  0  0  0  0  0  0  0  0  0  0
    1.4884   -1.2509    0.5193 C   0  0  2  0  0  0  0  0  0  0  0  0
    2.5467   -1.6111   -0.5396 C   0  0  0  0  0  0  0  0  0  0  0  0
    3.1278   -0.3280   -1.1591 C   0  0  2  0  0  0  0  0  0  0  0  0
    4.0865   -0.6602   -2.1520 O   0  0  0  0  0  0  0  0  0  0  0  0
    3.7844    0.5183   -0.0553 C   0  0  0  0  0  0  0  0  0  0  0  0
    1.9946    0.4838   -1.8092 C   0  0  0  0  0  0  0  0  0  0  0  0
   -3.2721   -4.3532    0.7065 H   0  0  0  0  0  0  0  0  0  0  0  0
   -4.4823   -3.1537    0.4815 H   0  0  0  0  0  0  0  0  0  0  0  0
   -4.6261   -1.7557   -1.2760 H   0  0  0  0  0  0  0  0  0  0  0  0
   -4.8727    2.9326   -1.5226 H   0  0  0  0  0  0  0  0  0  0  0  0
   -3.1428    4.4799   -0.5142 H   0  0  0  0  0  0  0  0  0  0  0  0
   -1.2511    2.8780    0.6201 H   0  0  0  0  0  0  0  0  0  0  0  0
   -0.8169   -1.0179    1.4101 H   0  0  0  0  0  0  0  0  0  0  0  0
   -0.0349   -1.0775   -1.0047 H   0  0  0  0  0  0  0  0  0  0  0  0
    0.1514    1.4455   -1.2416 H   0  0  0  0  0  0  0  0  0  0  0  0
    0.8746    1.9825    1.1105 H   0  0  0  0  0  0  0  0  0  0  0  0
    2.0047    2.6148   -0.0786 H   0  0  0  0  0  0  0  0  0  0  0  0
    3.2103    1.4890    1.7953 H   0  0  0  0  0  0  0  0  0  0  0  0
    1.4362   -0.1506    2.4024 H   0  0  0  0  0  0  0  0  0  0  0  0
    2.9576   -0.9769    2.0973 H   0  0  0  0  0  0  0  0  0  0  0  0
    1.1017   -2.1720    0.9691 H   0  0  0  0  0  0  0  0  0  0  0  0
    2.1088   -2.2445   -1.3219 H   0  0  0  0  0  0  0  0  0  0  0  0
    3.3488   -2.2105   -0.0896 H   0  0  0  0  0  0  0  0  0  0  0  0
    4.7949   -1.1721   -1.7254 H   0  0  0  0  0  0  0  0  0  0  0  0
    4.6171   -0.0331    0.4003 H   0  0  0  0  0  0  0  0  0  0  0  0
    4.2299    1.4235   -0.4876 H   0  0  0  0  0  0  0  0  0  0  0  0
    2.4005    1.3916   -2.2746 H   0  0  0  0  0  0  0  0  0  0  0  0
    1.5411   -0.0889   -2.6287 H   0  0  0  0  0  0  0  0  0  0  0  0
  1  2  1  0
  2  3  2  0
  2  4  1  0
  4  5  2  0
  5  6  1  0
  6  7  2  0
  7  8  1  0
  8  9  1  0
  9 10  2  0
 10 11  1  0
 11 12  2  0
 12 13  1  0
 13 14  1  0
 14 15  1  0
 15 16  1  0
 16 17  1  0
 17 18  1  0
 18 19  1  0
 19 20  1  0
 20 21  1  0
 21 22  1  6
 21 23  1  0
 21 24  1  0
 12  4  1  0
 19 14  1  0
 11  7  1  0
 24 15  1  0
 23 17  1  0
  1 25  1  0
  1 26  1  0
  5 27  1  0
  8 28  1  0
  9 29  1  0
 10 30  1  0
 13 31  1  0
 14 32  1  6
 15 33  1  6
 16 34  1  0
 16 35  1  0
 17 36  1  1
 18 37  1  0
 18 38  1  0
 19 39  1  1
 20 40  1  0
 20 41  1  0
 22 42  1  0
 23 43  1  0
 23 44  1  0
 24 45  1  0
 24 46  1  0
M  END
$$$$
