
     RDKit          3D

 55 57  0  0  0  0  0  0  0  0999 V2000
    0.7644    0.0000    0.0000 Br  0  0  0  0  0  0  0  0  0  0  0  0
   -3.8495   -1.2642   -0.1384 C   0  0  0  0  0  0  0  0  0  0  0  0
   -4.4437    0.0491   -0.3495 N   0  0  0  0  0  0  0  0  0  0  0  0
   -5.4762    0.2108    0.6553 C   0  0  0  0  0  0  0  0  0  0  0  0
   -5.6939    1.7074    0.6545 C   0  0  0  0  0  0  0  0  0  0  0  0
   -4.2376    2.1890    0.6829 C   0  0  0  0  0  0  0  0  0  0  0  0
   -3.5132    1.1091   -0.1071 C   0  0  2  0  0  0  0  0  0  0  0  0
   -2.9725    1.7038   -1.4107 C   0  0  0  0  0  0  0  0  0  0  0  0
   -2.2743    0.6772   -2.2114 C   0  0  0  0  0  0  0  0  0  0  0  0
   -2.7588    0.0527   -3.3320 C   0  0  0  0  0  0  0  0  0  0  0  0
   -1.8004   -0.7985   -3.7336 N   0  0  0  0  0  0  0  0  0  0  0  0
   -0.7351   -0.7363   -2.9148 C   0  0  0  0  0  0  0  0  0  0  0  0
    0.4913   -1.3737   -2.8621 C   0  0  0  0  0  0  0  0  0  0  0  0
    1.4025   -1.0855   -1.8672 C   0  0  0  0  0  0  0  0  0  0  0  0
    1.1446   -0.1554   -0.8794 C   0  0  0  0  0  0  0  0  0  0  0  0
    2.1437    0.1395    0.1811 C   0  0  0  0  0  0  0  0  0  0  0  0
    1.9856   -0.7524    1.3931 C   0  0  0  0  0  0  0  0  0  0  0  0
    3.2622   -0.2489    2.5482 S   0  0  0  0  0  6  0  0  0  0  0  0
    3.1012    1.1949    2.8810 O   0  0  0  0  0  0  0  0  0  0  0  0
    3.2031   -1.0929    3.8075 O   0  0  0  0  0  0  0  0  0  0  0  0
    4.8181   -0.4697    1.7818 C   0  0  0  0  0  0  0  0  0  0  0  0
    5.5089   -1.6630    1.9005 C   0  0  0  0  0  0  0  0  0  0  0  0
    6.7322   -1.7688    1.2682 C   0  0  0  0  0  0  0  0  0  0  0  0
    7.2301   -0.7050    0.5464 C   0  0  0  0  0  0  0  0  0  0  0  0
    6.5487    0.4879    0.4228 C   0  0  0  0  0  0  0  0  0  0  0  0
    5.3306    0.5856    1.0556 C   0  0  0  0  0  0  0  0  0  0  0  0
   -0.0785    0.4788   -0.9338 C   0  0  0  0  0  0  0  0  0  0  0  0
   -1.0097    0.1917   -1.9412 C   0  0  0  0  0  0  0  0  0  0  0  0
   -0.7644    0.0000    0.0000 H   0  0  0  0  0  0  0  0  0  0  0  0
   -2.7366   -1.1299   -0.0284 H   0  0  0  0  0  0  0  0  0  0  0  0
   -4.2273   -1.7483    0.7639 H   0  0  0  0  0  0  0  0  0  0  0  0
   -4.0855   -1.9287   -0.9948 H   0  0  0  0  0  0  0  0  0  0  0  0
   -5.0922   -0.1335    1.6343 H   0  0  0  0  0  0  0  0  0  0  0  0
   -6.3985   -0.3527    0.4135 H   0  0  0  0  0  0  0  0  0  0  0  0
   -6.1902    1.9853   -0.2807 H   0  0  0  0  0  0  0  0  0  0  0  0
   -6.2210    2.0122    1.5618 H   0  0  0  0  0  0  0  0  0  0  0  0
   -4.1697    3.1766    0.2190 H   0  0  0  0  0  0  0  0  0  0  0  0
   -3.9312    2.2066    1.7317 H   0  0  0  0  0  0  0  0  0  0  0  0
   -2.6642    0.7224    0.4691 H   0  0  0  0  0  0  0  0  0  0  0  0
   -3.8266    2.1249   -1.9632 H   0  0  0  0  0  0  0  0  0  0  0  0
   -2.2530    2.4945   -1.1003 H   0  0  0  0  0  0  0  0  0  0  0  0
   -3.7410    0.2183   -3.8073 H   0  0  0  0  0  0  0  0  0  0  0  0
   -1.8617   -1.4219   -4.5586 H   0  0  0  0  0  0  0  0  0  0  0  0
    0.6891   -2.1081   -3.6461 H   0  0  0  0  0  0  0  0  0  0  0  0
    2.3675   -1.6141   -1.8599 H   0  0  0  0  0  0  0  0  0  0  0  0
    3.1400    0.0006   -0.2775 H   0  0  0  0  0  0  0  0  0  0  0  0
    2.0472    1.2087    0.4379 H   0  0  0  0  0  0  0  0  0  0  0  0
    2.1450   -1.7945    1.0884 H   0  0  0  0  0  0  0  0  0  0  0  0
    0.9986   -0.6321    1.8662 H   0  0  0  0  0  0  0  0  0  0  0  0
    5.1074   -2.5014    2.4742 H   0  0  0  0  0  0  0  0  0  0  0  0
    7.2771   -2.7112    1.3620 H   0  0  0  0  0  0  0  0  0  0  0  0
    8.2032   -0.7984    0.0473 H   0  0  0  0  0  0  0  0  0  0  0  0
    6.9373    1.3234   -0.1429 H   0  0  0  0  0  0  0  0  0  0  0  0
    4.7752    1.5192    0.9712 H   0  0  0  0  0  0  0  0  0  0  0  0
   -0.3484    1.2184   -0.1932 H   0  0  0  0  0  0  0  0  0  0  0  0
  2  3  1  0
  3  4  1  0
  4  5  1  0
  5  6  1  0
  6  7  1  0
  7  8  1  0
  8  9  1  0
  9 10  2  0
 10 11  1  0
 11 12  1  0
 12 13  2  0
 13 14  1  0
 14 15  2  0
 15 16  1  0
 16 17  1  0
 17 18  1  0
 18 19  2  0
 18 20  2  0
 18 21  1  0
 21 22  2  0
 22 23  1  0
 23 24  2  0
 24 25  1  0
 25 26  2  0
 15 27  1  0
 27 28  2  0
  7  3  1  0
 28  9  1  0
 28 12  1  0
 26 21  1  0
  1 29  1  0
  2 30  1  0
  2 31  1  0
  2 32  1  0
  4 33  1  0
  4 34  1  0
  5 35  1  0
  5 36  1  0
  6 37  1  0
  6 38  1  0
  7 39  1  1
  8 40  1  0
  8 41  1  0
 10 42  1  0
 11 43  1  0
 13 44  1  0
 14 45  1  0
 16 46  1  0
 16 47  1  0
 17 48  1  0
 17 49  1  0
 22 50  1  0
 23 51  1  0
 24 52  1  0
 25 53  1  0
 26 54  1  0
 27 55  1  0
M  END
$$$$
