
     RDKit          3D

 22 23  0  0  0  0  0  0  0  0999 V2000
   -1.6958    2.7369   -1.0851 F   0  0  0  0  0  0  0  0  0  0  0  0
   -0.6160    1.9102   -0.9546 C   0  0  0  0  0  0  0  0  0  0  0  0
   -0.0408    1.8807   -2.1878 F   0  0  0  0  0  0  0  0  0  0  0  0
    0.2398    2.5813   -0.1380 F   0  0  0  0  0  0  0  0  0  0  0  0
   -0.9863    0.5328   -0.4500 C   0  0  0  0  0  0  0  0  0  0  0  0
   -2.3399    0.1479   -0.5975 C   0  0  0  0  0  0  0  0  0  0  0  0
   -2.8221   -1.0529   -0.0799 C   0  0  0  0  0  0  0  0  0  0  0  0
   -1.9621   -1.9010    0.6009 C   0  0  0  0  0  0  0  0  0  0  0  0
   -0.6174   -1.5584    0.7466 C   0  0  0  0  0  0  0  0  0  0  0  0
   -0.1073   -0.3574    0.2083 C   0  0  0  0  0  0  0  0  0  0  0  0
    1.2930   -0.1229    0.3541 N   0  0  0  0  0  0  0  0  0  0  0  0
    2.1450    0.5437   -0.4953 C   0  0  0  0  0  0  0  0  0  0  0  0
    3.3967    0.4609    0.0693 C   0  0  0  0  0  0  0  0  0  0  0  0
    3.3581   -0.2530    1.2301 N   0  0  0  0  0  0  0  0  0  0  0  0
    2.0977   -0.5966    1.3726 C   0  0  0  0  0  0  0  0  0  0  0  0
   -3.0431    0.8078   -1.1079 H   0  0  0  0  0  0  0  0  0  0  0  0
   -3.8696   -1.3188   -0.2016 H   0  0  0  0  0  0  0  0  0  0  0  0
   -2.3320   -2.8396    1.0076 H   0  0  0  0  0  0  0  0  0  0  0  0
    0.0249   -2.2812    1.2466 H   0  0  0  0  0  0  0  0  0  0  0  0
    1.8414    0.9746   -1.4348 H   0  0  0  0  0  0  0  0  0  0  0  0
    4.3249    0.8638   -0.3157 H   0  0  0  0  0  0  0  0  0  0  0  0
    1.7109   -1.1585    2.2120 H   0  0  0  0  0  0  0  0  0  0  0  0
  1  2  1  0
  2  3  1  0
  2  4  1  0
  2  5  1  0
  5  6  2  0
  6  7  1  0
  7  8  2  0
  8  9  1  0
  9 10  2  0
 10 11  1  0
 11 12  1  0
 12 13  2  0
 13 14  1  0
 14 15  2  0
 10  5  1  0
 15 11  1  0
  6 16  1  0
  7 17  1  0
  8 18  1  0
  9 19  1  0
 12 20  1  0
 13 21  1  0
 15 22  1  0
M  END
$$$$
