
     RDKit          3D

 43 44  0  0  0  0  0  0  0  0999 V2000
   -6.6128   -0.8530   -1.1695 C   0  0  0  0  0  0  0  0  0  0  0  0
   -5.1777   -0.7636   -0.7290 C   0  0  0  0  0  0  0  0  0  0  0  0
   -4.4425   -1.9394   -0.5329 C   0  0  0  0  0  0  0  0  0  0  0  0
   -3.1075   -1.8877   -0.1238 C   0  0  0  0  0  0  0  0  0  0  0  0
   -2.4756   -0.6606    0.0963 C   0  0  0  0  0  0  0  0  0  0  0  0
   -1.1271   -0.6962    0.5132 N   0  0  0  0  0  0  0  0  0  0  0  0
   -0.2823    0.3803    0.7156 C   0  0  0  0  0  0  0  0  0  0  0  0
   -0.5282    1.5597    0.4968 O   0  0  0  0  0  0  0  0  0  0  0  0
    1.0842    0.0296    1.2029 C   0  0  0  0  0  0  0  0  0  0  0  0
    1.3099   -1.0584    2.0600 C   0  0  0  0  0  0  0  0  0  0  0  0
    2.6045   -1.3547    2.4954 C   0  0  0  0  0  0  0  0  0  0  0  0
    3.6788   -0.5680    2.0808 C   0  0  0  0  0  0  0  0  0  0  0  0
    3.4526    0.5186    1.2297 C   0  0  0  0  0  0  0  0  0  0  0  0
    4.8177    1.5569    0.7437 S   0  0  0  0  0  6  0  0  0  0  0  0
    4.2983    2.8932    0.5508 O   0  0  0  0  0  0  0  0  0  0  0  0
    5.9005    1.3027    1.6712 O   0  0  0  0  0  0  0  0  0  0  0  0
    5.2615    0.9246   -0.7715 N   0  0  0  0  0  0  0  0  0  0  0  0
    4.3405    1.1604   -1.8960 C   0  0  0  0  0  0  0  0  0  0  0  0
    5.8713   -0.4148   -0.7848 C   0  0  0  0  0  0  0  0  0  0  0  0
    2.1582    0.8369    0.8082 C   0  0  0  0  0  0  0  0  0  0  0  0
   -3.2061    0.5132   -0.0936 C   0  0  0  0  0  0  0  0  0  0  0  0
   -4.5525    0.4777   -0.5060 C   0  0  0  0  0  0  0  0  0  0  0  0
   -5.2934    1.7740   -0.6967 C   0  0  0  0  0  0  0  0  0  0  0  0
   -7.2693   -0.3959   -0.4224 H   0  0  0  0  0  0  0  0  0  0  0  0
   -6.7475   -0.3497   -2.1321 H   0  0  0  0  0  0  0  0  0  0  0  0
   -6.9308   -1.8935   -1.2948 H   0  0  0  0  0  0  0  0  0  0  0  0
   -4.9055   -2.9100   -0.6977 H   0  0  0  0  0  0  0  0  0  0  0  0
   -2.5745   -2.8239    0.0165 H   0  0  0  0  0  0  0  0  0  0  0  0
   -0.7310   -1.6209    0.6077 H   0  0  0  0  0  0  0  0  0  0  0  0
    0.4851   -1.6610    2.4323 H   0  0  0  0  0  0  0  0  0  0  0  0
    2.7735   -2.1875    3.1752 H   0  0  0  0  0  0  0  0  0  0  0  0
    4.6816   -0.7939    2.4391 H   0  0  0  0  0  0  0  0  0  0  0  0
    3.4974    0.4647   -1.8668 H   0  0  0  0  0  0  0  0  0  0  0  0
    4.8738    1.0177   -2.8417 H   0  0  0  0  0  0  0  0  0  0  0  0
    3.9665    2.1877   -1.8966 H   0  0  0  0  0  0  0  0  0  0  0  0
    6.6366   -0.5097   -0.0098 H   0  0  0  0  0  0  0  0  0  0  0  0
    6.3704   -0.5830   -1.7449 H   0  0  0  0  0  0  0  0  0  0  0  0
    5.1145   -1.1922   -0.6478 H   0  0  0  0  0  0  0  0  0  0  0  0
    1.9811    1.7081    0.1789 H   0  0  0  0  0  0  0  0  0  0  0  0
   -2.7485    1.4830    0.0793 H   0  0  0  0  0  0  0  0  0  0  0  0
   -4.6562    2.6389   -0.4839 H   0  0  0  0  0  0  0  0  0  0  0  0
   -6.1521    1.8236   -0.0198 H   0  0  0  0  0  0  0  0  0  0  0  0
   -5.6374    1.8662   -1.7317 H   0  0  0  0  0  0  0  0  0  0  0  0
  1  2  1  0
  2  3  2  0
  3  4  1  0
  4  5  2  0
  5  6  1  0
  6  7  1  0
  7  8  2  0
  7  9  1  0
  9 10  2  0
 10 11  1  0
 11 12  2  0
 12 13  1  0
 13 14  1  0
 14 15  2  0
 14 16  2  0
 14 17  1  0
 17 18  1  0
 17 19  1  0
 13 20  2  0
  5 21  1  0
 21 22  2  0
 22 23  1  0
 22  2  1  0
 20  9  1  0
  1 24  1  0
  1 25  1  0
  1 26  1  0
  3 27  1  0
  4 28  1  0
  6 29  1  0
 10 30  1  0
 11 31  1  0
 12 32  1  0
 18 33  1  0
 18 34  1  0
 18 35  1  0
 19 36  1  0
 19 37  1  0
 19 38  1  0
 20 39  1  0
 21 40  1  0
 23 41  1  0
 23 42  1  0
 23 43  1  0
M  END
$$$$
