
     RDKit          3D

 56 58  0  0  0  0  0  0  0  0999 V2000
    4.2918    1.8018    0.5508 C   0  0  0  0  0  0  0  0  0  0  0  0
    3.2448    2.4496    1.4579 C   0  0  0  0  0  0  0  0  0  0  0  0
    3.8896    3.5673    2.2795 C   0  0  0  0  0  0  0  0  0  0  0  0
    2.5739    1.4328    2.3960 C   0  0  0  0  0  0  0  0  0  0  0  0
    1.7605    0.4689    1.6807 N   0  0  0  0  0  0  0  0  0  0  0  0
    2.2170   -0.7892    1.3784 C   0  0  0  0  0  0  0  0  0  0  0  0
    3.3266   -1.1863    1.7233 O   0  0  0  0  0  0  0  0  0  0  0  0
    1.3335   -1.5722    0.6513 N   0  0  0  0  0  0  0  0  0  0  0  0
    1.8108   -2.8474    0.1197 C   0  0  0  0  0  0  0  0  0  0  0  0
    1.1923   -3.1367   -1.2454 C   0  0  0  0  0  0  0  0  0  0  0  0
   -0.3338   -3.2221   -1.1769 C   0  0  0  0  0  0  0  0  0  0  0  0
   -0.9265   -2.3736   -0.0450 C   0  0  0  0  0  0  0  0  0  0  0  0
   -2.3616   -1.9704   -0.3205 C   0  0  0  0  0  0  0  0  0  0  0  0
   -3.3262   -2.5326    0.3562 N   0  0  0  0  0  0  0  0  0  0  0  0
   -4.4672   -1.9799   -0.1528 N   0  0  0  0  0  0  0  0  0  0  0  0
   -5.7781   -2.3626    0.2931 C   0  0  0  0  0  0  0  0  0  0  0  0
   -4.1571   -1.0863   -1.1696 C   0  0  0  0  0  0  0  0  0  0  0  0
   -4.9356   -0.4394   -1.8516 O   0  0  0  0  0  0  0  0  0  0  0  0
   -2.7802   -1.0837   -1.2443 N   0  0  0  0  0  0  0  0  0  0  0  0
   -2.0741   -0.2565   -2.2093 C   0  0  0  0  0  0  0  0  0  0  0  0
   -1.5970    1.0764   -1.6639 C   0  0  0  0  0  0  0  0  0  0  0  0
   -0.4026    1.6306   -2.1579 C   0  0  0  0  0  0  0  0  0  0  0  0
    0.0796    2.8456   -1.6677 C   0  0  0  0  0  0  0  0  0  0  0  0
   -0.6353    3.5359   -0.6933 C   0  0  0  0  0  0  0  0  0  0  0  0
   -1.8374    3.0177   -0.2180 C   0  0  0  0  0  0  0  0  0  0  0  0
   -2.3205    1.8009   -0.7053 C   0  0  0  0  0  0  0  0  0  0  0  0
   -0.0438   -1.1916    0.3383 C   0  0  0  0  0  0  0  0  0  0  0  0
    4.7885    2.5563   -0.0688 H   0  0  0  0  0  0  0  0  0  0  0  0
    5.0609    1.2864    1.1359 H   0  0  0  0  0  0  0  0  0  0  0  0
    3.8336    1.0757   -0.1279 H   0  0  0  0  0  0  0  0  0  0  0  0
    2.4762    2.9009    0.8174 H   0  0  0  0  0  0  0  0  0  0  0  0
    4.6706    3.1753    2.9400 H   0  0  0  0  0  0  0  0  0  0  0  0
    3.1431    4.0743    2.9002 H   0  0  0  0  0  0  0  0  0  0  0  0
    4.3441    4.3191    1.6256 H   0  0  0  0  0  0  0  0  0  0  0  0
    3.3192    0.9154    3.0105 H   0  0  0  0  0  0  0  0  0  0  0  0
    1.8894    1.9541    3.0747 H   0  0  0  0  0  0  0  0  0  0  0  0
    1.0179    0.8466    1.1142 H   0  0  0  0  0  0  0  0  0  0  0  0
    2.9026   -2.8396    0.0333 H   0  0  0  0  0  0  0  0  0  0  0  0
    1.5417   -3.6277    0.8412 H   0  0  0  0  0  0  0  0  0  0  0  0
    1.5962   -4.0685   -1.6565 H   0  0  0  0  0  0  0  0  0  0  0  0
    1.4711   -2.3351   -1.9416 H   0  0  0  0  0  0  0  0  0  0  0  0
   -0.6235   -4.2675   -1.0052 H   0  0  0  0  0  0  0  0  0  0  0  0
   -0.7557   -2.9680   -2.1549 H   0  0  0  0  0  0  0  0  0  0  0  0
   -0.9623   -3.0259    0.8416 H   0  0  0  0  0  0  0  0  0  0  0  0
   -6.5413   -1.7661   -0.2132 H   0  0  0  0  0  0  0  0  0  0  0  0
   -5.8457   -2.2053    1.3727 H   0  0  0  0  0  0  0  0  0  0  0  0
   -5.9330   -3.4203    0.0645 H   0  0  0  0  0  0  0  0  0  0  0  0
   -1.2123   -0.8272   -2.5671 H   0  0  0  0  0  0  0  0  0  0  0  0
   -2.7276   -0.0604   -3.0672 H   0  0  0  0  0  0  0  0  0  0  0  0
    0.1716    1.1119   -2.9236 H   0  0  0  0  0  0  0  0  0  0  0  0
    1.0102    3.2566   -2.0518 H   0  0  0  0  0  0  0  0  0  0  0  0
   -0.2652    4.4859   -0.3160 H   0  0  0  0  0  0  0  0  0  0  0  0
   -2.4083    3.5666    0.5274 H   0  0  0  0  0  0  0  0  0  0  0  0
   -3.2722    1.4349   -0.3261 H   0  0  0  0  0  0  0  0  0  0  0  0
    0.0497   -0.4927   -0.4891 H   0  0  0  0  0  0  0  0  0  0  0  0
   -0.4830   -0.6528    1.1854 H   0  0  0  0  0  0  0  0  0  0  0  0
  1  2  1  0
  2  3  1  0
  2  4  1  0
  4  5  1  0
  5  6  1  0
  6  7  2  0
  6  8  1  0
  8  9  1  0
  9 10  1  0
 10 11  1  0
 11 12  1  0
 12 13  1  0
 13 14  2  0
 14 15  1  0
 15 16  1  0
 15 17  1  0
 17 18  2  0
 17 19  1  0
 19 20  1  0
 20 21  1  0
 21 22  2  0
 22 23  1  0
 23 24  2  0
 24 25  1  0
 25 26  2  0
 12 27  1  0
 27  8  1  0
 19 13  1  0
 26 21  1  0
  1 28  1  0
  1 29  1  0
  1 30  1  0
  2 31  1  0
  3 32  1  0
  3 33  1  0
  3 34  1  0
  4 35  1  0
  4 36  1  0
  5 37  1  0
  9 38  1  0
  9 39  1  0
 10 40  1  0
 10 41  1  0
 11 42  1  0
 11 43  1  0
 12 44  1  0
 16 45  1  0
 16 46  1  0
 16 47  1  0
 20 48  1  0
 20 49  1  0
 22 50  1  0
 23 51  1  0
 24 52  1  0
 25 53  1  0
 26 54  1  0
 27 55  1  0
 27 56  1  0
M  END
$$$$
