
     RDKit          3D

 39 40  0  0  0  0  0  0  0  0999 V2000
   -1.4442    3.6293   -2.7116 C   0  0  0  0  0  0  0  0  0  0  0  0
   -0.9113    2.7947   -1.5582 C   0  0  0  0  0  0  0  0  0  0  0  0
   -1.0950    1.2976   -1.8218 C   0  0  0  0  0  0  0  0  0  0  0  0
   -0.6088    0.4708   -0.7103 N   0  0  0  0  0  0  0  0  0  0  0  0
    0.7825    0.3338   -0.5597 C   0  0  0  0  0  0  0  0  0  0  0  0
    1.5653    0.7216   -1.4244 O   0  0  0  0  0  0  0  0  0  0  0  0
    1.1625   -0.1880    0.6618 N   0  0  0  0  0  0  0  0  0  0  0  0
    2.4641   -0.4824    1.1135 C   0  0  0  0  0  0  0  0  0  0  0  0
    3.6143   -0.3772    0.3370 C   0  0  0  0  0  0  0  0  0  0  0  0
    4.8545   -0.7059    0.8865 C   0  0  0  0  0  0  0  0  0  0  0  0
    4.9045   -1.1362    2.2018 C   0  0  0  0  0  0  0  0  0  0  0  0
    3.8159   -1.2588    2.9885 N   0  0  0  0  0  0  0  0  0  0  0  0
    2.6280   -0.9296    2.4250 C   0  0  0  0  0  0  0  0  0  0  0  0
   -1.5837   -0.2846    0.0086 C   0  0  0  0  0  0  0  0  0  0  0  0
   -2.6487    0.4090    0.6058 C   0  0  0  0  0  0  0  0  0  0  0  0
   -3.6031   -0.2620    1.3708 C   0  0  0  0  0  0  0  0  0  0  0  0
   -3.5109   -1.6380    1.5410 C   0  0  0  0  0  0  0  0  0  0  0  0
   -2.4790   -2.3457    0.9262 C   0  0  0  0  0  0  0  0  0  0  0  0
   -1.5199   -1.6888    0.1338 C   0  0  0  0  0  0  0  0  0  0  0  0
   -0.4992   -2.5433   -0.5709 C   0  0  0  0  0  0  0  0  0  0  0  0
   -0.9207    3.3905   -3.6429 H   0  0  0  0  0  0  0  0  0  0  0  0
   -2.5138    3.4521   -2.8625 H   0  0  0  0  0  0  0  0  0  0  0  0
   -1.3024    4.6949   -2.5058 H   0  0  0  0  0  0  0  0  0  0  0  0
   -1.4277    3.0832   -0.6361 H   0  0  0  0  0  0  0  0  0  0  0  0
    0.1488    3.0283   -1.4075 H   0  0  0  0  0  0  0  0  0  0  0  0
   -0.5398    1.0138   -2.7248 H   0  0  0  0  0  0  0  0  0  0  0  0
   -2.1497    1.0735   -2.0244 H   0  0  0  0  0  0  0  0  0  0  0  0
    0.4145   -0.2975    1.3321 H   0  0  0  0  0  0  0  0  0  0  0  0
    3.5818   -0.0470   -0.6959 H   0  0  0  0  0  0  0  0  0  0  0  0
    5.7601   -0.6268    0.2953 H   0  0  0  0  0  0  0  0  0  0  0  0
    5.8485   -1.4017    2.6687 H   0  0  0  0  0  0  0  0  0  0  0  0
    1.7777   -1.0433    3.0916 H   0  0  0  0  0  0  0  0  0  0  0  0
   -2.7268    1.4889    0.5140 H   0  0  0  0  0  0  0  0  0  0  0  0
   -4.4118    0.2923    1.8402 H   0  0  0  0  0  0  0  0  0  0  0  0
   -4.2500   -2.1644    2.1400 H   0  0  0  0  0  0  0  0  0  0  0  0
   -2.4391   -3.4270    1.0480 H   0  0  0  0  0  0  0  0  0  0  0  0
   -0.9391   -3.5052   -0.8583 H   0  0  0  0  0  0  0  0  0  0  0  0
    0.3538   -2.7415    0.0839 H   0  0  0  0  0  0  0  0  0  0  0  0
   -0.1518   -2.0796   -1.4988 H   0  0  0  0  0  0  0  0  0  0  0  0
  1  2  1  0
  2  3  1  0
  3  4  1  0
  4  5  1  0
  5  6  2  0
  5  7  1  0
  7  8  1  0
  8  9  2  0
  9 10  1  0
 10 11  2  0
 11 12  1  0
 12 13  2  0
  4 14  1  0
 14 15  2  0
 15 16  1  0
 16 17  2  0
 17 18  1  0
 18 19  2  0
 19 20  1  0
 13  8  1  0
 19 14  1  0
  1 21  1  0
  1 22  1  0
  1 23  1  0
  2 24  1  0
  2 25  1  0
  3 26  1  0
  3 27  1  0
  7 28  1  0
  9 29  1  0
 10 30  1  0
 11 31  1  0
 13 32  1  0
 15 33  1  0
 16 34  1  0
 17 35  1  0
 18 36  1  0
 20 37  1  0
 20 38  1  0
 20 39  1  0
M  END
$$$$
