
     RDKit          3D

 65 67  0  0  0  0  0  0  0  0999 V2000
   -3.6399    2.6922   -3.3292 C   0  0  0  0  0  0  0  0  0  0  0  0
   -3.2862    2.3455   -1.8910 C   0  0  0  0  0  0  0  0  0  0  0  0
   -4.2032    1.2775   -1.2794 C   0  0  2  0  0  0  0  0  0  0  0  0
   -5.6431    1.7597   -1.1024 C   0  0  0  0  0  0  0  0  0  0  0  0
   -3.6314    0.8530    0.0628 C   0  0  0  0  0  0  0  0  0  0  0  0
   -3.9924    1.2822    1.1497 O   0  0  0  0  0  0  0  0  0  0  0  0
   -2.6331   -0.0550   -0.1292 O   0  0  0  0  0  0  0  0  0  0  0  0
   -1.9588   -0.5222    1.0581 C   0  0  1  0  0  0  0  0  0  0  0  0
   -2.8358   -1.5870    1.7630 C   0  0  0  0  0  0  0  0  0  0  0  0
   -2.0751   -2.8594    2.1900 C   0  0  1  0  0  0  0  0  0  0  0  0
   -3.0563   -3.9219    2.6875 C   0  0  0  0  0  0  0  0  0  0  0  0
   -1.2632   -3.3663    1.0229 C   0  0  0  0  0  0  0  0  0  0  0  0
   -0.5860   -2.4927    0.2582 C   0  0  0  0  0  0  0  0  0  0  0  0
    0.0403   -2.8868   -0.9801 C   0  0  0  0  0  0  0  0  0  0  0  0
    0.3417   -1.9860   -1.9247 C   0  0  0  0  0  0  0  0  0  0  0  0
    0.0717   -0.5123   -1.7383 C   0  0  2  0  0  0  0  0  0  0  0  0
    0.8778    0.3133   -2.7405 C   0  0  0  0  0  0  0  0  0  0  0  0
    0.2711   -0.0882   -0.2523 C   0  0  2  0  0  0  0  0  0  0  0  0
    1.7709   -0.0697    0.1885 C   0  0  0  0  0  0  0  0  0  0  0  0
    2.4556    1.2951   -0.0101 C   0  0  0  0  0  0  0  0  0  0  0  0
    3.8549    1.4032    0.6209 C   0  0  2  0  0  0  0  0  0  0  0  0
    4.8811    0.4506    0.0095 C   0  0  0  0  0  0  0  0  0  0  0  0
    6.1549    0.3905    0.8555 C   0  0  1  0  0  0  0  0  0  0  0  0
    7.2967    0.5942    0.0249 O   0  0  0  0  0  0  0  0  0  0  0  0
    6.1557    1.3883    1.9999 C   0  0  0  0  0  0  0  0  0  0  0  0
    4.8827    1.2480    2.7847 C   0  0  0  0  0  0  0  0  0  0  0  0
    4.8552    1.2238    4.0090 O   0  0  0  0  0  0  0  0  0  0  0  0
    3.7490    1.1837    2.0386 O   0  0  0  0  0  0  0  0  0  0  0  0
   -0.5398   -1.0377    0.6963 C   0  0  1  0  0  0  0  0  0  0  0  0
   -3.6116    1.8003   -3.9632 H   0  0  0  0  0  0  0  0  0  0  0  0
   -2.9181    3.4131   -3.7275 H   0  0  0  0  0  0  0  0  0  0  0  0
   -4.6347    3.1408   -3.4059 H   0  0  0  0  0  0  0  0  0  0  0  0
   -2.2470    1.9909   -1.8715 H   0  0  0  0  0  0  0  0  0  0  0  0
   -3.3075    3.2571   -1.2800 H   0  0  0  0  0  0  0  0  0  0  0  0
   -4.2320    0.3880   -1.9240 H   0  0  0  0  0  0  0  0  0  0  0  0
   -5.6893    2.6806   -0.5111 H   0  0  0  0  0  0  0  0  0  0  0  0
   -6.1196    1.9553   -2.0690 H   0  0  0  0  0  0  0  0  0  0  0  0
   -6.2437    1.0041   -0.5847 H   0  0  0  0  0  0  0  0  0  0  0  0
   -1.8180    0.3320    1.7362 H   0  0  0  0  0  0  0  0  0  0  0  0
   -3.2994   -1.1330    2.6494 H   0  0  0  0  0  0  0  0  0  0  0  0
   -3.6709   -1.8658    1.1051 H   0  0  0  0  0  0  0  0  0  0  0  0
   -1.3927   -2.6229    3.0166 H   0  0  0  0  0  0  0  0  0  0  0  0
   -3.6387   -3.5447    3.5353 H   0  0  0  0  0  0  0  0  0  0  0  0
   -3.7588   -4.2224    1.9019 H   0  0  0  0  0  0  0  0  0  0  0  0
   -2.5244   -4.8191    3.0221 H   0  0  0  0  0  0  0  0  0  0  0  0
   -1.3123   -4.4209    0.7653 H   0  0  0  0  0  0  0  0  0  0  0  0
    0.1880   -3.9457   -1.1754 H   0  0  0  0  0  0  0  0  0  0  0  0
    0.7415   -2.3277   -2.8766 H   0  0  0  0  0  0  0  0  0  0  0  0
   -0.9814   -0.3519   -2.0043 H   0  0  0  0  0  0  0  0  0  0  0  0
    1.9506    0.1013   -2.6846 H   0  0  0  0  0  0  0  0  0  0  0  0
    0.5621    0.0859   -3.7662 H   0  0  0  0  0  0  0  0  0  0  0  0
    0.7163    1.3843   -2.5827 H   0  0  0  0  0  0  0  0  0  0  0  0
   -0.1214    0.9299   -0.1279 H   0  0  0  0  0  0  0  0  0  0  0  0
    2.3266   -0.8541   -0.3361 H   0  0  0  0  0  0  0  0  0  0  0  0
    1.8438   -0.3087    1.2558 H   0  0  0  0  0  0  0  0  0  0  0  0
    1.8200    2.0626    0.4517 H   0  0  0  0  0  0  0  0  0  0  0  0
    2.5363    1.5402   -1.0730 H   0  0  0  0  0  0  0  0  0  0  0  0
    4.1891    2.4392    0.4720 H   0  0  0  0  0  0  0  0  0  0  0  0
    4.4766   -0.5673   -0.0212 H   0  0  0  0  0  0  0  0  0  0  0  0
    5.0883    0.7319   -1.0301 H   0  0  0  0  0  0  0  0  0  0  0  0
    6.2508   -0.6217    1.2678 H   0  0  0  0  0  0  0  0  0  0  0  0
    7.2573    1.4894   -0.3554 H   0  0  0  0  0  0  0  0  0  0  0  0
    7.0095    1.1900    2.6587 H   0  0  0  0  0  0  0  0  0  0  0  0
    6.2629    2.4221    1.6527 H   0  0  0  0  0  0  0  0  0  0  0  0
   -0.0129   -1.0489    1.6629 H   0  0  0  0  0  0  0  0  0  0  0  0
  1  2  1  0
  2  3  1  0
  3  4  1  0
  3  5  1  0
  5  6  2  0
  5  7  1  0
  7  8  1  0
  8  9  1  0
  9 10  1  0
 10 11  1  0
 10 12  1  0
 12 13  2  0
 13 14  1  0
 14 15  2  0
 15 16  1  0
 16 17  1  0
 16 18  1  0
 18 19  1  0
 19 20  1  0
 20 21  1  0
 21 22  1  0
 22 23  1  0
 23 24  1  0
 23 25  1  0
 25 26  1  0
 26 27  2  0
 26 28  1  0
 18 29  1  0
 29  8  1  0
 29 13  1  0
 28 21  1  0
  1 30  1  0
  1 31  1  0
  1 32  1  0
  2 33  1  0
  2 34  1  0
  3 35  1  6
  4 36  1  0
  4 37  1  0
  4 38  1  0
  8 39  1  1
  9 40  1  0
  9 41  1  0
 10 42  1  1
 11 43  1  0
 11 44  1  0
 11 45  1  0
 12 46  1  0
 14 47  1  0
 15 48  1  0
 16 49  1  6
 17 50  1  0
 17 51  1  0
 17 52  1  0
 18 53  1  6
 19 54  1  0
 19 55  1  0
 20 56  1  0
 20 57  1  0
 21 58  1  1
 22 59  1  0
 22 60  1  0
 23 61  1  1
 24 62  1  0
 25 63  1  0
 25 64  1  0
 29 65  1  1
M  END
$$$$
