
     RDKit          3D

 42 45  0  0  0  0  0  0  0  0999 V2000
    7.3665    0.0343   -1.9489 O   0  0  0  0  0  0  0  0  0  0  0  0
    6.7097   -0.9092   -1.5520 C   0  0  0  0  0  0  0  0  0  0  0  0
    7.2254   -2.1479   -1.4847 O   0  0  0  0  0  0  0  0  0  0  0  0
    5.2985   -0.8499   -1.0982 C   0  0  0  0  0  0  0  0  0  0  0  0
    4.6084   -2.0052   -0.6582 C   0  0  0  0  0  0  0  0  0  0  0  0
    3.2762   -1.9271   -0.2342 C   0  0  0  0  0  0  0  0  0  0  0  0
    2.6710   -0.6842   -0.2634 C   0  0  0  0  0  0  0  0  0  0  0  0
    3.3384    0.4401   -0.6908 C   0  0  0  0  0  0  0  0  0  0  0  0
    4.6542    0.3963   -1.1160 C   0  0  0  0  0  0  0  0  0  0  0  0
    2.4155    1.5661   -0.5940 C   0  0  0  0  0  0  0  0  0  0  0  0
    2.7747    2.6850   -0.9133 O   0  0  0  0  0  0  0  0  0  0  0  0
    1.2176    1.0772   -0.1064 N   0  0  0  0  0  0  0  0  0  0  0  0
    0.0446    1.8634    0.1344 C   0  0  0  0  0  0  0  0  0  0  0  0
   -0.0109    3.2272   -0.2030 C   0  0  0  0  0  0  0  0  0  0  0  0
   -1.1540    4.0017    0.0367 C   0  0  0  0  0  0  0  0  0  0  0  0
   -2.2782    3.4272    0.6148 C   0  0  0  0  0  0  0  0  0  0  0  0
   -2.2592    2.0765    0.9391 C   0  0  0  0  0  0  0  0  0  0  0  0
   -3.3897    1.5661    1.5396 O   0  0  0  0  0  0  0  0  0  0  0  0
   -3.8397    0.3444    1.0936 C   0  0  0  0  0  0  0  0  0  0  0  0
   -4.1427   -0.6142    2.0627 C   0  0  0  0  0  0  0  0  0  0  0  0
   -4.6256   -1.8669    1.6780 C   0  0  0  0  0  0  0  0  0  0  0  0
   -4.8177   -2.1432    0.3167 C   0  0  0  0  0  0  0  0  0  0  0  0
   -5.3242   -3.4590   -0.0935 N   0  0  0  0  0  4  0  0  0  0  0  0
   -5.5362   -4.2980    0.7938 O   0  0  0  0  0  0  0  0  0  0  0  0
   -5.5132   -3.6530   -1.3031 O   0  0  0  0  0  1  0  0  0  0  0  0
   -4.5375   -1.1732   -0.6564 C   0  0  0  0  0  0  0  0  0  0  0  0
   -4.0547    0.0770   -0.2623 C   0  0  0  0  0  0  0  0  0  0  0  0
   -1.1046    1.3087    0.7228 C   0  0  0  0  0  0  0  0  0  0  0  0
    1.3168   -0.2853    0.1051 C   0  0  0  0  0  0  0  0  0  0  0  0
    0.5167   -1.1152    0.4985 O   0  0  0  0  0  0  0  0  0  0  0  0
    8.1459   -2.0411   -1.8071 H   0  0  0  0  0  0  0  0  0  0  0  0
    5.1094   -2.9724   -0.6450 H   0  0  0  0  0  0  0  0  0  0  0  0
    2.7366   -2.8069    0.1044 H   0  0  0  0  0  0  0  0  0  0  0  0
    5.1619    1.2978   -1.4496 H   0  0  0  0  0  0  0  0  0  0  0  0
    0.8281    3.7399   -0.6647 H   0  0  0  0  0  0  0  0  0  0  0  0
   -1.1569    5.0561   -0.2300 H   0  0  0  0  0  0  0  0  0  0  0  0
   -3.1634    4.0264    0.8079 H   0  0  0  0  0  0  0  0  0  0  0  0
   -3.9923   -0.3881    3.1156 H   0  0  0  0  0  0  0  0  0  0  0  0
   -4.8456   -2.6080    2.4435 H   0  0  0  0  0  0  0  0  0  0  0  0
   -4.6900   -1.3724   -1.7150 H   0  0  0  0  0  0  0  0  0  0  0  0
   -3.8503    0.8356   -1.0138 H   0  0  0  0  0  0  0  0  0  0  0  0
   -1.1297    0.2736    1.0455 H   0  0  0  0  0  0  0  0  0  0  0  0
  1  2  2  0
  2  3  1  0
  2  4  1  0
  4  5  2  0
  5  6  1  0
  6  7  2  0
  7  8  1  0
  8  9  2  0
  8 10  1  0
 10 11  2  0
 10 12  1  0
 12 13  1  0
 13 14  2  0
 14 15  1  0
 15 16  2  0
 16 17  1  0
 17 18  1  0
 18 19  1  0
 19 20  2  0
 20 21  1  0
 21 22  2  0
 22 23  1  0
 23 24  2  0
 23 25  1  0
 22 26  1  0
 26 27  2  0
 17 28  2  0
 12 29  1  0
 29 30  2  0
  9  4  1  0
 28 13  1  0
 29  7  1  0
 27 19  1  0
  3 31  1  0
  5 32  1  0
  6 33  1  0
  9 34  1  0
 14 35  1  0
 15 36  1  0
 16 37  1  0
 20 38  1  0
 21 39  1  0
 26 40  1  0
 27 41  1  0
 28 42  1  0
M  CHG  2  23   1  25  -1
M  END
$$$$
