
     RDKit          3D

 37 41  0  0  0  0  0  0  0  0999 V2000
   -1.2089   -1.6982   -3.5998 O   0  0  0  0  0  0  0  0  0  0  0  0
   -0.9467   -1.3352   -2.4719 C   0  0  0  0  0  0  0  0  0  0  0  0
   -0.2567   -0.2099   -2.1214 O   0  0  0  0  0  0  0  0  0  0  0  0
   -0.1096   -0.0771   -0.6825 C   0  0  0  0  0  0  0  0  0  0  0  0
   -0.8146   -1.2919   -0.1680 C   0  0  0  0  0  0  0  0  0  0  0  0
   -1.0218   -1.7390    1.1299 C   0  0  0  0  0  0  0  0  0  0  0  0
   -1.7293   -2.9311    1.3168 C   0  0  0  0  0  0  0  0  0  0  0  0
   -2.2178   -3.6576    0.2177 C   0  0  0  0  0  0  0  0  0  0  0  0
   -2.0041   -3.2001   -1.0826 C   0  0  0  0  0  0  0  0  0  0  0  0
   -1.3013   -2.0180   -1.2370 C   0  0  0  0  0  0  0  0  0  0  0  0
   -0.7786    1.2113   -0.2449 C   0  0  0  0  0  0  0  0  0  0  0  0
   -1.9936    1.6546   -0.8007 C   0  0  0  0  0  0  0  0  0  0  0  0
   -2.6096    2.8191   -0.3340 C   0  0  0  0  0  0  0  0  0  0  0  0
   -4.2465    3.3499   -1.1315 Br  0  0  0  0  0  0  0  0  0  0  0  0
   -2.0265    3.5552    0.6978 C   0  0  0  0  0  0  0  0  0  0  0  0
   -2.6497    4.6908    1.1462 O   0  0  0  0  0  0  0  0  0  0  0  0
   -0.8198    3.1249    1.2603 C   0  0  0  0  0  0  0  0  0  0  0  0
   -0.0354    4.1359    2.6712 Br  0  0  0  0  0  0  0  0  0  0  0  0
   -0.1953    1.9614    0.7844 C   0  0  0  0  0  0  0  0  0  0  0  0
    0.9852    1.5796    1.3778 O   0  0  0  0  0  0  0  0  0  0  0  0
    1.8328    0.7424    0.6886 C   0  0  0  0  0  0  0  0  0  0  0  0
    1.3703   -0.0803   -0.3484 C   0  0  0  0  0  0  0  0  0  0  0  0
    2.2879   -0.9179   -1.0096 C   0  0  0  0  0  0  0  0  0  0  0  0
    3.6326   -0.9300   -0.6361 C   0  0  0  0  0  0  0  0  0  0  0  0
    4.8250   -2.0789   -1.5596 Br  0  0  0  0  0  0  0  0  0  0  0  0
    4.0845   -0.1167    0.4050 C   0  0  0  0  0  0  0  0  0  0  0  0
    5.4027   -0.1310    0.7810 O   0  0  0  0  0  0  0  0  0  0  0  0
    3.1843    0.7197    1.0727 C   0  0  0  0  0  0  0  0  0  0  0  0
    3.7908    1.8318    2.4964 Br  0  0  0  0  0  0  0  0  0  0  0  0
   -0.6488   -1.1849    1.9872 H   0  0  0  0  0  0  0  0  0  0  0  0
   -1.9055   -3.3021    2.3251 H   0  0  0  0  0  0  0  0  0  0  0  0
   -2.7667   -4.5825    0.3837 H   0  0  0  0  0  0  0  0  0  0  0  0
   -2.3746   -3.7486   -1.9434 H   0  0  0  0  0  0  0  0  0  0  0  0
   -2.4672    1.0896   -1.6022 H   0  0  0  0  0  0  0  0  0  0  0  0
   -2.1002    5.0829    1.8492 H   0  0  0  0  0  0  0  0  0  0  0  0
    1.9536   -1.5651   -1.8190 H   0  0  0  0  0  0  0  0  0  0  0  0
    5.8790   -0.7531    0.2015 H   0  0  0  0  0  0  0  0  0  0  0  0
  1  2  2  0
  2  3  1  0
  3  4  1  0
  4  5  1  0
  5  6  2  0
  6  7  1  0
  7  8  2  0
  8  9  1  0
  9 10  2  0
  4 11  1  0
 11 12  2  0
 12 13  1  0
 13 14  1  0
 13 15  2  0
 15 16  1  0
 15 17  1  0
 17 18  1  0
 17 19  2  0
 19 20  1  0
 20 21  1  0
 21 22  2  0
 22 23  1  0
 23 24  2  0
 24 25  1  0
 24 26  1  0
 26 27  1  0
 26 28  2  0
 28 29  1  0
 10  2  1  0
 19 11  1  0
 28 21  1  0
 22  4  1  0
 10  5  1  0
  6 30  1  0
  7 31  1  0
  8 32  1  0
  9 33  1  0
 12 34  1  0
 16 35  1  0
 23 36  1  0
 27 37  1  0
M  END
$$$$
