
     RDKit          3D

 36 38  0  0  0  0  0  0  0  0999 V2000
   -6.1061    0.6478   -0.0240 C   0  0  0  0  0  0  0  0  0  0  0  0
   -4.6190    0.4615    0.0204 C   0  0  0  0  0  0  0  0  0  0  0  0
   -3.8856    0.3222   -1.1570 C   0  0  0  0  0  0  0  0  0  0  0  0
   -2.4945    0.1798   -1.1170 C   0  0  0  0  0  0  0  0  0  0  0  0
   -1.8020    0.1838    0.0984 C   0  0  0  0  0  0  0  0  0  0  0  0
   -0.3955    0.0411    0.1760 N   0  0  0  0  0  0  0  0  0  0  0  0
    0.5103   -0.1228   -0.8486 C   0  0  0  0  0  0  0  0  0  0  0  0
    0.2388   -0.1742   -2.0487 O   0  0  0  0  0  0  0  0  0  0  0  0
    1.9479   -0.2463   -0.4249 C   0  0  0  0  0  0  0  0  0  0  0  0
    2.8910   -0.4096   -1.3843 C   0  0  0  0  0  0  0  0  0  0  0  0
    2.6608   -0.4758   -2.7433 O   0  0  0  0  0  0  0  0  0  0  0  0
    4.2504   -0.5261   -0.9803 C   0  0  0  0  0  0  0  0  0  0  0  0
    5.5890   -0.7367   -2.0227 S   0  0  0  0  0  0  0  0  0  0  0  0
    6.6900   -0.7654   -0.7090 C   0  0  0  0  0  0  0  0  0  0  0  0
    6.0545   -0.6175    0.5054 C   0  0  0  0  0  0  0  0  0  0  0  0
    4.6549   -0.4812    0.3360 C   0  0  0  0  0  0  0  0  0  0  0  0
    3.7063   -0.3155    1.3218 N   0  0  0  0  0  0  0  0  0  0  0  0
    2.3705   -0.1946    1.0216 C   0  0  0  0  0  0  0  0  0  0  0  0
    1.5444   -0.0476    1.9229 O   0  0  0  0  0  0  0  0  0  0  0  0
   -2.5348    0.3401    1.2957 C   0  0  0  0  0  0  0  0  0  0  0  0
   -1.8739    0.3644    2.6494 C   0  0  0  0  0  0  0  0  0  0  0  0
   -3.9349    0.4823    1.2393 C   0  0  0  0  0  0  0  0  0  0  0  0
   -6.5385    0.1395   -0.8923 H   0  0  0  0  0  0  0  0  0  0  0  0
   -6.5792    0.2242    0.8682 H   0  0  0  0  0  0  0  0  0  0  0  0
   -6.3483    1.7134   -0.0815 H   0  0  0  0  0  0  0  0  0  0  0  0
   -4.3876    0.3214   -2.1221 H   0  0  0  0  0  0  0  0  0  0  0  0
   -1.9836    0.0700   -2.0674 H   0  0  0  0  0  0  0  0  0  0  0  0
   -0.0045    0.0614    1.1173 H   0  0  0  0  0  0  0  0  0  0  0  0
    1.6934   -0.3842   -2.8973 H   0  0  0  0  0  0  0  0  0  0  0  0
    7.7481   -0.8894   -0.8951 H   0  0  0  0  0  0  0  0  0  0  0  0
    6.5793   -0.6099    1.4521 H   0  0  0  0  0  0  0  0  0  0  0  0
    3.9822   -0.2800    2.2944 H   0  0  0  0  0  0  0  0  0  0  0  0
   -1.3512   -0.5797    2.8342 H   0  0  0  0  0  0  0  0  0  0  0  0
   -1.1672    1.1980    2.7126 H   0  0  0  0  0  0  0  0  0  0  0  0
   -2.6048    0.4950    3.4547 H   0  0  0  0  0  0  0  0  0  0  0  0
   -4.5007    0.6103    2.1609 H   0  0  0  0  0  0  0  0  0  0  0  0
  1  2  1  0
  2  3  2  0
  3  4  1  0
  4  5  2  0
  5  6  1  0
  6  7  1  0
  7  8  2  0
  7  9  1  0
  9 10  2  0
 10 11  1  0
 10 12  1  0
 12 13  1  0
 13 14  1  0
 14 15  2  0
 15 16  1  0
 16 17  1  0
 17 18  1  0
 18 19  2  0
  5 20  1  0
 20 21  1  0
 20 22  2  0
 22  2  1  0
 18  9  1  0
 16 12  2  0
  1 23  1  0
  1 24  1  0
  1 25  1  0
  3 26  1  0
  4 27  1  0
  6 28  1  0
 11 29  1  0
 14 30  1  0
 15 31  1  0
 17 32  1  0
 21 33  1  0
 21 34  1  0
 21 35  1  0
 22 36  1  0
M  END
$$$$
