
     RDKit          3D

 33 34  0  0  0  0  0  0  0  0999 V2000
    0.6840    0.0000    0.0000 Cl  0  0  0  0  0  0  0  0  0  0  0  0
    2.8244   -2.9576    1.3340 Cl  0  0  0  0  0  0  0  0  0  0  0  0
    2.9965   -1.2401    1.0387 C   0  0  0  0  0  0  0  0  0  0  0  0
    4.1942   -0.6075    1.2076 C   0  0  0  0  0  0  0  0  0  0  0  0
    4.3815    0.7413    0.9886 C   0  0  0  0  0  0  0  0  0  0  0  0
    3.2765    1.4557    0.5784 C   0  0  0  0  0  0  0  0  0  0  0  0
    2.0360    0.8251    0.3991 C   0  0  0  0  0  0  0  0  0  0  0  0
    1.8741   -0.5194    0.6224 C   0  0  0  0  0  0  0  0  0  0  0  0
    0.5760   -1.2249    0.4833 C   0  0  0  0  0  0  0  0  0  0  0  0
   -0.4336   -0.3811   -0.0132 N   0  0  0  0  0  0  0  0  0  0  0  0
   -0.3796    0.0353   -1.3509 C   0  0  0  0  0  0  0  0  0  0  0  0
   -1.2164    1.3099   -1.4932 C   0  0  0  0  0  0  0  0  0  0  0  0
   -2.6247    0.7725   -1.1976 C   0  0  0  0  0  0  0  0  0  0  0  0
   -4.1569    0.8593   -1.9691 S   0  0  0  0  0  0  0  0  0  0  0  0
   -5.0361   -0.1495   -0.7221 C   0  0  0  0  0  0  0  0  0  0  0  0
   -4.0421   -0.4492    0.1676 C   0  0  0  0  0  0  0  0  0  0  0  0
   -2.8154    0.0164   -0.0687 C   0  0  0  0  0  0  0  0  0  0  0  0
   -1.5660   -0.1820    0.7780 C   0  0  0  0  0  0  0  0  0  0  0  0
   -0.6840    0.0000    0.0000 H   0  0  0  0  0  0  0  0  0  0  0  0
    5.0522   -1.1867    1.5312 H   0  0  0  0  0  0  0  0  0  0  0  0
    5.3384    1.2245    1.1274 H   0  0  0  0  0  0  0  0  0  0  0  0
    3.3694    2.5160    0.3931 H   0  0  0  0  0  0  0  0  0  0  0  0
    1.1870    1.4518    0.0955 H   0  0  0  0  0  0  0  0  0  0  0  0
    0.3364   -1.6599    1.4984 H   0  0  0  0  0  0  0  0  0  0  0  0
    0.7902   -2.1148   -0.1522 H   0  0  0  0  0  0  0  0  0  0  0  0
    0.6561    0.1754   -1.6975 H   0  0  0  0  0  0  0  0  0  0  0  0
   -0.9117   -0.6944   -2.0546 H   0  0  0  0  0  0  0  0  0  0  0  0
   -1.1889    1.7279   -2.4948 H   0  0  0  0  0  0  0  0  0  0  0  0
   -0.9817    1.9678   -0.6647 H   0  0  0  0  0  0  0  0  0  0  0  0
   -6.1223   -0.3954   -0.7792 H   0  0  0  0  0  0  0  0  0  0  0  0
   -4.3079   -1.0831    1.0710 H   0  0  0  0  0  0  0  0  0  0  0  0
   -1.4083    0.7511    1.3996 H   0  0  0  0  0  0  0  0  0  0  0  0
   -1.6970   -0.9843    1.5207 H   0  0  0  0  0  0  0  0  0  0  0  0
  2  3  1  0
  3  4  2  0
  4  5  1  0
  5  6  2  0
  6  7  1  0
  7  8  2  0
  8  9  1  0
  9 10  1  0
 10 11  1  0
 11 12  1  0
 12 13  1  0
 13 14  1  0
 14 15  1  0
 15 16  2  0
 16 17  1  0
 17 18  1  0
  8  3  1  0
 18 10  1  0
 17 13  2  0
  1 19  1  0
  4 20  1  0
  5 21  1  0
  6 22  1  0
  7 23  1  0
  9 24  1  0
  9 25  1  0
 11 26  1  0
 11 27  1  0
 12 28  1  0
 12 29  1  0
 15 30  1  0
 16 31  1  0
 18 32  1  0
 18 33  1  0
M  END
$$$$
