
     RDKit          3D

 28 29  0  0  0  0  0  0  0  0999 V2000
   -4.3816    0.5187    0.3440 C   0  0  0  0  0  0  0  0  0  0  0  0
   -3.0046    0.1234   -0.0768 C   0  0  0  0  0  0  0  0  0  0  0  0
   -1.9034    0.3076    0.6615 C   0  0  0  0  0  0  0  0  0  0  0  0
   -0.6396   -0.0714    0.2388 N   0  0  0  0  0  0  0  0  0  0  0  0
    0.4976    0.2121    1.1077 C   0  0  1  0  0  0  0  0  0  0  0  0
    1.3207   -0.9851    1.4080 C   0  0  0  0  0  0  0  0  0  0  0  0
    2.5963   -0.7271    1.1203 C   0  0  0  0  0  0  0  0  0  0  0  0
    2.7257    0.6652    0.5935 C   0  0  1  0  0  0  0  0  0  0  0  0
    3.4210    0.7644   -0.7693 C   0  0  0  0  0  0  0  0  0  0  0  0
    4.7921    0.3762   -0.6909 O   0  0  0  0  0  0  0  0  0  0  0  0
    1.3729    1.1648    0.4875 O   0  0  0  0  0  0  0  0  0  0  0  0
   -0.4414   -0.6447   -1.0123 C   0  0  0  0  0  0  0  0  0  0  0  0
    0.6379   -1.0032   -1.4780 O   0  0  0  0  0  0  0  0  0  0  0  0
   -1.5750   -0.8281   -1.7637 N   0  0  0  0  0  0  0  0  0  0  0  0
   -2.8508   -0.5089   -1.4052 C   0  0  0  0  0  0  0  0  0  0  0  0
   -3.8109   -0.7308   -2.1343 O   0  0  0  0  0  0  0  0  0  0  0  0
   -4.3856    0.9828    1.3359 H   0  0  0  0  0  0  0  0  0  0  0  0
   -4.8069    1.2398   -0.3616 H   0  0  0  0  0  0  0  0  0  0  0  0
   -5.0371   -0.3574    0.3848 H   0  0  0  0  0  0  0  0  0  0  0  0
   -1.9730    0.7768    1.6396 H   0  0  0  0  0  0  0  0  0  0  0  0
    0.1517    0.6511    2.0515 H   0  0  0  0  0  0  0  0  0  0  0  0
    0.9381   -1.9093    1.8114 H   0  0  0  0  0  0  0  0  0  0  0  0
    3.4230   -1.4075    1.2576 H   0  0  0  0  0  0  0  0  0  0  0  0
    3.2625    1.2772    1.3280 H   0  0  0  0  0  0  0  0  0  0  0  0
    3.3860    1.8008   -1.1224 H   0  0  0  0  0  0  0  0  0  0  0  0
    2.9239    0.1601   -1.5348 H   0  0  0  0  0  0  0  0  0  0  0  0
    4.8064   -0.5951   -0.7522 H   0  0  0  0  0  0  0  0  0  0  0  0
   -1.4460   -1.2524   -2.6684 H   0  0  0  0  0  0  0  0  0  0  0  0
  1  2  1  0
  2  3  2  0
  3  4  1  0
  4  5  1  0
  5  6  1  0
  6  7  2  0
  7  8  1  0
  8  9  1  0
  9 10  1  0
  8 11  1  0
  4 12  1  0
 12 13  2  0
 12 14  1  0
 14 15  1  0
 15 16  2  0
 15  2  1  0
 11  5  1  0
  1 17  1  0
  1 18  1  0
  1 19  1  0
  3 20  1  0
  5 21  1  1
  6 22  1  0
  7 23  1  0
  8 24  1  1
  9 25  1  0
  9 26  1  0
 10 27  1  0
 14 28  1  0
M  END
$$$$
