
     RDKit          3D

 56 59  0  0  0  0  0  0  0  0999 V2000
    7.3335    4.1398    1.3822 C   0  0  0  0  0  0  0  0  0  0  0  0
    7.6575    2.8089    0.9993 O   0  0  0  0  0  0  0  0  0  0  0  0
    6.6160    1.9339    0.8665 C   0  0  0  0  0  0  0  0  0  0  0  0
    6.9819    0.6409    0.4935 C   0  0  0  0  0  0  0  0  0  0  0  0
    6.0136   -0.3530    0.3215 C   0  0  0  0  0  0  0  0  0  0  0  0
    4.6587   -0.0670    0.5171 C   0  0  0  0  0  0  0  0  0  0  0  0
    3.7428   -1.1241    0.3316 N   0  0  0  0  0  0  0  0  0  0  0  0
    2.3605   -1.0524    0.3632 C   0  0  0  0  0  0  0  0  0  0  0  0
    1.6920   -0.0259    0.4495 O   0  0  0  0  0  0  0  0  0  0  0  0
    1.6436   -2.3590    0.1913 C   0  0  0  0  0  0  0  0  0  0  0  0
    2.2231   -3.5403    0.6903 C   0  0  0  0  0  0  0  0  0  0  0  0
    1.5991   -4.7702    0.4901 C   0  0  0  0  0  0  0  0  0  0  0  0
    0.3928   -4.8277   -0.1993 C   0  0  0  0  0  0  0  0  0  0  0  0
   -0.2080   -3.6566   -0.6723 C   0  0  0  0  0  0  0  0  0  0  0  0
    0.3936   -2.4087   -0.4729 C   0  0  0  0  0  0  0  0  0  0  0  0
   -0.2169   -1.1988   -0.8895 N   0  0  0  0  0  0  0  0  0  0  0  0
   -1.3759   -1.0239   -1.6228 C   0  0  0  0  0  0  0  0  0  0  0  0
   -2.0363   -1.9172   -2.1469 O   0  0  0  0  0  0  0  0  0  0  0  0
   -1.7466    0.4394   -1.7939 C   0  0  0  0  0  0  0  0  0  0  0  0
   -3.1832    0.6428   -1.8111 N   0  0  0  0  0  0  0  0  0  0  0  0
   -3.9519    0.8585   -2.9259 C   0  0  0  0  0  0  0  0  0  0  0  0
   -5.2173    1.0585   -2.6137 N   0  0  0  0  0  0  0  0  0  0  0  0
   -5.2549    0.9397   -1.2577 C   0  0  0  0  0  0  0  0  0  0  0  0
   -4.0228    0.6920   -0.7341 C   0  0  0  0  0  0  0  0  0  0  0  0
   -3.7874    0.5301    0.6573 C   0  0  0  0  0  0  0  0  0  0  0  0
   -2.6652    0.3476    1.1188 O   0  0  0  0  0  0  0  0  0  0  0  0
   -4.9554    0.6179    1.4194 N   0  0  0  0  0  0  0  0  0  0  0  0
   -4.8402    0.4672    2.8566 C   0  0  0  0  0  0  0  0  0  0  0  0
   -6.2414    0.9109    0.9193 C   0  0  0  0  0  0  0  0  0  0  0  0
   -7.2050    1.0378    1.6811 O   0  0  0  0  0  0  0  0  0  0  0  0
   -6.3695    1.0570   -0.4629 N   0  0  0  0  0  0  0  0  0  0  0  0
   -7.6617    1.3402   -1.0599 C   0  0  0  0  0  0  0  0  0  0  0  0
    4.2961    1.2253    0.8973 C   0  0  0  0  0  0  0  0  0  0  0  0
    5.2684    2.2217    1.0693 C   0  0  0  0  0  0  0  0  0  0  0  0
    6.6946    4.6218    0.6349 H   0  0  0  0  0  0  0  0  0  0  0  0
    6.8699    4.1627    2.3742 H   0  0  0  0  0  0  0  0  0  0  0  0
    8.2671    4.7084    1.4378 H   0  0  0  0  0  0  0  0  0  0  0  0
    8.0312    0.4044    0.3357 H   0  0  0  0  0  0  0  0  0  0  0  0
    6.3409   -1.3472    0.0302 H   0  0  0  0  0  0  0  0  0  0  0  0
    4.1544   -2.0093    0.0665 H   0  0  0  0  0  0  0  0  0  0  0  0
    3.1483   -3.5184    1.2605 H   0  0  0  0  0  0  0  0  0  0  0  0
    2.0471   -5.6825    0.8774 H   0  0  0  0  0  0  0  0  0  0  0  0
   -0.1007   -5.7846   -0.3568 H   0  0  0  0  0  0  0  0  0  0  0  0
   -1.1653   -3.7549   -1.1755 H   0  0  0  0  0  0  0  0  0  0  0  0
    0.2460   -0.3585   -0.5303 H   0  0  0  0  0  0  0  0  0  0  0  0
   -1.3325    1.0640   -0.9963 H   0  0  0  0  0  0  0  0  0  0  0  0
   -1.3377    0.7916   -2.7474 H   0  0  0  0  0  0  0  0  0  0  0  0
   -3.5448    0.8593   -3.9294 H   0  0  0  0  0  0  0  0  0  0  0  0
   -4.9808    1.4484    3.3208 H   0  0  0  0  0  0  0  0  0  0  0  0
   -3.8676    0.0684    3.1557 H   0  0  0  0  0  0  0  0  0  0  0  0
   -5.6231   -0.2059    3.2213 H   0  0  0  0  0  0  0  0  0  0  0  0
   -7.6169    2.3127   -1.5605 H   0  0  0  0  0  0  0  0  0  0  0  0
   -7.8976    0.5609   -1.7921 H   0  0  0  0  0  0  0  0  0  0  0  0
   -8.4587    1.3678   -0.3121 H   0  0  0  0  0  0  0  0  0  0  0  0
    3.2611    1.4957    1.0795 H   0  0  0  0  0  0  0  0  0  0  0  0
    4.9315    3.2096    1.3652 H   0  0  0  0  0  0  0  0  0  0  0  0
  1  2  1  0
  2  3  1  0
  3  4  2  0
  4  5  1  0
  5  6  2  0
  6  7  1  0
  7  8  1  0
  8  9  2  0
  8 10  1  0
 10 11  2  0
 11 12  1  0
 12 13  2  0
 13 14  1  0
 14 15  2  0
 15 16  1  0
 16 17  1  0
 17 18  2  0
 17 19  1  0
 19 20  1  0
 20 21  1  0
 21 22  2  0
 22 23  1  0
 23 24  2  0
 24 25  1  0
 25 26  2  0
 25 27  1  0
 27 28  1  0
 27 29  1  0
 29 30  2  0
 29 31  1  0
 31 32  1  0
  6 33  1  0
 33 34  2  0
 34  3  1  0
 15 10  1  0
 24 20  1  0
 31 23  1  0
  1 35  1  0
  1 36  1  0
  1 37  1  0
  4 38  1  0
  5 39  1  0
  7 40  1  0
 11 41  1  0
 12 42  1  0
 13 43  1  0
 14 44  1  0
 16 45  1  0
 19 46  1  0
 19 47  1  0
 21 48  1  0
 28 49  1  0
 28 50  1  0
 28 51  1  0
 32 52  1  0
 32 53  1  0
 32 54  1  0
 33 55  1  0
 34 56  1  0
M  END
$$$$
