
     RDKit          3D

 53 55  0  0  0  0  0  0  0  0999 V2000
   -8.4607    0.8186   -2.1976 C   0  0  0  0  0  0  0  0  0  0  0  0
   -7.5857   -0.1815   -1.6926 O   0  0  0  0  0  0  0  0  0  0  0  0
   -6.3326    0.3425   -1.2486 C   0  0  0  0  0  0  0  0  0  0  0  0
   -6.4377    0.8545    0.1863 C   0  0  0  0  0  0  0  0  0  0  0  0
   -5.1028    1.3592    0.7171 C   0  0  0  0  0  0  0  0  0  0  0  0
   -4.1388    0.2888    0.8758 N   0  0  0  0  0  0  0  0  0  0  0  0
   -2.8139    0.5908    1.0714 C   0  0  0  0  0  0  0  0  0  0  0  0
   -2.3888    1.7418    1.0568 O   0  0  0  0  0  0  0  0  0  0  0  0
   -2.0015   -0.5020    1.2554 N   0  0  0  0  0  0  0  0  0  0  0  0
   -2.3685   -1.9059    1.1701 C   0  0  0  0  0  0  0  0  0  0  0  0
   -1.0980   -2.6553    1.5454 C   0  0  0  0  0  0  0  0  0  0  0  0
    0.0297   -1.7152    1.1032 C   0  0  0  0  0  0  0  0  0  0  0  0
    0.3693   -1.8965   -0.3860 C   0  0  0  0  0  0  0  0  0  0  0  0
    1.5470   -1.0963   -0.8118 C   0  0  0  0  0  0  0  0  0  0  0  0
    1.5033   -0.2433   -1.8418 N   0  0  0  0  0  0  0  0  0  0  0  0
    2.7999    0.2740   -1.8791 O   0  0  0  0  0  0  0  0  0  0  0  0
    3.4933   -0.3302   -0.8661 C   0  0  0  0  0  0  0  0  0  0  0  0
    4.8916    0.0474   -0.6966 C   0  0  0  0  0  0  0  0  0  0  0  0
    5.5103    1.0069   -1.5116 C   0  0  0  0  0  0  0  0  0  0  0  0
    6.8566    1.3518   -1.3262 C   0  0  0  0  0  0  0  0  0  0  0  0
    7.6059    0.7414   -0.3216 C   0  0  0  0  0  0  0  0  0  0  0  0
    8.9202    0.9844   -0.0357 O   0  0  0  0  0  0  0  0  0  0  0  0
    9.5832    1.9583   -0.8323 C   0  0  0  0  0  0  0  0  0  0  0  0
    6.9978   -0.2144    0.4936 C   0  0  0  0  0  0  0  0  0  0  0  0
    5.6550   -0.5588    0.3100 C   0  0  0  0  0  0  0  0  0  0  0  0
    2.7625   -1.1871   -0.1841 N   0  0  0  0  0  0  0  0  0  0  0  0
   -0.5635   -0.3356    1.4036 C   0  0  0  0  0  0  0  0  0  0  0  0
   -8.7212    1.5422   -1.4207 H   0  0  0  0  0  0  0  0  0  0  0  0
   -8.0067    1.3292   -3.0524 H   0  0  0  0  0  0  0  0  0  0  0  0
   -9.3791    0.3300   -2.5346 H   0  0  0  0  0  0  0  0  0  0  0  0
   -5.6175   -0.4857   -1.2946 H   0  0  0  0  0  0  0  0  0  0  0  0
   -5.9743    1.1210   -1.9325 H   0  0  0  0  0  0  0  0  0  0  0  0
   -6.8316    0.0574    0.8292 H   0  0  0  0  0  0  0  0  0  0  0  0
   -7.1685    1.6696    0.2348 H   0  0  0  0  0  0  0  0  0  0  0  0
   -4.6884    2.1264    0.0528 H   0  0  0  0  0  0  0  0  0  0  0  0
   -5.2421    1.8167    1.7033 H   0  0  0  0  0  0  0  0  0  0  0  0
   -4.4560   -0.5135    1.3962 H   0  0  0  0  0  0  0  0  0  0  0  0
   -2.6785   -2.1180    0.1413 H   0  0  0  0  0  0  0  0  0  0  0  0
   -3.1951   -2.1374    1.8475 H   0  0  0  0  0  0  0  0  0  0  0  0
   -1.0569   -2.7786    2.6351 H   0  0  0  0  0  0  0  0  0  0  0  0
   -1.0494   -3.6508    1.0946 H   0  0  0  0  0  0  0  0  0  0  0  0
    0.9297   -1.8872    1.7055 H   0  0  0  0  0  0  0  0  0  0  0  0
   -0.4960   -1.6493   -1.0135 H   0  0  0  0  0  0  0  0  0  0  0  0
    0.5984   -2.9527   -0.5765 H   0  0  0  0  0  0  0  0  0  0  0  0
    4.9534    1.5034   -2.3044 H   0  0  0  0  0  0  0  0  0  0  0  0
    7.2851    2.1005   -1.9846 H   0  0  0  0  0  0  0  0  0  0  0  0
    9.6158    1.6526   -1.8832 H   0  0  0  0  0  0  0  0  0  0  0  0
   10.6149    2.0355   -0.4759 H   0  0  0  0  0  0  0  0  0  0  0  0
    9.1176    2.9431   -0.7205 H   0  0  0  0  0  0  0  0  0  0  0  0
    7.5736   -0.6962    1.2805 H   0  0  0  0  0  0  0  0  0  0  0  0
    5.2076   -1.3075    0.9619 H   0  0  0  0  0  0  0  0  0  0  0  0
   -0.1874    0.4665    0.7616 H   0  0  0  0  0  0  0  0  0  0  0  0
   -0.3806   -0.0555    2.4477 H   0  0  0  0  0  0  0  0  0  0  0  0
  1  2  1  0
  2  3  1  0
  3  4  1  0
  4  5  1  0
  5  6  1  0
  6  7  1  0
  7  8  2  0
  7  9  1  0
  9 10  1  0
 10 11  1  0
 11 12  1  0
 12 13  1  0
 13 14  1  0
 14 15  2  0
 15 16  1  0
 16 17  1  0
 17 18  1  0
 18 19  2  0
 19 20  1  0
 20 21  2  0
 21 22  1  0
 22 23  1  0
 21 24  1  0
 24 25  2  0
 17 26  2  0
 12 27  1  0
 27  9  1  0
 26 14  1  0
 25 18  1  0
  1 28  1  0
  1 29  1  0
  1 30  1  0
  3 31  1  0
  3 32  1  0
  4 33  1  0
  4 34  1  0
  5 35  1  0
  5 36  1  0
  6 37  1  0
 10 38  1  0
 10 39  1  0
 11 40  1  0
 11 41  1  0
 12 42  1  0
 13 43  1  0
 13 44  1  0
 19 45  1  0
 20 46  1  0
 23 47  1  0
 23 48  1  0
 23 49  1  0
 24 50  1  0
 25 51  1  0
 27 52  1  0
 27 53  1  0
M  END
$$$$
