
     RDKit          3D

 31 32  0  0  0  0  0  0  0  0999 V2000
    6.9724   -1.4888    1.0320 N   0  0  0  0  0  0  0  0  0  0  0  0
    5.8148   -1.4000    1.0287 C   0  0  0  0  0  0  0  0  0  0  0  0
    4.3487   -1.3836    1.0117 C   0  0  0  0  0  0  0  0  0  0  0  0
    3.7836    0.0114    1.1471 C   0  0  0  0  0  0  0  0  0  0  0  0
    4.4856    1.0043    1.3255 O   0  0  0  0  0  0  0  0  0  0  0  0
    2.2991    0.1871    1.0640 C   0  0  0  0  0  0  0  0  0  0  0  0
    1.7808    1.4885    1.1032 C   0  0  0  0  0  0  0  0  0  0  0  0
    0.4031    1.7088    1.0240 C   0  0  0  0  0  0  0  0  0  0  0  0
   -0.4822    0.6309    0.9049 C   0  0  0  0  0  0  0  0  0  0  0  0
   -1.9746    0.8679    0.8181 C   0  0  0  0  0  0  0  0  0  0  0  0
   -2.5888    0.4436   -0.4967 C   0  0  0  0  0  0  0  0  0  0  0  0
   -3.4937   -0.6264   -0.5487 C   0  0  0  0  0  0  0  0  0  0  0  0
   -4.0604   -1.0163   -1.7635 C   0  0  0  0  0  0  0  0  0  0  0  0
   -3.7300   -0.3416   -2.9371 C   0  0  0  0  0  0  0  0  0  0  0  0
   -2.8335    0.7243   -2.8980 C   0  0  0  0  0  0  0  0  0  0  0  0
   -2.2661    1.1164   -1.6846 C   0  0  0  0  0  0  0  0  0  0  0  0
    0.0378   -0.6707    0.8733 C   0  0  0  0  0  0  0  0  0  0  0  0
    1.4170   -0.8937    0.9504 C   0  0  0  0  0  0  0  0  0  0  0  0
    3.9764   -1.9940    1.8414 H   0  0  0  0  0  0  0  0  0  0  0  0
    4.0031   -1.8145    0.0658 H   0  0  0  0  0  0  0  0  0  0  0  0
    2.4480    2.3448    1.1935 H   0  0  0  0  0  0  0  0  0  0  0  0
    0.0297    2.7306    1.0537 H   0  0  0  0  0  0  0  0  0  0  0  0
   -2.2043    1.9298    0.9767 H   0  0  0  0  0  0  0  0  0  0  0  0
   -2.4537    0.3405    1.6535 H   0  0  0  0  0  0  0  0  0  0  0  0
   -3.7652   -1.1638    0.3570 H   0  0  0  0  0  0  0  0  0  0  0  0
   -4.7616   -1.8463   -1.7943 H   0  0  0  0  0  0  0  0  0  0  0  0
   -4.1720   -0.6455   -3.8824 H   0  0  0  0  0  0  0  0  0  0  0  0
   -2.5753    1.2512   -3.8129 H   0  0  0  0  0  0  0  0  0  0  0  0
   -1.5665    1.9494   -1.6710 H   0  0  0  0  0  0  0  0  0  0  0  0
   -0.6344   -1.5222    0.7793 H   0  0  0  0  0  0  0  0  0  0  0  0
    1.7624   -1.9223    0.9187 H   0  0  0  0  0  0  0  0  0  0  0  0
  1  2  3  0
  2  3  1  0
  3  4  1  0
  4  5  2  0
  4  6  1  0
  6  7  2  0
  7  8  1  0
  8  9  2  0
  9 10  1  0
 10 11  1  0
 11 12  2  0
 12 13  1  0
 13 14  2  0
 14 15  1  0
 15 16  2  0
  9 17  1  0
 17 18  2  0
 18  6  1  0
 16 11  1  0
  3 19  1  0
  3 20  1  0
  7 21  1  0
  8 22  1  0
 10 23  1  0
 10 24  1  0
 12 25  1  0
 13 26  1  0
 14 27  1  0
 15 28  1  0
 16 29  1  0
 17 30  1  0
 18 31  1  0
M  END
$$$$
