
     RDKit          3D

 55 57  0  0  0  0  0  0  0  0999 V2000
   -3.2404    3.3268   -2.9344 C   0  0  0  0  0  0  0  0  0  0  0  0
   -1.9013    2.6033   -2.9025 C   0  0  0  0  0  0  0  0  0  0  0  0
   -1.7527    1.7943   -1.6948 N   0  0  0  0  0  0  0  0  0  0  0  0
   -2.2196    0.4892   -1.7425 C   0  0  0  0  0  0  0  0  0  0  0  0
   -2.7527   -0.0121   -2.7304 O   0  0  0  0  0  0  0  0  0  0  0  0
   -2.0629   -0.3178   -0.5226 C   0  0  0  0  0  0  0  0  0  0  0  0
   -2.4681   -1.6620   -0.5366 C   0  0  0  0  0  0  0  0  0  0  0  0
   -2.3324   -2.4492    0.6057 C   0  0  0  0  0  0  0  0  0  0  0  0
   -2.6978   -3.7686    0.6878 O   0  0  0  0  0  0  0  0  0  0  0  0
   -3.1183   -4.4134   -0.5065 C   0  0  0  0  0  0  0  0  0  0  0  0
   -1.7999   -1.8767    1.7746 C   0  0  0  0  0  0  0  0  0  0  0  0
   -1.6992   -2.7121    2.8590 O   0  0  0  0  0  0  0  0  0  0  0  0
   -1.2038   -2.1789    4.0784 C   0  0  0  0  0  0  0  0  0  0  0  0
   -1.4045   -0.5304    1.7732 C   0  0  0  0  0  0  0  0  0  0  0  0
   -1.5218    0.2646    0.6192 C   0  0  0  0  0  0  0  0  0  0  0  0
   -1.1074    1.6281    0.5804 N   0  0  0  0  0  0  0  0  0  0  0  0
   -0.5102    2.2509    1.7695 C   0  0  0  0  0  0  0  0  0  0  0  0
    0.8968    1.7730    2.1295 C   0  0  0  0  0  0  0  0  0  0  0  0
    1.3235    1.8313    3.2833 O   0  0  0  0  0  0  0  0  0  0  0  0
    1.7971    1.2535    1.0763 C   0  0  0  0  0  0  0  0  0  0  0  0
    2.0479    1.9832   -0.0836 C   0  0  0  0  0  0  0  0  0  0  0  0
    2.8725    1.4468   -1.0753 C   0  0  0  0  0  0  0  0  0  0  0  0
    3.4648    0.1905   -0.9005 C   0  0  0  0  0  0  0  0  0  0  0  0
    4.2840   -0.4151   -1.8190 O   0  0  0  0  0  0  0  0  0  0  0  0
    4.4532    0.2233   -3.0775 C   0  0  0  0  0  0  0  0  0  0  0  0
    3.2459   -0.5201    0.2965 C   0  0  0  0  0  0  0  0  0  0  0  0
    3.8579   -1.7445    0.4089 O   0  0  0  0  0  0  0  0  0  0  0  0
    4.1571   -2.1732    1.7351 C   0  0  0  0  0  0  0  0  0  0  0  0
    2.4045    0.0109    1.2782 C   0  0  0  0  0  0  0  0  0  0  0  0
   -1.2260    2.4060   -0.5670 C   0  0  0  0  0  0  0  0  0  0  0  0
   -0.8619    3.5849   -0.5805 O   0  0  0  0  0  0  0  0  0  0  0  0
   -3.3261    3.9271   -3.8457 H   0  0  0  0  0  0  0  0  0  0  0  0
   -4.0730    2.6160   -2.9132 H   0  0  0  0  0  0  0  0  0  0  0  0
   -3.3498    3.9945   -2.0730 H   0  0  0  0  0  0  0  0  0  0  0  0
   -1.0892    3.3372   -2.9587 H   0  0  0  0  0  0  0  0  0  0  0  0
   -1.8127    1.9640   -3.7881 H   0  0  0  0  0  0  0  0  0  0  0  0
   -2.8879   -2.0671   -1.4528 H   0  0  0  0  0  0  0  0  0  0  0  0
   -2.3401   -4.3721   -1.2743 H   0  0  0  0  0  0  0  0  0  0  0  0
   -3.2957   -5.4667   -0.2713 H   0  0  0  0  0  0  0  0  0  0  0  0
   -4.0592   -3.9898   -0.8720 H   0  0  0  0  0  0  0  0  0  0  0  0
   -1.2058   -2.9835    4.8215 H   0  0  0  0  0  0  0  0  0  0  0  0
   -0.1717   -1.8345    3.9681 H   0  0  0  0  0  0  0  0  0  0  0  0
   -1.8517   -1.3787    4.4511 H   0  0  0  0  0  0  0  0  0  0  0  0
   -1.0030   -0.1092    2.6859 H   0  0  0  0  0  0  0  0  0  0  0  0
   -1.1774    2.0729    2.6208 H   0  0  0  0  0  0  0  0  0  0  0  0
   -0.4502    3.3384    1.6548 H   0  0  0  0  0  0  0  0  0  0  0  0
    1.6227    2.9740   -0.2274 H   0  0  0  0  0  0  0  0  0  0  0  0
    3.0382    2.0362   -1.9715 H   0  0  0  0  0  0  0  0  0  0  0  0
    4.9695    1.1829   -2.9657 H   0  0  0  0  0  0  0  0  0  0  0  0
    3.4949    0.3475   -3.5935 H   0  0  0  0  0  0  0  0  0  0  0  0
    5.0831   -0.4217   -3.6971 H   0  0  0  0  0  0  0  0  0  0  0  0
    4.8816   -2.9916    1.6683 H   0  0  0  0  0  0  0  0  0  0  0  0
    4.6182   -1.3728    2.3261 H   0  0  0  0  0  0  0  0  0  0  0  0
    3.2596   -2.5608    2.2278 H   0  0  0  0  0  0  0  0  0  0  0  0
    2.2013   -0.5286    2.1978 H   0  0  0  0  0  0  0  0  0  0  0  0
  1  2  1  0
  2  3  1  0
  3  4  1  0
  4  5  2  0
  4  6  1  0
  6  7  2  0
  7  8  1  0
  8  9  1  0
  9 10  1  0
  8 11  2  0
 11 12  1  0
 12 13  1  0
 11 14  1  0
 14 15  2  0
 15 16  1  0
 16 17  1  0
 17 18  1  0
 18 19  2  0
 18 20  1  0
 20 21  2  0
 21 22  1  0
 22 23  2  0
 23 24  1  0
 24 25  1  0
 23 26  1  0
 26 27  1  0
 27 28  1  0
 26 29  2  0
 16 30  1  0
 30 31  2  0
 30  3  1  0
 15  6  1  0
 29 20  1  0
  1 32  1  0
  1 33  1  0
  1 34  1  0
  2 35  1  0
  2 36  1  0
  7 37  1  0
 10 38  1  0
 10 39  1  0
 10 40  1  0
 13 41  1  0
 13 42  1  0
 13 43  1  0
 14 44  1  0
 17 45  1  0
 17 46  1  0
 21 47  1  0
 22 48  1  0
 25 49  1  0
 25 50  1  0
 25 51  1  0
 28 52  1  0
 28 53  1  0
 28 54  1  0
 29 55  1  0
M  END
$$$$
