
     RDKit          3D

 57 60  0  0  0  0  0  0  0  0999 V2000
   -7.9848    1.8445   -2.2239 C   0  0  0  0  0  0  0  0  0  0  0  0
   -6.6251    1.2693   -1.9586 C   0  0  0  0  0  0  0  0  0  0  0  0
   -5.8092    0.8968   -3.0190 C   0  0  0  0  0  0  0  0  0  0  0  0
   -4.5684    0.3265   -2.7438 C   0  0  0  0  0  0  0  0  0  0  0  0
   -4.1766    0.1481   -1.4259 C   0  0  0  0  0  0  0  0  0  0  0  0
   -5.0624    0.5333   -0.4328 C   0  0  0  0  0  0  0  0  0  0  0  0
   -4.7903    0.4836    0.9513 N   0  0  0  0  0  0  0  0  0  0  0  0
   -4.3410   -0.9965    1.6002 S   0  0  0  0  0  6  0  0  0  0  0  0
   -4.7993   -2.0781    0.7616 O   0  0  0  0  0  0  0  0  0  0  0  0
   -4.6410   -0.9479    3.0132 O   0  0  0  0  0  0  0  0  0  0  0  0
   -2.6094   -1.1277    1.5708 C   0  0  0  0  0  0  0  0  0  0  0  0
   -1.7241   -0.0664    1.2528 C   0  0  0  0  0  0  0  0  0  0  0  0
   -0.4401   -0.5729    1.3006 C   0  0  0  0  0  0  0  0  0  0  0  0
    0.7858    0.1008    0.9998 C   0  0  0  0  0  0  0  0  0  0  0  0
    1.6239    0.4917    1.9310 N   0  0  0  0  0  0  0  0  0  0  0  0
    2.6954    1.1563    1.3540 C   0  0  0  0  0  0  0  0  0  0  0  0
    3.7245    1.7646    2.2379 C   0  0  0  0  0  0  0  0  0  0  0  0
    2.6768    1.1743   -0.0304 C   0  0  0  0  0  0  0  0  0  0  0  0
    3.6267    1.7403   -0.9601 C   0  0  0  0  0  0  0  0  0  0  0  0
    3.3660    2.7481   -1.6154 O   0  0  0  0  0  0  0  0  0  0  0  0
    4.8743    1.1034   -1.0630 N   0  0  0  0  0  0  0  0  0  0  0  0
    5.7917    1.5882   -2.0965 C   0  0  0  0  0  0  0  0  0  0  0  0
    7.2455    1.2005   -1.8073 C   0  0  0  0  0  0  0  0  0  0  0  0
    7.3720   -0.2074   -1.5498 O   0  0  0  0  0  0  0  0  0  0  0  0
    6.5649   -0.5836   -0.4262 C   0  0  0  0  0  0  0  0  0  0  0  0
    5.0858   -0.3037   -0.6972 C   0  0  0  0  0  0  0  0  0  0  0  0
    1.2567    0.4192   -0.6201 S   0  0  0  0  0  0  0  0  0  0  0  0
   -0.5211   -1.8919    1.7109 N   0  0  0  0  0  0  0  0  0  0  0  0
    0.6234   -2.7426    1.9505 C   0  0  0  0  0  0  0  0  0  0  0  0
   -1.8490   -2.2548    1.8541 C   0  0  0  0  0  0  0  0  0  0  0  0
   -2.2906   -3.6223    2.2517 C   0  0  0  0  0  0  0  0  0  0  0  0
   -6.2585    1.1096   -0.6634 N   0  0  0  0  0  0  0  0  0  0  0  0
   -7.9153    2.7212   -2.8708 H   0  0  0  0  0  0  0  0  0  0  0  0
   -8.4722    2.1396   -1.2875 H   0  0  0  0  0  0  0  0  0  0  0  0
   -8.6169    1.0901   -2.7129 H   0  0  0  0  0  0  0  0  0  0  0  0
   -6.1304    1.0363   -4.0489 H   0  0  0  0  0  0  0  0  0  0  0  0
   -3.9145    0.0137   -3.5524 H   0  0  0  0  0  0  0  0  0  0  0  0
   -3.2122   -0.2896   -1.2001 H   0  0  0  0  0  0  0  0  0  0  0  0
   -5.6048    0.8409    1.4517 H   0  0  0  0  0  0  0  0  0  0  0  0
   -1.9915    0.9558    1.0000 H   0  0  0  0  0  0  0  0  0  0  0  0
    3.8297    2.8311    2.0287 H   0  0  0  0  0  0  0  0  0  0  0  0
    4.6972    1.2830    2.0894 H   0  0  0  0  0  0  0  0  0  0  0  0
    3.4498    1.6526    3.2902 H   0  0  0  0  0  0  0  0  0  0  0  0
    5.4695    1.1308   -3.0383 H   0  0  0  0  0  0  0  0  0  0  0  0
    5.7106    2.6756   -2.2008 H   0  0  0  0  0  0  0  0  0  0  0  0
    7.8749    1.4446   -2.6698 H   0  0  0  0  0  0  0  0  0  0  0  0
    7.6370    1.7537   -0.9446 H   0  0  0  0  0  0  0  0  0  0  0  0
    6.7225   -1.6438   -0.2358 H   0  0  0  0  0  0  0  0  0  0  0  0
    6.9083   -0.0327    0.4577 H   0  0  0  0  0  0  0  0  0  0  0  0
    4.7380   -0.8979   -1.5515 H   0  0  0  0  0  0  0  0  0  0  0  0
    4.4913   -0.5866    0.1739 H   0  0  0  0  0  0  0  0  0  0  0  0
    0.3244   -3.6195    2.5265 H   0  0  0  0  0  0  0  0  0  0  0  0
    1.0252   -3.0531    0.9879 H   0  0  0  0  0  0  0  0  0  0  0  0
    1.3739   -2.1937    2.5253 H   0  0  0  0  0  0  0  0  0  0  0  0
   -3.3623   -3.6593    2.4625 H   0  0  0  0  0  0  0  0  0  0  0  0
   -2.0782   -4.3466    1.4451 H   0  0  0  0  0  0  0  0  0  0  0  0
   -1.7763   -3.9492    3.1599 H   0  0  0  0  0  0  0  0  0  0  0  0
  1  2  1  0
  2  3  2  0
  3  4  1  0
  4  5  2  0
  5  6  1  0
  6  7  1  0
  7  8  1  0
  8  9  2  0
  8 10  2  0
  8 11  1  0
 11 12  1  0
 12 13  2  0
 13 14  1  0
 14 15  2  0
 15 16  1  0
 16 17  1  0
 16 18  2  0
 18 19  1  0
 19 20  2  0
 19 21  1  0
 21 22  1  0
 22 23  1  0
 23 24  1  0
 24 25  1  0
 25 26  1  0
 18 27  1  0
 13 28  1  0
 28 29  1  0
 28 30  1  0
 30 31  1  0
  6 32  2  0
 32  2  1  0
 30 11  2  0
 27 14  1  0
 26 21  1  0
  1 33  1  0
  1 34  1  0
  1 35  1  0
  3 36  1  0
  4 37  1  0
  5 38  1  0
  7 39  1  0
 12 40  1  0
 17 41  1  0
 17 42  1  0
 17 43  1  0
 22 44  1  0
 22 45  1  0
 23 46  1  0
 23 47  1  0
 25 48  1  0
 25 49  1  0
 26 50  1  0
 26 51  1  0
 29 52  1  0
 29 53  1  0
 29 54  1  0
 31 55  1  0
 31 56  1  0
 31 57  1  0
M  END
$$$$
