
     RDKit          3D

 52 56  0  0  0  0  0  0  0  0999 V2000
   -7.1557    0.9371    1.6185 C   0  0  0  0  0  0  0  0  0  0  0  0
   -6.2057    1.1726    0.4494 C   0  0  0  0  0  0  0  0  0  0  0  0
   -6.9305    1.0807   -0.8945 C   0  0  0  0  0  0  0  0  0  0  0  0
   -5.3225    2.4312    0.5962 C   0  0  0  0  0  0  0  0  0  0  0  0
   -4.1842    1.5837    0.2293 N   0  0  0  0  0  0  0  0  0  0  0  0
   -2.8744    1.8823    0.5506 C   0  0  0  0  0  0  0  0  0  0  0  0
   -2.5177    2.9838    0.9593 O   0  0  0  0  0  0  0  0  0  0  0  0
   -1.8661    0.8029    0.3899 C   0  0  0  0  0  0  0  0  0  0  0  0
   -1.9212   -0.0998   -0.6769 C   0  0  0  0  0  0  0  0  0  0  0  0
   -0.9441   -1.0924   -0.8046 C   0  0  0  0  0  0  0  0  0  0  0  0
    0.1042   -1.1867    0.1238 C   0  0  0  0  0  0  0  0  0  0  0  0
    1.1346   -2.2336   -0.0104 C   0  0  0  0  0  0  0  0  0  0  0  0
    0.7729   -3.5356    0.0160 C   0  0  0  0  0  0  0  0  0  0  0  0
    1.7869   -4.5706   -0.1060 C   0  0  0  0  0  0  0  0  0  0  0  0
    3.0897   -4.2648   -0.2406 C   0  0  0  0  0  0  0  0  0  0  0  0
    3.4911   -2.9029   -0.2666 C   0  0  0  0  0  0  0  0  0  0  0  0
    4.6712   -2.3441   -0.3858 N   0  0  0  0  0  0  0  0  0  0  0  0
    4.3972   -1.0156   -0.3436 C   0  0  0  0  0  0  0  0  0  0  0  0
    5.3342   -0.0288   -0.4370 N   0  0  0  0  0  0  0  0  0  0  0  0
    6.6805   -0.2263   -0.5858 C   0  0  0  0  0  0  0  0  0  0  0  0
    7.2701   -1.2949   -0.6557 O   0  0  0  0  0  0  0  0  0  0  0  0
    7.5044    1.0230   -0.6693 C   0  0  0  0  0  0  0  0  0  0  0  0
    7.1846    2.2669    0.1273 C   0  0  0  0  0  0  0  0  0  0  0  0
    7.0217    2.2740   -1.3664 C   0  0  0  0  0  0  0  0  0  0  0  0
    3.1101   -0.7013   -0.1991 N   0  0  0  0  0  0  0  0  0  0  0  0
    2.5043   -1.9196   -0.1495 N   0  0  0  0  0  0  0  0  0  0  0  0
    0.1634   -0.2629    1.1767 C   0  0  0  0  0  0  0  0  0  0  0  0
   -0.8120    0.7301    1.3061 C   0  0  0  0  0  0  0  0  0  0  0  0
   -4.9044    0.3408    0.5159 C   0  0  0  0  0  0  0  0  0  0  0  0
   -7.6127   -0.0564    1.5564 H   0  0  0  0  0  0  0  0  0  0  0  0
   -7.9599    1.6808    1.6244 H   0  0  0  0  0  0  0  0  0  0  0  0
   -6.6355    1.0034    2.5804 H   0  0  0  0  0  0  0  0  0  0  0  0
   -7.3826    0.0916   -1.0259 H   0  0  0  0  0  0  0  0  0  0  0  0
   -6.2489    1.2485   -1.7358 H   0  0  0  0  0  0  0  0  0  0  0  0
   -7.7279    1.8289   -0.9586 H   0  0  0  0  0  0  0  0  0  0  0  0
   -5.2368    2.8432    1.6074 H   0  0  0  0  0  0  0  0  0  0  0  0
   -5.5077    3.2369   -0.1194 H   0  0  0  0  0  0  0  0  0  0  0  0
   -2.7032   -0.0228   -1.4277 H   0  0  0  0  0  0  0  0  0  0  0  0
   -0.9972   -1.7779   -1.6482 H   0  0  0  0  0  0  0  0  0  0  0  0
   -0.2592   -3.8526    0.1367 H   0  0  0  0  0  0  0  0  0  0  0  0
    1.4618   -5.6071   -0.0828 H   0  0  0  0  0  0  0  0  0  0  0  0
    3.8515   -5.0315   -0.3309 H   0  0  0  0  0  0  0  0  0  0  0  0
    4.9470    0.8980   -0.3904 H   0  0  0  0  0  0  0  0  0  0  0  0
    8.5636    0.8004   -0.7859 H   0  0  0  0  0  0  0  0  0  0  0  0
    6.2979    2.2918    0.7488 H   0  0  0  0  0  0  0  0  0  0  0  0
    8.0193    2.8172    0.5498 H   0  0  0  0  0  0  0  0  0  0  0  0
    7.7462    2.8291   -1.9538 H   0  0  0  0  0  0  0  0  0  0  0  0
    6.0219    2.3037   -1.7819 H   0  0  0  0  0  0  0  0  0  0  0  0
    0.9752   -0.2998    1.9009 H   0  0  0  0  0  0  0  0  0  0  0  0
   -0.7451    1.4496    2.1200 H   0  0  0  0  0  0  0  0  0  0  0  0
   -4.6501   -0.0782    1.4953 H   0  0  0  0  0  0  0  0  0  0  0  0
   -4.8005   -0.4261   -0.2556 H   0  0  0  0  0  0  0  0  0  0  0  0
  1  2  1  0
  2  3  1  0
  2  4  1  0
  4  5  1  0
  5  6  1  0
  6  7  2  0
  6  8  1  0
  8  9  2  0
  9 10  1  0
 10 11  2  0
 11 12  1  0
 12 13  2  0
 13 14  1  0
 14 15  2  0
 15 16  1  0
 16 17  2  0
 17 18  1  0
 18 19  1  0
 19 20  1  0
 20 21  2  0
 20 22  1  0
 22 23  1  0
 23 24  1  0
 18 25  2  0
 25 26  1  0
 11 27  1  0
 27 28  2  0
  5 29  1  0
 29  2  1  0
 28  8  1  0
 26 12  1  0
 26 16  1  0
 24 22  1  0
  1 30  1  0
  1 31  1  0
  1 32  1  0
  3 33  1  0
  3 34  1  0
  3 35  1  0
  4 36  1  0
  4 37  1  0
  9 38  1  0
 10 39  1  0
 13 40  1  0
 14 41  1  0
 15 42  1  0
 19 43  1  0
 22 44  1  0
 23 45  1  0
 23 46  1  0
 24 47  1  0
 24 48  1  0
 27 49  1  0
 28 50  1  0
 29 51  1  0
 29 52  1  0
M  END
$$$$
