
     RDKit          3D

 29 28  0  0  0  0  0  0  0  0999 V2000
    4.0486   -0.0597    0.3877 N   0  0  0  0  0  0  0  0  0  0  0  0
    2.9761   -0.7163   -0.3161 N   0  0  0  0  0  0  0  0  0  0  0  0
    1.6791   -0.1373    0.0651 C   0  0  0  0  0  0  0  0  0  0  0  0
    0.5395   -0.8679   -0.6561 C   0  0  0  0  0  0  0  0  0  0  0  0
   -0.8083   -0.2933   -0.2922 C   0  0  0  0  0  0  0  0  0  0  0  0
   -1.5079   -0.7770    0.8216 C   0  0  0  0  0  0  0  0  0  0  0  0
   -2.7447   -0.2324    1.1705 C   0  0  0  0  0  0  0  0  0  0  0  0
   -3.2910    0.8018    0.4127 C   0  0  0  0  0  0  0  0  0  0  0  0
   -2.6010    1.2931   -0.6939 C   0  0  0  0  0  0  0  0  0  0  0  0
   -1.3640    0.7501   -1.0447 C   0  0  0  0  0  0  0  0  0  0  0  0
    0.7448    0.6325    1.3948 O   0  0  0  0  0  0  0  0  0  0  0  0
    0.0035    0.4191    0.1780 S   0  0  0  0  0  6  0  0  0  0  0  0
   -0.7273    1.4534   -0.5087 O   0  0  0  0  0  0  0  0  0  0  0  0
   -1.0311   -0.7827    0.4204 O   0  0  0  0  0  0  0  0  0  0  0  0
    1.0224   -0.2553   -0.8614 O   0  0  0  0  0  0  0  0  0  0  0  0
    4.0470   -0.3060    1.3815 H   0  0  0  0  0  0  0  0  0  0  0  0
    3.9948    0.9610    0.3410 H   0  0  0  0  0  0  0  0  0  0  0  0
    3.1002   -0.6514   -1.3319 H   0  0  0  0  0  0  0  0  0  0  0  0
    1.5386   -0.2214    1.1505 H   0  0  0  0  0  0  0  0  0  0  0  0
    1.6549    0.9301   -0.1896 H   0  0  0  0  0  0  0  0  0  0  0  0
    0.6760   -0.8078   -1.7439 H   0  0  0  0  0  0  0  0  0  0  0  0
    0.5562   -1.9375   -0.4089 H   0  0  0  0  0  0  0  0  0  0  0  0
   -1.0932   -1.5826    1.4236 H   0  0  0  0  0  0  0  0  0  0  0  0
   -3.2821   -0.6157    2.0339 H   0  0  0  0  0  0  0  0  0  0  0  0
   -4.2545    1.2245    0.6846 H   0  0  0  0  0  0  0  0  0  0  0  0
   -3.0269    2.0999   -1.2847 H   0  0  0  0  0  0  0  0  0  0  0  0
   -0.8376    1.1457   -1.9104 H   0  0  0  0  0  0  0  0  0  0  0  0
   -1.7065   -0.7296   -0.2872 H   0  0  0  0  0  0  0  0  0  0  0  0
    1.6942   -0.7374   -0.3359 H   0  0  0  0  0  0  0  0  0  0  0  0
  1  2  1  0
  2  3  1  0
  3  4  1  0
  4  5  1  0
  5  6  2  0
  6  7  1  0
  7  8  2  0
  8  9  1  0
  9 10  2  0
 11 12  2  0
 12 13  2  0
 12 14  1  0
 12 15  1  0
 10  5  1  0
  1 16  1  0
  1 17  1  0
  2 18  1  0
  3 19  1  0
  3 20  1  0
  4 21  1  0
  4 22  1  0
  6 23  1  0
  7 24  1  0
  8 25  1  0
  9 26  1  0
 10 27  1  0
 14 28  1  0
 15 29  1  0
M  END
$$$$
