
     RDKit          3D

 52 51  0  0  0  0  0  0  0  0999 V2000
    3.3231    2.4769    2.2009 C   0  0  0  0  0  0  0  0  0  0  0  0
    2.8590    1.1765    1.7855 N   0  0  0  0  0  0  0  0  0  0  0  0
    2.1454    1.0492    0.6103 C   0  0  0  0  0  0  0  0  0  0  0  0
    1.9766    1.9797   -0.1767 O   0  0  0  0  0  0  0  0  0  0  0  0
    1.5666   -0.3631    0.3539 C   0  0  1  0  0  0  0  0  0  0  0  0
    0.2173   -0.1468   -0.1685 N   0  0  0  0  0  0  0  0  0  0  0  0
   -0.8360    0.0262    0.6928 C   0  0  0  0  0  0  0  0  0  0  0  0
   -0.7597   -0.1356    1.9096 O   0  0  0  0  0  0  0  0  0  0  0  0
   -2.1199    0.5451    0.0715 C   0  0  2  0  0  0  0  0  0  0  0  0
   -2.5866   -0.3108   -1.1240 C   0  0  0  0  0  0  0  0  0  0  0  0
   -2.8456   -1.7977   -0.7969 C   0  0  0  0  0  0  0  0  0  0  0  0
   -3.9432   -1.9881    0.2508 C   0  0  0  0  0  0  0  0  0  0  0  0
   -3.2208   -2.5490   -2.0778 C   0  0  0  0  0  0  0  0  0  0  0  0
   -1.9256    2.0222   -0.2967 C   0  0  2  0  0  0  0  0  0  0  0  0
   -1.0758    2.1206   -1.4493 O   0  0  0  0  0  0  0  0  0  0  0  0
   -1.3858    2.9479    0.8174 C   0  0  0  0  0  0  0  0  0  0  0  0
   -0.7604    3.9752    0.5328 O   0  0  0  0  0  0  0  0  0  0  0  0
   -1.6859    2.6368    2.1251 N   0  0  0  0  0  0  0  0  0  0  0  0
   -1.0870    3.5245    3.0631 O   0  0  0  0  0  0  0  0  0  0  0  0
    2.4455   -1.2312   -0.5957 C   0  0  0  0  0  0  0  0  0  0  0  0
    3.8377   -1.4578    0.0272 C   0  0  0  0  0  0  0  0  0  0  0  0
    1.7798   -2.6127   -0.7797 C   0  0  0  0  0  0  0  0  0  0  0  0
    2.6290   -0.5940   -1.9865 C   0  0  0  0  0  0  0  0  0  0  0  0
    3.8839    2.9475    1.3879 H   0  0  0  0  0  0  0  0  0  0  0  0
    3.9634    2.3549    3.0791 H   0  0  0  0  0  0  0  0  0  0  0  0
    2.4584    3.0993    2.4545 H   0  0  0  0  0  0  0  0  0  0  0  0
    2.6623    0.5041    2.5167 H   0  0  0  0  0  0  0  0  0  0  0  0
    1.4769   -0.8785    1.3189 H   0  0  0  0  0  0  0  0  0  0  0  0
    0.1685    0.4229   -1.0148 H   0  0  0  0  0  0  0  0  0  0  0  0
   -2.8912    0.4953    0.8502 H   0  0  0  0  0  0  0  0  0  0  0  0
   -1.8468   -0.2637   -1.9335 H   0  0  0  0  0  0  0  0  0  0  0  0
   -3.5074    0.1305   -1.5289 H   0  0  0  0  0  0  0  0  0  0  0  0
   -1.9230   -2.2487   -0.4117 H   0  0  0  0  0  0  0  0  0  0  0  0
   -4.8699   -1.4873   -0.0496 H   0  0  0  0  0  0  0  0  0  0  0  0
   -3.6390   -1.5910    1.2236 H   0  0  0  0  0  0  0  0  0  0  0  0
   -4.1648   -3.0517    0.3924 H   0  0  0  0  0  0  0  0  0  0  0  0
   -2.4300   -2.4564   -2.8297 H   0  0  0  0  0  0  0  0  0  0  0  0
   -4.1487   -2.1590   -2.5101 H   0  0  0  0  0  0  0  0  0  0  0  0
   -3.3633   -3.6161   -1.8759 H   0  0  0  0  0  0  0  0  0  0  0  0
   -2.8951    2.4422   -0.5912 H   0  0  0  0  0  0  0  0  0  0  0  0
   -0.6433    3.0016   -1.3971 H   0  0  0  0  0  0  0  0  0  0  0  0
   -1.6782    1.6605    2.4281 H   0  0  0  0  0  0  0  0  0  0  0  0
   -0.6328    4.1752    2.4827 H   0  0  0  0  0  0  0  0  0  0  0  0
    4.4035   -0.5236    0.1039 H   0  0  0  0  0  0  0  0  0  0  0  0
    3.7565   -1.8885    1.0318 H   0  0  0  0  0  0  0  0  0  0  0  0
    4.4352   -2.1469   -0.5809 H   0  0  0  0  0  0  0  0  0  0  0  0
    2.4050   -3.2756   -1.3886 H   0  0  0  0  0  0  0  0  0  0  0  0
    0.8093   -2.5298   -1.2817 H   0  0  0  0  0  0  0  0  0  0  0  0
    1.6177   -3.1048    0.1863 H   0  0  0  0  0  0  0  0  0  0  0  0
    1.6694   -0.4339   -2.4896 H   0  0  0  0  0  0  0  0  0  0  0  0
    3.1454    0.3691   -1.9266 H   0  0  0  0  0  0  0  0  0  0  0  0
    3.2305   -1.2414   -2.6354 H   0  0  0  0  0  0  0  0  0  0  0  0
  1  2  1  0
  2  3  1  0
  3  4  2  0
  3  5  1  0
  5  6  1  0
  6  7  1  0
  7  8  2  0
  7  9  1  0
  9 10  1  0
 10 11  1  0
 11 12  1  0
 11 13  1  0
  9 14  1  0
 14 15  1  0
 14 16  1  0
 16 17  2  0
 16 18  1  0
 18 19  1  0
  5 20  1  0
 20 21  1  0
 20 22  1  0
 20 23  1  0
  1 24  1  0
  1 25  1  0
  1 26  1  0
  2 27  1  0
  5 28  1  1
  6 29  1  0
  9 30  1  1
 10 31  1  0
 10 32  1  0
 11 33  1  0
 12 34  1  0
 12 35  1  0
 12 36  1  0
 13 37  1  0
 13 38  1  0
 13 39  1  0
 14 40  1  6
 15 41  1  0
 18 42  1  0
 19 43  1  0
 21 44  1  0
 21 45  1  0
 21 46  1  0
 22 47  1  0
 22 48  1  0
 22 49  1  0
 23 50  1  0
 23 51  1  0
 23 52  1  0
M  END
$$$$
