
     RDKit          3D

 58 62  0  0  0  0  0  0  0  0999 V2000
    4.8083   -1.6208    0.8487 C   0  0  0  0  0  0  0  0  0  0  0  0
    4.4840   -0.2440    0.3542 C   0  0  0  0  0  0  0  0  0  0  0  0
    5.2918    0.6691    0.2568 O   0  0  0  0  0  0  0  0  0  0  0  0
    3.1577   -0.1532    0.0648 O   0  0  0  0  0  0  0  0  0  0  0  0
    2.6689    1.0982   -0.4903 C   0  0  2  0  0  0  0  0  0  0  0  0
    3.4652    1.4241   -1.7788 C   0  0  0  0  0  0  0  0  0  0  0  0
    4.1115    2.7776   -1.9236 C   0  0  0  0  0  0  0  0  0  0  0  0
    3.5629    0.5932   -2.6882 O   0  0  0  0  0  0  0  0  0  0  0  0
    2.6340    2.1771    0.6320 C   0  0  0  0  0  0  0  0  0  0  0  0
    1.2295    2.1169    1.2728 C   0  0  0  0  0  0  0  0  0  0  0  0
    0.5659    0.9036    0.6328 C   0  0  1  0  0  0  0  0  0  0  0  0
   -0.9649    0.7826    0.6592 C   0  0  2  0  0  0  0  0  0  0  0  0
   -1.5582    0.9090    2.0342 C   0  0  0  0  0  0  0  0  0  0  0  0
   -2.5697    0.1520    2.4896 C   0  0  0  0  0  0  0  0  0  0  0  0
   -3.1470    0.4913    4.0957 Cl  0  0  0  0  0  0  0  0  0  0  0  0
   -3.2124   -0.8903    1.6794 C   0  0  0  0  0  0  0  0  0  0  0  0
   -4.0311   -1.8099    2.2303 C   0  0  0  0  0  0  0  0  0  0  0  0
   -4.6356   -2.9286    1.4762 C   0  0  0  0  0  0  0  0  0  0  0  0
   -5.4944   -3.6456    1.9705 O   0  0  0  0  0  0  0  0  0  0  0  0
   -4.1247   -3.1828    0.1151 C   0  0  2  0  0  0  0  0  0  0  0  0
   -2.6672   -3.5360   -0.0736 C   0  0  0  0  0  0  0  0  0  0  0  0
   -3.1938   -2.2023   -0.5453 C   0  0  2  0  0  0  0  0  0  0  0  0
   -2.8726   -0.8842    0.1645 C   0  0  1  0  0  0  0  0  0  0  0  0
   -3.7566    0.2016   -0.5054 C   0  0  0  0  0  0  0  0  0  0  0  0
   -1.3434   -0.5799    0.0090 C   0  0  1  0  0  0  0  0  0  0  0  0
   -0.7844   -0.6682   -1.4311 C   0  0  0  0  0  0  0  0  0  0  0  0
    0.7378   -0.4228   -1.4802 C   0  0  0  0  0  0  0  0  0  0  0  0
    1.1410    0.9065   -0.8092 C   0  0  2  0  0  0  0  0  0  0  0  0
    0.6165    2.0863   -1.6775 C   0  0  0  0  0  0  0  0  0  0  0  0
    4.3400   -1.7809    1.8236 H   0  0  0  0  0  0  0  0  0  0  0  0
    4.4616   -2.3671    0.1274 H   0  0  0  0  0  0  0  0  0  0  0  0
    5.8929   -1.7228    0.9531 H   0  0  0  0  0  0  0  0  0  0  0  0
    3.3453    3.5540   -1.9810 H   0  0  0  0  0  0  0  0  0  0  0  0
    4.7901    2.9652   -1.0888 H   0  0  0  0  0  0  0  0  0  0  0  0
    4.6963    2.8016   -2.8482 H   0  0  0  0  0  0  0  0  0  0  0  0
    2.7952    3.1925    0.2571 H   0  0  0  0  0  0  0  0  0  0  0  0
    3.3882    1.9951    1.4054 H   0  0  0  0  0  0  0  0  0  0  0  0
    0.6743    3.0385    1.0639 H   0  0  0  0  0  0  0  0  0  0  0  0
    1.3016    2.0150    2.3608 H   0  0  0  0  0  0  0  0  0  0  0  0
    0.9559    0.0245    1.1719 H   0  0  0  0  0  0  0  0  0  0  0  0
   -1.3929    1.6061    0.0759 H   0  0  0  0  0  0  0  0  0  0  0  0
   -1.1622    1.6978    2.6704 H   0  0  0  0  0  0  0  0  0  0  0  0
   -4.2955   -1.8197    3.2819 H   0  0  0  0  0  0  0  0  0  0  0  0
   -4.8378   -3.6841   -0.5316 H   0  0  0  0  0  0  0  0  0  0  0  0
   -2.0239   -3.5755    0.7974 H   0  0  0  0  0  0  0  0  0  0  0  0
   -2.4272   -4.2830   -0.8229 H   0  0  0  0  0  0  0  0  0  0  0  0
   -3.2886   -2.0835   -1.6211 H   0  0  0  0  0  0  0  0  0  0  0  0
   -4.8189   -0.0594   -0.4238 H   0  0  0  0  0  0  0  0  0  0  0  0
   -3.5368    0.2950   -1.5743 H   0  0  0  0  0  0  0  0  0  0  0  0
   -3.6371    1.1913   -0.0548 H   0  0  0  0  0  0  0  0  0  0  0  0
   -0.8157   -1.3687    0.5709 H   0  0  0  0  0  0  0  0  0  0  0  0
   -0.9681   -1.6643   -1.8498 H   0  0  0  0  0  0  0  0  0  0  0  0
   -1.2997    0.0422   -2.0860 H   0  0  0  0  0  0  0  0  0  0  0  0
    1.0687   -0.4435   -2.5249 H   0  0  0  0  0  0  0  0  0  0  0  0
    1.2298   -1.2681   -0.9835 H   0  0  0  0  0  0  0  0  0  0  0  0
    1.0241    2.0306   -2.6936 H   0  0  0  0  0  0  0  0  0  0  0  0
   -0.4713    2.0857   -1.7849 H   0  0  0  0  0  0  0  0  0  0  0  0
    0.8928    3.0650   -1.2734 H   0  0  0  0  0  0  0  0  0  0  0  0
  1  2  1  0
  2  3  2  0
  2  4  1  0
  5  4  1  1
  5  6  1  0
  6  7  1  0
  6  8  2  0
  5  9  1  0
  9 10  1  0
 10 11  1  0
 11 12  1  0
 12 13  1  0
 13 14  2  0
 14 15  1  0
 14 16  1  0
 16 17  2  0
 17 18  1  0
 18 19  2  0
 18 20  1  0
 20 21  1  0
 21 22  1  0
 22 23  1  0
 23 24  1  6
 23 25  1  0
 25 26  1  0
 26 27  1  0
 27 28  1  0
 28 29  1  6
 28  5  1  0
 28 11  1  0
 25 12  1  0
 23 16  1  0
 22 20  1  0
  1 30  1  0
  1 31  1  0
  1 32  1  0
  7 33  1  0
  7 34  1  0
  7 35  1  0
  9 36  1  0
  9 37  1  0
 10 38  1  0
 10 39  1  0
 11 40  1  1
 12 41  1  6
 13 42  1  0
 17 43  1  0
 20 44  1  6
 21 45  1  0
 21 46  1  0
 22 47  1  6
 24 48  1  0
 24 49  1  0
 24 50  1  0
 25 51  1  1
 26 52  1  0
 26 53  1  0
 27 54  1  0
 27 55  1  0
 29 56  1  0
 29 57  1  0
 29 58  1  0
M  END
$$$$
