
     RDKit          3D

 47 49  0  0  0  0  0  0  0  0999 V2000
    4.7922   -2.7382   -0.1757 C   0  0  0  0  0  0  0  0  0  0  0  0
    5.1166   -1.4210    0.5152 C   0  0  0  0  0  0  0  0  0  0  0  0
    3.9507   -0.4376    0.4656 C   0  0  0  0  0  0  0  0  0  0  0  0
    2.8468   -0.9871    1.1950 O   0  0  0  0  0  0  0  0  0  0  0  0
    1.7571   -0.1503    1.1435 C   0  0  0  0  0  0  0  0  0  0  0  0
    1.6226    0.7789    2.2482 C   0  0  0  0  0  0  0  0  0  0  0  0
    0.5678    1.6105    2.2741 C   0  0  0  0  0  0  0  0  0  0  0  0
   -0.3926    1.5623    1.2543 N   0  0  0  0  0  0  0  0  0  0  0  0
   -1.5326    2.3325    1.0688 C   0  0  0  0  0  0  0  0  0  0  0  0
   -1.9616    3.4969    1.8255 C   0  0  0  0  0  0  0  0  0  0  0  0
   -0.9188    4.4698    2.3170 C   0  0  0  0  0  0  0  0  0  0  0  0
   -3.1496    3.7333    2.0448 O   0  0  0  0  0  0  0  0  0  0  0  0
   -2.2361    1.7728    0.0095 C   0  0  0  0  0  0  0  0  0  0  0  0
   -1.4763    0.7128   -0.5352 C   0  0  0  0  0  0  0  0  0  0  0  0
   -1.7509   -0.1080   -1.6998 C   0  0  0  0  0  0  0  0  0  0  0  0
   -0.9851    0.1499   -2.8534 C   0  0  0  0  0  0  0  0  0  0  0  0
   -1.1780   -0.5791   -4.0279 C   0  0  0  0  0  0  0  0  0  0  0  0
   -2.1457   -1.5755   -4.0721 C   0  0  0  0  0  0  0  0  0  0  0  0
   -2.9186   -1.8419   -2.9422 C   0  0  0  0  0  0  0  0  0  0  0  0
   -2.7252   -1.1153   -1.7529 C   0  0  0  0  0  0  0  0  0  0  0  0
   -3.7656   -1.5380   -0.3693 S   0  0  0  0  0  6  0  0  0  0  0  0
   -2.6882   -1.9273    0.9811 C   0  0  0  0  0  0  0  0  0  0  0  0
   -4.4343   -2.7835   -0.7127 O   0  0  0  0  0  0  0  0  0  0  0  0
   -4.5526   -0.3672   -0.0373 O   0  0  0  0  0  0  0  0  0  0  0  0
   -0.3278    0.6132    0.2266 C   0  0  0  0  0  0  0  0  0  0  0  0
    0.8109   -0.2516    0.1917 C   0  0  0  0  0  0  0  0  0  0  0  0
    4.5236   -2.5747   -1.2246 H   0  0  0  0  0  0  0  0  0  0  0  0
    3.9604   -3.2522    0.3164 H   0  0  0  0  0  0  0  0  0  0  0  0
    5.6616   -3.4028   -0.1476 H   0  0  0  0  0  0  0  0  0  0  0  0
    5.3755   -1.6309    1.5597 H   0  0  0  0  0  0  0  0  0  0  0  0
    5.9933   -0.9690    0.0380 H   0  0  0  0  0  0  0  0  0  0  0  0
    4.2623    0.5092    0.9247 H   0  0  0  0  0  0  0  0  0  0  0  0
    3.6655   -0.2498   -0.5776 H   0  0  0  0  0  0  0  0  0  0  0  0
    2.3691    0.7729    3.0348 H   0  0  0  0  0  0  0  0  0  0  0  0
    0.4244    2.3057    3.0881 H   0  0  0  0  0  0  0  0  0  0  0  0
   -0.0155    4.4306    1.7026 H   0  0  0  0  0  0  0  0  0  0  0  0
   -0.6795    4.2610    3.3623 H   0  0  0  0  0  0  0  0  0  0  0  0
   -1.3202    5.4856    2.2432 H   0  0  0  0  0  0  0  0  0  0  0  0
   -3.1942    2.1340   -0.3517 H   0  0  0  0  0  0  0  0  0  0  0  0
   -0.2311    0.9362   -2.8441 H   0  0  0  0  0  0  0  0  0  0  0  0
   -0.5789   -0.3613   -4.9088 H   0  0  0  0  0  0  0  0  0  0  0  0
   -2.3072   -2.1411   -4.9869 H   0  0  0  0  0  0  0  0  0  0  0  0
   -3.6801   -2.6183   -3.0038 H   0  0  0  0  0  0  0  0  0  0  0  0
   -2.3017   -1.0172    1.4343 H   0  0  0  0  0  0  0  0  0  0  0  0
   -3.2757   -2.4655    1.7298 H   0  0  0  0  0  0  0  0  0  0  0  0
   -1.8820   -2.5710    0.6244 H   0  0  0  0  0  0  0  0  0  0  0  0
    0.9051   -0.9926   -0.5959 H   0  0  0  0  0  0  0  0  0  0  0  0
  1  2  1  0
  2  3  1  0
  3  4  1  0
  4  5  1  0
  5  6  1  0
  6  7  2  0
  7  8  1  0
  8  9  1  0
  9 10  1  0
 10 11  1  0
 10 12  2  0
  9 13  2  0
 13 14  1  0
 14 15  1  0
 15 16  2  0
 16 17  1  0
 17 18  2  0
 18 19  1  0
 19 20  2  0
 20 21  1  0
 21 22  1  0
 21 23  2  0
 21 24  2  0
 14 25  2  0
 25 26  1  0
 26  5  2  0
 25  8  1  0
 20 15  1  0
  1 27  1  0
  1 28  1  0
  1 29  1  0
  2 30  1  0
  2 31  1  0
  3 32  1  0
  3 33  1  0
  6 34  1  0
  7 35  1  0
 11 36  1  0
 11 37  1  0
 11 38  1  0
 13 39  1  0
 16 40  1  0
 17 41  1  0
 18 42  1  0
 19 43  1  0
 22 44  1  0
 22 45  1  0
 22 46  1  0
 26 47  1  0
M  END
$$$$
