
     RDKit          3D

 47 50  0  0  0  0  0  0  0  0999 V2000
    1.1947    0.2725   -1.0240 O   0  0  0  0  0  0  0  0  0  0  0  0
    1.7306   -0.3262   -0.0993 C   0  0  0  0  0  0  0  0  0  0  0  0
    1.1395   -1.3071    0.6634 N   0  0  0  0  0  0  0  0  0  0  0  0
   -0.1605   -1.8399    0.5183 C   0  0  0  0  0  0  0  0  0  0  0  0
   -0.4763   -2.9890    1.2702 C   0  0  0  0  0  0  0  0  0  0  0  0
   -1.7283   -3.6082    1.1530 C   0  0  0  0  0  0  0  0  0  0  0  0
   -2.6907   -3.0705    0.3017 C   0  0  0  0  0  0  0  0  0  0  0  0
   -2.3903   -1.9050   -0.4143 C   0  0  0  0  0  0  0  0  0  0  0  0
   -3.6130   -1.1465   -1.4557 S   0  0  0  0  0  6  0  0  0  0  0  0
   -4.7889   -1.9917   -1.4857 O   0  0  0  0  0  0  0  0  0  0  0  0
   -2.9569   -0.7403   -2.6826 O   0  0  0  0  0  0  0  0  0  0  0  0
   -4.0117    0.2581   -0.5758 N   0  0  0  0  0  0  0  0  0  0  0  0
   -4.7420    1.3084   -1.3597 C   0  0  0  0  0  0  0  0  0  0  0  0
   -6.1896    1.4544   -0.8736 C   0  0  0  0  0  0  0  0  0  0  0  0
   -6.2913    1.8328    0.5074 O   0  0  0  0  0  0  0  0  0  0  0  0
   -5.2030    1.3456    1.3073 C   0  0  0  0  0  0  0  0  0  0  0  0
   -4.6097    0.0372    0.7804 C   0  0  0  0  0  0  0  0  0  0  0  0
   -1.1297   -1.2964   -0.3244 C   0  0  0  0  0  0  0  0  0  0  0  0
    3.1592   -0.0382    0.2387 C   0  0  0  0  0  0  0  0  0  0  0  0
    3.9271    0.4292   -0.7584 C   0  0  0  0  0  0  0  0  0  0  0  0
    5.3295    0.7279   -0.5295 C   0  0  0  0  0  0  0  0  0  0  0  0
    6.1981    1.0772   -1.5660 C   0  0  0  0  0  0  0  0  0  0  0  0
    7.5395    1.3627   -1.2879 C   0  0  0  0  0  0  0  0  0  0  0  0
    8.0089    1.3268    0.0282 C   0  0  0  0  0  0  0  0  0  0  0  0
    7.1456    0.9818    1.0644 C   0  0  0  0  0  0  0  0  0  0  0  0
    5.8206    0.6685    0.7681 C   0  0  0  0  0  0  0  0  0  0  0  0
    5.0018    0.2364    1.8237 O   0  0  0  0  0  0  0  0  0  0  0  0
    3.7263   -0.2612    1.5796 C   0  0  0  0  0  0  0  0  0  0  0  0
    3.1026   -0.8682    2.4445 O   0  0  0  0  0  0  0  0  0  0  0  0
    1.7069   -1.7150    1.4006 H   0  0  0  0  0  0  0  0  0  0  0  0
    0.2567   -3.4319    1.9470 H   0  0  0  0  0  0  0  0  0  0  0  0
   -1.9454   -4.5159    1.7233 H   0  0  0  0  0  0  0  0  0  0  0  0
   -3.6634   -3.5533    0.2120 H   0  0  0  0  0  0  0  0  0  0  0  0
   -4.7340    1.0872   -2.4328 H   0  0  0  0  0  0  0  0  0  0  0  0
   -4.2016    2.2525   -1.2145 H   0  0  0  0  0  0  0  0  0  0  0  0
   -6.7338    0.5161   -1.0246 H   0  0  0  0  0  0  0  0  0  0  0  0
   -6.7022    2.2271   -1.4606 H   0  0  0  0  0  0  0  0  0  0  0  0
   -4.4343    2.1309    1.3430 H   0  0  0  0  0  0  0  0  0  0  0  0
   -5.5823    1.2114    2.3277 H   0  0  0  0  0  0  0  0  0  0  0  0
   -5.4034   -0.7177    0.7265 H   0  0  0  0  0  0  0  0  0  0  0  0
   -3.8281   -0.3024    1.4643 H   0  0  0  0  0  0  0  0  0  0  0  0
   -0.9471   -0.3887   -0.9015 H   0  0  0  0  0  0  0  0  0  0  0  0
    3.5320    0.5858   -1.7625 H   0  0  0  0  0  0  0  0  0  0  0  0
    5.8549    1.1041   -2.5933 H   0  0  0  0  0  0  0  0  0  0  0  0
    8.2231    1.6121   -2.0996 H   0  0  0  0  0  0  0  0  0  0  0  0
    9.0522    1.5561    0.2404 H   0  0  0  0  0  0  0  0  0  0  0  0
    7.5079    0.9457    2.0927 H   0  0  0  0  0  0  0  0  0  0  0  0
  1  2  2  0
  2  3  1  0
  3  4  1  0
  4  5  2  0
  5  6  1  0
  6  7  2  0
  7  8  1  0
  8  9  1  0
  9 10  2  0
  9 11  2  0
  9 12  1  0
 12 13  1  0
 13 14  1  0
 14 15  1  0
 15 16  1  0
 16 17  1  0
  8 18  2  0
  2 19  1  0
 19 20  2  0
 20 21  1  0
 21 22  2  0
 22 23  1  0
 23 24  2  0
 24 25  1  0
 25 26  2  0
 26 27  1  0
 27 28  1  0
 28 29  2  0
 18  4  1  0
 28 19  1  0
 17 12  1  0
 26 21  1  0
  3 30  1  0
  5 31  1  0
  6 32  1  0
  7 33  1  0
 13 34  1  0
 13 35  1  0
 14 36  1  0
 14 37  1  0
 16 38  1  0
 16 39  1  0
 17 40  1  0
 17 41  1  0
 18 42  1  0
 20 43  1  0
 22 44  1  0
 23 45  1  0
 24 46  1  0
 25 47  1  0
M  END
$$$$
