
     RDKit          3D

 56 60  0  0  0  0  0  0  0  0999 V2000
   -6.2373   -1.6649   -0.2523 C   0  0  0  0  0  0  0  0  0  0  0  0
   -4.7743   -1.4040   -0.0878 C   0  0  0  0  0  0  0  0  0  0  0  0
   -3.8091   -2.5378    0.7389 S   0  0  0  0  0  0  0  0  0  0  0  0
   -2.4027   -1.6425    0.4707 C   0  0  0  0  0  0  0  0  0  0  0  0
   -2.6348   -0.4226   -0.1402 C   0  0  0  0  0  0  0  0  0  0  0  0
   -4.0316   -0.3273   -0.5517 C   0  0  0  0  0  0  0  0  0  0  0  0
   -4.6166    0.7862   -1.3701 C   0  0  0  0  0  0  0  0  0  0  0  0
   -1.6115    0.6169   -0.3122 C   0  0  0  0  0  0  0  0  0  0  0  0
   -1.9551    2.0285    0.0468 C   0  0  0  0  0  0  0  0  0  0  0  0
   -2.8264    2.3217    1.1057 C   0  0  0  0  0  0  0  0  0  0  0  0
   -3.1165    3.6511    1.4270 C   0  0  0  0  0  0  0  0  0  0  0  0
   -2.5266    4.6859    0.7021 C   0  0  0  0  0  0  0  0  0  0  0  0
   -2.8890    6.3198    1.0986 Cl  0  0  0  0  0  0  0  0  0  0  0  0
   -1.6412    4.4052   -0.3368 C   0  0  0  0  0  0  0  0  0  0  0  0
   -1.3500    3.0773   -0.6604 C   0  0  0  0  0  0  0  0  0  0  0  0
   -0.4215    0.3799   -0.7311 N   0  0  0  0  0  0  0  0  0  0  0  0
    0.0770   -0.9555   -1.0342 C   0  0  1  0  0  0  0  0  0  0  0  0
    1.5004   -0.8352   -1.5982 C   0  0  0  0  0  0  0  0  0  0  0  0
    2.5422   -0.2593   -0.6390 C   0  0  0  0  0  0  0  0  0  0  0  0
    2.2556    0.4306    0.3322 O   0  0  0  0  0  0  0  0  0  0  0  0
    3.8324   -0.5584   -1.0661 N   0  0  0  0  0  0  0  0  0  0  0  0
    5.0499   -0.1728   -0.4677 C   0  0  0  0  0  0  0  0  0  0  0  0
    5.1434    0.6098    0.6857 C   0  0  0  0  0  0  0  0  0  0  0  0
    6.3930    0.9518    1.2161 C   0  0  0  0  0  0  0  0  0  0  0  0
    7.5507    0.5089    0.5884 C   0  0  0  0  0  0  0  0  0  0  0  0
    8.7861    0.8195    1.0725 O   0  0  0  0  0  0  0  0  0  0  0  0
    7.4791   -0.2695   -0.5580 C   0  0  0  0  0  0  0  0  0  0  0  0
    6.2305   -0.6106   -1.0844 C   0  0  0  0  0  0  0  0  0  0  0  0
    0.0214   -1.8899    0.1316 C   0  0  0  0  0  0  0  0  0  0  0  0
    0.9920   -2.6702    0.5599 N   0  0  0  0  0  0  0  0  0  0  0  0
    0.4929   -3.4635    1.5473 N   0  0  0  0  0  0  0  0  0  0  0  0
   -0.7823   -3.1733    1.7074 C   0  0  0  0  0  0  0  0  0  0  0  0
   -1.6344   -3.7639    2.7662 C   0  0  0  0  0  0  0  0  0  0  0  0
   -1.1574   -2.1932    0.7944 N   0  0  0  0  0  0  0  0  0  0  0  0
   -6.4392   -2.0496   -1.2573 H   0  0  0  0  0  0  0  0  0  0  0  0
   -6.8099   -0.7416   -0.1156 H   0  0  0  0  0  0  0  0  0  0  0  0
   -6.6122   -2.3928    0.4748 H   0  0  0  0  0  0  0  0  0  0  0  0
   -3.8578    1.2638   -1.9971 H   0  0  0  0  0  0  0  0  0  0  0  0
   -5.0689    1.5414   -0.7204 H   0  0  0  0  0  0  0  0  0  0  0  0
   -5.3923    0.4075   -2.0442 H   0  0  0  0  0  0  0  0  0  0  0  0
   -3.2753    1.5290    1.6991 H   0  0  0  0  0  0  0  0  0  0  0  0
   -3.7935    3.8723    2.2483 H   0  0  0  0  0  0  0  0  0  0  0  0
   -1.1670    5.2108   -0.8913 H   0  0  0  0  0  0  0  0  0  0  0  0
   -0.6435    2.8647   -1.4604 H   0  0  0  0  0  0  0  0  0  0  0  0
   -0.5333   -1.3825   -1.8426 H   0  0  0  0  0  0  0  0  0  0  0  0
    1.4887   -0.1810   -2.4797 H   0  0  0  0  0  0  0  0  0  0  0  0
    1.8380   -1.8256   -1.9312 H   0  0  0  0  0  0  0  0  0  0  0  0
    3.9139   -1.1504   -1.8818 H   0  0  0  0  0  0  0  0  0  0  0  0
    4.2591    0.9683    1.2030 H   0  0  0  0  0  0  0  0  0  0  0  0
    6.4328    1.5591    2.1147 H   0  0  0  0  0  0  0  0  0  0  0  0
    8.6738    1.3432    1.8829 H   0  0  0  0  0  0  0  0  0  0  0  0
    8.3899   -0.6125   -1.0398 H   0  0  0  0  0  0  0  0  0  0  0  0
    6.1979   -1.2233   -1.9809 H   0  0  0  0  0  0  0  0  0  0  0  0
   -1.0073   -4.2380    3.5292 H   0  0  0  0  0  0  0  0  0  0  0  0
   -2.2342   -3.0024    3.2732 H   0  0  0  0  0  0  0  0  0  0  0  0
   -2.2884   -4.5390    2.3572 H   0  0  0  0  0  0  0  0  0  0  0  0
  1  2  1  0
  2  3  1  0
  3  4  1  0
  4  5  2  0
  5  6  1  0
  6  7  1  0
  5  8  1  0
  8  9  1  0
  9 10  2  0
 10 11  1  0
 11 12  2  0
 12 13  1  0
 12 14  1  0
 14 15  2  0
  8 16  2  0
 16 17  1  0
 17 18  1  0
 18 19  1  0
 19 20  2  0
 19 21  1  0
 21 22  1  0
 22 23  2  0
 23 24  1  0
 24 25  2  0
 25 26  1  0
 25 27  1  0
 27 28  2  0
 17 29  1  0
 29 30  2  0
 30 31  1  0
 31 32  2  0
 32 33  1  0
 32 34  1  0
  6  2  2  0
 15  9  1  0
 28 22  1  0
 34 29  1  0
 34  4  1  0
  1 35  1  0
  1 36  1  0
  1 37  1  0
  7 38  1  0
  7 39  1  0
  7 40  1  0
 10 41  1  0
 11 42  1  0
 14 43  1  0
 15 44  1  0
 17 45  1  6
 18 46  1  0
 18 47  1  0
 21 48  1  0
 23 49  1  0
 24 50  1  0
 26 51  1  0
 27 52  1  0
 28 53  1  0
 33 54  1  0
 33 55  1  0
 33 56  1  0
M  END
$$$$
