
     RDKit          3D

109112  0  0  0  0  0  0  0  0999 V2000
   -1.8572   -2.9569   -3.9085 C   0  0  0  0  0  0  0  0  0  0  0  0
   -1.3129   -1.5597   -3.6025 C   0  0  0  0  0  0  0  0  0  0  0  0
   -0.9028   -0.8707   -4.9052 C   0  0  0  0  0  0  0  0  0  0  0  0
   -0.1445   -1.6721   -2.6032 C   0  0  0  0  0  0  0  0  0  0  0  0
    0.4123   -0.3464   -2.0544 C   0  0  2  0  0  0  0  0  0  0  0  0
    1.7438   -0.5923   -1.4834 N   0  0  0  0  0  0  0  0  0  0  0  0
    2.6075    0.4606   -1.2766 C   0  0  0  0  0  0  0  0  0  0  0  0
    2.3726    1.5881   -1.7222 O   0  0  0  0  0  0  0  0  0  0  0  0
    3.9310    0.1650   -0.5202 C   0  0  2  0  0  0  0  0  0  0  0  0
    3.8844   -1.0202    0.4571 C   0  0  0  0  0  0  0  0  0  0  0  0
    4.2702   -2.3256   -0.2468 C   0  0  0  0  0  0  0  0  0  0  0  0
    4.2552   -3.4997    0.6960 C   0  0  0  0  0  0  0  0  0  0  0  0
    5.4081   -3.8347    1.4191 C   0  0  0  0  0  0  0  0  0  0  0  0
    5.4023   -4.9219    2.2913 C   0  0  0  0  0  0  0  0  0  0  0  0
    4.2411   -5.6708    2.4659 C   0  0  0  0  0  0  0  0  0  0  0  0
    3.0865   -5.3402    1.7562 C   0  0  0  0  0  0  0  0  0  0  0  0
    3.0922   -4.2593    0.8732 C   0  0  0  0  0  0  0  0  0  0  0  0
    4.2657    1.4122    0.1752 N   0  0  0  0  0  0  0  0  0  0  0  0
    5.5208    1.6322    0.7096 C   0  0  0  0  0  0  0  0  0  0  0  0
    6.3916    0.7642    0.7012 O   0  0  0  0  0  0  0  0  0  0  0  0
    5.6681    3.0069    1.3873 C   0  0  0  0  0  0  0  0  0  0  0  0
    6.9624    3.6633    1.0974 N   0  0  0  0  0  0  0  0  0  0  0  0
    8.1002    3.0426    1.8197 C   0  0  0  0  0  0  0  0  0  0  0  0
    8.1136    3.3184    3.3369 C   0  0  0  0  0  0  0  0  0  0  0  0
    8.0827    4.7263    3.6165 O   0  0  0  0  0  0  0  0  0  0  0  0
    6.9418    5.3367    3.0033 C   0  0  0  0  0  0  0  0  0  0  0  0
    6.9265    5.0943    1.4836 C   0  0  0  0  0  0  0  0  0  0  0  0
   -0.4679    0.1881   -0.8986 C   0  0  0  0  0  0  0  0  0  0  0  0
   -0.2443   -0.0910    0.2806 O   0  0  0  0  0  0  0  0  0  0  0  0
   -1.5302    0.9757   -1.2865 N   0  0  0  0  0  0  0  0  0  0  0  0
   -2.5579    1.3427   -0.3159 C   0  0  1  0  0  0  0  0  0  0  0  0
   -3.2489    2.6672   -0.6702 C   0  0  0  0  0  0  0  0  0  0  0  0
   -2.3285    3.8648   -0.5839 C   0  0  0  0  0  0  0  0  0  0  0  0
   -1.8669    4.4884   -1.7525 C   0  0  0  0  0  0  0  0  0  0  0  0
   -1.0068    5.5837   -1.6777 C   0  0  0  0  0  0  0  0  0  0  0  0
   -0.6022    6.0701   -0.4353 C   0  0  0  0  0  0  0  0  0  0  0  0
   -1.0620    5.4665    0.7318 C   0  0  0  0  0  0  0  0  0  0  0  0
   -1.9188    4.3659    0.6592 C   0  0  0  0  0  0  0  0  0  0  0  0
   -3.6245    0.2268   -0.3045 C   0  0  0  0  0  0  0  0  0  0  0  0
   -3.8414   -0.4701   -1.2947 O   0  0  0  0  0  0  0  0  0  0  0  0
   -4.3339    0.1414    0.8769 N   0  0  0  0  0  0  0  0  0  0  0  0
   -5.3102   -0.9095    1.1833 C   0  0  1  0  0  0  0  0  0  0  0  0
   -6.6615   -0.8218    0.4428 C   0  0  0  0  0  0  0  0  0  0  0  0
   -6.7517   -1.0258   -1.0815 C   0  0  0  0  0  0  0  0  0  0  0  0
   -6.3252   -2.4190   -1.5328 C   0  0  0  0  0  0  0  0  0  0  0  0
   -8.1970   -0.7731   -1.5396 C   0  0  0  0  0  0  0  0  0  0  0  0
   -4.6754   -2.3083    1.3461 C   0  0  0  0  0  0  0  0  0  0  0  0
   -3.5425   -2.5752    0.9581 O   0  0  0  0  0  0  0  0  0  0  0  0
   -5.4933   -3.3548    2.0624 C   0  0  1  0  0  0  0  0  0  0  0  0
   -6.3161   -2.9950    3.2734 C   0  0  0  0  0  0  0  0  0  0  0  0
   -5.8259   -4.6318    1.3050 C   0  0  0  0  0  0  0  0  0  0  0  0
   -4.7828   -4.5978    2.2821 O   0  0  0  0  0  0  0  0  0  0  0  0
   -1.0866   -3.5991   -4.3489 H   0  0  0  0  0  0  0  0  0  0  0  0
   -2.2154   -3.4391   -2.9933 H   0  0  0  0  0  0  0  0  0  0  0  0
   -2.6977   -2.9031   -4.6088 H   0  0  0  0  0  0  0  0  0  0  0  0
   -2.1287   -0.9888   -3.1539 H   0  0  0  0  0  0  0  0  0  0  0  0
   -0.0614   -1.3873   -5.3802 H   0  0  0  0  0  0  0  0  0  0  0  0
   -1.7346   -0.8607   -5.6199 H   0  0  0  0  0  0  0  0  0  0  0  0
   -0.6111    0.1709   -4.7374 H   0  0  0  0  0  0  0  0  0  0  0  0
    0.6723   -2.2220   -3.0910 H   0  0  0  0  0  0  0  0  0  0  0  0
   -0.4619   -2.2999   -1.7584 H   0  0  0  0  0  0  0  0  0  0  0  0
    0.5042    0.4165   -2.8327 H   0  0  0  0  0  0  0  0  0  0  0  0
    1.7329   -1.2967   -0.7570 H   0  0  0  0  0  0  0  0  0  0  0  0
    4.7060    0.0042   -1.2810 H   0  0  0  0  0  0  0  0  0  0  0  0
    4.5819   -0.8668    1.2888 H   0  0  0  0  0  0  0  0  0  0  0  0
    2.8996   -1.1057    0.9316 H   0  0  0  0  0  0  0  0  0  0  0  0
    5.2730   -2.2316   -0.6845 H   0  0  0  0  0  0  0  0  0  0  0  0
    3.6024   -2.5341   -1.0884 H   0  0  0  0  0  0  0  0  0  0  0  0
    6.3173   -3.2469    1.3013 H   0  0  0  0  0  0  0  0  0  0  0  0
    6.3048   -5.1795    2.8386 H   0  0  0  0  0  0  0  0  0  0  0  0
    4.2365   -6.5141    3.1516 H   0  0  0  0  0  0  0  0  0  0  0  0
    2.1823   -5.9290    1.8860 H   0  0  0  0  0  0  0  0  0  0  0  0
    2.1825   -4.0159    0.3288 H   0  0  0  0  0  0  0  0  0  0  0  0
    3.7267    2.2237   -0.1196 H   0  0  0  0  0  0  0  0  0  0  0  0
    4.8621    3.6448    1.0016 H   0  0  0  0  0  0  0  0  0  0  0  0
    5.4814    2.8710    2.4586 H   0  0  0  0  0  0  0  0  0  0  0  0
    9.0169    3.4658    1.3872 H   0  0  0  0  0  0  0  0  0  0  0  0
    8.1663    1.9661    1.6403 H   0  0  0  0  0  0  0  0  0  0  0  0
    9.0340    2.9183    3.7743 H   0  0  0  0  0  0  0  0  0  0  0  0
    7.2713    2.8319    3.8435 H   0  0  0  0  0  0  0  0  0  0  0  0
    6.0331    4.9604    3.4861 H   0  0  0  0  0  0  0  0  0  0  0  0
    6.9958    6.4115    3.2073 H   0  0  0  0  0  0  0  0  0  0  0  0
    6.0644    5.5960    1.0275 H   0  0  0  0  0  0  0  0  0  0  0  0
    7.8160    5.5726    1.0544 H   0  0  0  0  0  0  0  0  0  0  0  0
   -1.8309    0.9109   -2.2494 H   0  0  0  0  0  0  0  0  0  0  0  0
   -2.1016    1.4006    0.6793 H   0  0  0  0  0  0  0  0  0  0  0  0
   -3.6747    2.6052   -1.6826 H   0  0  0  0  0  0  0  0  0  0  0  0
   -4.1026    2.8455   -0.0017 H   0  0  0  0  0  0  0  0  0  0  0  0
   -2.1649    4.1185   -2.7306 H   0  0  0  0  0  0  0  0  0  0  0  0
   -0.6480    6.0556   -2.5889 H   0  0  0  0  0  0  0  0  0  0  0  0
    0.0724    6.9189   -0.3814 H   0  0  0  0  0  0  0  0  0  0  0  0
   -0.7479    5.8449    1.7008 H   0  0  0  0  0  0  0  0  0  0  0  0
   -2.2587    3.9058    1.5825 H   0  0  0  0  0  0  0  0  0  0  0  0
   -3.8538    0.5302    1.6820 H   0  0  0  0  0  0  0  0  0  0  0  0
   -5.5647   -0.6403    2.2188 H   0  0  0  0  0  0  0  0  0  0  0  0
   -7.0705    0.1756    0.6554 H   0  0  0  0  0  0  0  0  0  0  0  0
   -7.3583   -1.5297    0.9091 H   0  0  0  0  0  0  0  0  0  0  0  0
   -6.1387   -0.2760   -1.5896 H   0  0  0  0  0  0  0  0  0  0  0  0
   -6.9519   -3.1913   -1.0758 H   0  0  0  0  0  0  0  0  0  0  0  0
   -6.4141   -2.5162   -2.6197 H   0  0  0  0  0  0  0  0  0  0  0  0
   -5.2851   -2.6253   -1.2793 H   0  0  0  0  0  0  0  0  0  0  0  0
   -8.2885   -0.8951   -2.6243 H   0  0  0  0  0  0  0  0  0  0  0  0
   -8.5043    0.2485   -1.2921 H   0  0  0  0  0  0  0  0  0  0  0  0
   -8.8984   -1.4657   -1.0597 H   0  0  0  0  0  0  0  0  0  0  0  0
   -6.6788   -3.8848    3.7973 H   0  0  0  0  0  0  0  0  0  0  0  0
   -7.1900   -2.3996    2.9944 H   0  0  0  0  0  0  0  0  0  0  0  0
   -5.7082   -2.4198    3.9841 H   0  0  0  0  0  0  0  0  0  0  0  0
   -5.5163   -4.7324    0.2711 H   0  0  0  0  0  0  0  0  0  0  0  0
   -6.7352   -5.1660    1.5533 H   0  0  0  0  0  0  0  0  0  0  0  0
  1  2  1  0
  2  3  1  0
  2  4  1  0
  4  5  1  0
  5  6  1  0
  6  7  1  0
  7  8  2  0
  7  9  1  0
  9 10  1  0
 10 11  1  0
 11 12  1  0
 12 13  2  0
 13 14  1  0
 14 15  2  0
 15 16  1  0
 16 17  2  0
  9 18  1  0
 18 19  1  0
 19 20  2  0
 19 21  1  0
 21 22  1  0
 22 23  1  0
 23 24  1  0
 24 25  1  0
 25 26  1  0
 26 27  1  0
  5 28  1  0
 28 29  2  0
 28 30  1  0
 30 31  1  0
 31 32  1  0
 32 33  1  0
 33 34  2  0
 34 35  1  0
 35 36  2  0
 36 37  1  0
 37 38  2  0
 31 39  1  0
 39 40  2  0
 39 41  1  0
 41 42  1  0
 42 43  1  0
 43 44  1  0
 44 45  1  0
 44 46  1  0
 42 47  1  0
 47 48  2  0
 47 49  1  0
 49 50  1  1
 49 51  1  0
 51 52  1  0
 17 12  1  0
 27 22  1  0
 38 33  1  0
 52 49  1  0
  1 53  1  0
  1 54  1  0
  1 55  1  0
  2 56  1  0
  3 57  1  0
  3 58  1  0
  3 59  1  0
  4 60  1  0
  4 61  1  0
  5 62  1  6
  6 63  1  0
  9 64  1  6
 10 65  1  0
 10 66  1  0
 11 67  1  0
 11 68  1  0
 13 69  1  0
 14 70  1  0
 15 71  1  0
 16 72  1  0
 17 73  1  0
 18 74  1  0
 21 75  1  0
 21 76  1  0
 23 77  1  0
 23 78  1  0
 24 79  1  0
 24 80  1  0
 26 81  1  0
 26 82  1  0
 27 83  1  0
 27 84  1  0
 30 85  1  0
 31 86  1  1
 32 87  1  0
 32 88  1  0
 34 89  1  0
 35 90  1  0
 36 91  1  0
 37 92  1  0
 38 93  1  0
 41 94  1  0
 42 95  1  1
 43 96  1  0
 43 97  1  0
 44 98  1  0
 45 99  1  0
 45100  1  0
 45101  1  0
 46102  1  0
 46103  1  0
 46104  1  0
 50105  1  0
 50106  1  0
 50107  1  0
 51108  1  0
 51109  1  0
M  END
$$$$
