
     RDKit          3D

 50 50  0  0  0  0  0  0  0  0999 V2000
    5.1975    2.6767   -0.1526 C   0  0  0  0  0  0  0  0  0  0  0  0
    3.9184    1.9368    0.2703 C   0  0  0  0  0  0  0  0  0  0  0  0
    3.6610    0.9509   -0.7245 N   0  0  0  0  0  0  0  0  0  0  0  0
    4.5850   -0.1143   -0.7882 C   0  0  0  0  0  0  0  0  0  0  0  0
    4.5786   -1.0465    0.3975 C   0  0  0  0  0  0  0  0  0  0  0  0
    2.3082    0.6998   -1.0293 C   0  0  0  0  0  0  0  0  0  0  0  0
    1.5144    0.0336    0.0541 C   0  0  0  0  0  0  0  0  0  0  0  0
    0.1823   -0.1665   -0.3487 O   0  0  0  0  0  0  0  0  0  0  0  0
   -0.7017   -0.7961    0.5097 C   0  0  0  0  0  0  0  0  0  0  0  0
   -0.2342   -1.1628    1.6291 O   0  0  0  0  0  0  0  0  0  0  0  0
   -2.1200   -1.0750    0.2415 C   0  0  0  0  0  0  0  0  0  0  0  0
   -2.8498    0.2087    0.1401 C   0  0  0  0  0  0  0  0  0  0  0  0
   -4.0290    0.4041    0.8193 C   0  0  0  0  0  0  0  0  0  0  0  0
   -4.7648    1.5794    0.7535 C   0  0  0  0  0  0  0  0  0  0  0  0
   -4.2756    2.6046   -0.0420 C   0  0  0  0  0  0  0  0  0  0  0  0
   -3.1022    2.4399   -0.7308 C   0  0  0  0  0  0  0  0  0  0  0  0
   -2.3923    1.2407   -0.6374 C   0  0  0  0  0  0  0  0  0  0  0  0
   -2.6693   -2.0246    1.2556 C   0  0  0  0  0  0  0  0  0  0  0  0
   -3.7273   -2.8491    0.5710 C   0  0  0  0  0  0  0  0  0  0  0  0
   -3.6200   -2.5649   -0.9117 C   0  0  0  0  0  0  0  0  0  0  0  0
   -2.2978   -1.8402   -1.0654 C   0  0  0  0  0  0  0  0  0  0  0  0
    0.8598    0.0000    0.0000 I   0  0  0  0  0  0  0  0  0  0  0  0
    6.0606    2.1468    0.2663 H   0  0  0  0  0  0  0  0  0  0  0  0
    5.2834    2.6118   -1.2786 H   0  0  0  0  0  0  0  0  0  0  0  0
    5.1544    3.7525    0.0985 H   0  0  0  0  0  0  0  0  0  0  0  0
    3.0574    2.6276    0.3253 H   0  0  0  0  0  0  0  0  0  0  0  0
    4.1455    1.5256    1.2769 H   0  0  0  0  0  0  0  0  0  0  0  0
    4.3885   -0.7061   -1.7052 H   0  0  0  0  0  0  0  0  0  0  0  0
    5.6167    0.2925   -0.8743 H   0  0  0  0  0  0  0  0  0  0  0  0
    4.0958   -0.6452    1.2840 H   0  0  0  0  0  0  0  0  0  0  0  0
    4.1123   -2.0145    0.1296 H   0  0  0  0  0  0  0  0  0  0  0  0
    5.6258   -1.3225    0.7248 H   0  0  0  0  0  0  0  0  0  0  0  0
    1.8088    1.6875   -1.2590 H   0  0  0  0  0  0  0  0  0  0  0  0
    2.2154    0.0908   -1.9587 H   0  0  0  0  0  0  0  0  0  0  0  0
    1.5403    0.6329    0.9916 H   0  0  0  0  0  0  0  0  0  0  0  0
    1.9624   -0.9600    0.2454 H   0  0  0  0  0  0  0  0  0  0  0  0
   -4.4112   -0.3773    1.4337 H   0  0  0  0  0  0  0  0  0  0  0  0
   -5.6702    1.6589    1.3094 H   0  0  0  0  0  0  0  0  0  0  0  0
   -4.8751    3.5037   -0.0679 H   0  0  0  0  0  0  0  0  0  0  0  0
   -2.7527    3.2643   -1.3422 H   0  0  0  0  0  0  0  0  0  0  0  0
   -1.4749    1.1604   -1.2057 H   0  0  0  0  0  0  0  0  0  0  0  0
   -2.9776   -1.5787    2.2073 H   0  0  0  0  0  0  0  0  0  0  0  0
   -1.8278   -2.7317    1.5111 H   0  0  0  0  0  0  0  0  0  0  0  0
   -4.7356   -2.6856    0.9783 H   0  0  0  0  0  0  0  0  0  0  0  0
   -3.5316   -3.9518    0.7177 H   0  0  0  0  0  0  0  0  0  0  0  0
   -3.5917   -3.5087   -1.4994 H   0  0  0  0  0  0  0  0  0  0  0  0
   -4.4658   -1.9867   -1.2918 H   0  0  0  0  0  0  0  0  0  0  0  0
   -2.4253   -1.0823   -1.8614 H   0  0  0  0  0  0  0  0  0  0  0  0
   -1.4890   -2.5395   -1.2754 H   0  0  0  0  0  0  0  0  0  0  0  0
   -0.8598    0.0000    0.0000 H   0  0  0  0  0  0  0  0  0  0  0  0
  1  2  1  0
  2  3  1  0
  3  4  1  0
  4  5  1  0
  3  6  1  0
  6  7  1  0
  7  8  1  0
  8  9  1  0
  9 10  2  0
  9 11  1  0
 11 12  1  0
 12 13  2  0
 13 14  1  0
 14 15  2  0
 15 16  1  0
 16 17  2  0
 11 18  1  0
 18 19  1  0
 19 20  1  0
 20 21  1  0
 21 11  1  0
 17 12  1  0
  1 23  1  0
  1 24  1  0
  1 25  1  0
  2 26  1  0
  2 27  1  0
  4 28  1  0
  4 29  1  0
  5 30  1  0
  5 31  1  0
  5 32  1  0
  6 33  1  0
  6 34  1  0
  7 35  1  0
  7 36  1  0
 13 37  1  0
 14 38  1  0
 15 39  1  0
 16 40  1  0
 17 41  1  0
 18 42  1  0
 18 43  1  0
 19 44  1  0
 19 45  1  0
 20 46  1  0
 20 47  1  0
 21 48  1  0
 21 49  1  0
 22 50  1  0
M  END
$$$$
