
     RDKit          3D

 38 39  0  0  0  0  0  0  0  0999 V2000
   -1.5802   -0.8573   -1.3117 C   0  0  0  0  0  0  0  0  0  0  0  0
   -2.0103   -0.4407    0.1049 C   0  0  0  0  0  0  0  0  0  0  0  0
   -2.9778    0.7518   -0.0068 C   0  0  0  0  0  0  0  0  0  0  0  0
   -2.8177   -1.6153    0.7141 C   0  0  0  0  0  0  0  0  0  0  0  0
   -0.7787   -0.1652    1.0380 C   0  0  0  0  0  0  0  0  0  0  0  0
   -1.2335    0.2002    2.3552 O   0  0  0  0  0  0  0  0  0  0  0  0
    0.3634    0.7937    0.5776 C   0  0  0  0  0  0  0  0  0  0  0  0
    1.0249    0.3298   -0.6051 O   0  0  0  0  0  0  0  0  0  0  0  0
    2.0607   -0.5527   -0.4886 C   0  0  0  0  0  0  0  0  0  0  0  0
    2.5264   -1.1421    0.6878 C   0  0  0  0  0  0  0  0  0  0  0  0
    3.6012   -2.0389    0.6460 C   0  0  0  0  0  0  0  0  0  0  0  0
    4.2083   -2.3474   -0.5691 C   0  0  0  0  0  0  0  0  0  0  0  0
    5.5270   -3.4498   -0.6128 Cl  0  0  0  0  0  0  0  0  0  0  0  0
    3.7491   -1.7678   -1.7472 C   0  0  0  0  0  0  0  0  0  0  0  0
    2.6767   -0.8738   -1.7034 C   0  0  0  0  0  0  0  0  0  0  0  0
   -0.1058    2.1611    0.3412 N   0  0  0  0  0  0  0  0  0  0  0  0
    0.0677    2.9462   -0.7572 C   0  0  0  0  0  0  0  0  0  0  0  0
   -0.4599    4.1293   -0.5417 N   0  0  0  0  0  0  0  0  0  0  0  0
   -0.9371    4.0301    0.7324 C   0  0  0  0  0  0  0  0  0  0  0  0
   -0.7461    2.8459    1.3221 N   0  0  0  0  0  0  0  0  0  0  0  0
   -2.4414   -1.1887   -1.9040 H   0  0  0  0  0  0  0  0  0  0  0  0
   -1.1242   -0.0260   -1.8582 H   0  0  0  0  0  0  0  0  0  0  0  0
   -0.8656   -1.6870   -1.2817 H   0  0  0  0  0  0  0  0  0  0  0  0
   -2.5445    1.5791   -0.5733 H   0  0  0  0  0  0  0  0  0  0  0  0
   -3.8931    0.4627   -0.5378 H   0  0  0  0  0  0  0  0  0  0  0  0
   -3.2813    1.1252    0.9763 H   0  0  0  0  0  0  0  0  0  0  0  0
   -3.2058   -1.3652    1.7076 H   0  0  0  0  0  0  0  0  0  0  0  0
   -2.1967   -2.5131    0.8115 H   0  0  0  0  0  0  0  0  0  0  0  0
   -3.6759   -1.8777    0.0845 H   0  0  0  0  0  0  0  0  0  0  0  0
   -0.3005   -1.1427    1.1790 H   0  0  0  0  0  0  0  0  0  0  0  0
   -1.4217    1.1649    2.3418 H   0  0  0  0  0  0  0  0  0  0  0  0
    1.0834    0.9355    1.3949 H   0  0  0  0  0  0  0  0  0  0  0  0
    2.0840   -0.9434    1.6589 H   0  0  0  0  0  0  0  0  0  0  0  0
    3.9573   -2.4945    1.5671 H   0  0  0  0  0  0  0  0  0  0  0  0
    4.2167   -2.0050   -2.6990 H   0  0  0  0  0  0  0  0  0  0  0  0
    2.3203   -0.4248   -2.6281 H   0  0  0  0  0  0  0  0  0  0  0  0
    0.5687    2.6207   -1.6586 H   0  0  0  0  0  0  0  0  0  0  0  0
   -1.4380    4.8428    1.2435 H   0  0  0  0  0  0  0  0  0  0  0  0
  1  2  1  0
  2  3  1  0
  2  4  1  0
  2  5  1  0
  5  6  1  0
  5  7  1  0
  7  8  1  0
  8  9  1  0
  9 10  2  0
 10 11  1  0
 11 12  2  0
 12 13  1  0
 12 14  1  0
 14 15  2  0
  7 16  1  0
 16 17  1  0
 17 18  2  0
 18 19  1  0
 19 20  2  0
 15  9  1  0
 20 16  1  0
  1 21  1  0
  1 22  1  0
  1 23  1  0
  3 24  1  0
  3 25  1  0
  3 26  1  0
  4 27  1  0
  4 28  1  0
  4 29  1  0
  5 30  1  0
  6 31  1  0
  7 32  1  0
 10 33  1  0
 11 34  1  0
 14 35  1  0
 15 36  1  0
 17 37  1  0
 19 38  1  0
M  END
$$$$
