
     RDKit          3D

 25 27  0  0  0  0  0  0  0  0999 V2000
   -2.4448    2.9083   -0.4501 O   0  0  0  0  0  0  0  0  0  0  0  0
   -2.2016    1.7259   -0.1814 C   0  0  0  0  0  0  0  0  0  0  0  0
   -3.3269    0.9847    0.0583 N   0  0  0  0  0  0  0  0  0  0  0  0
   -3.5125   -0.3273    0.6303 C   0  0  0  0  0  0  0  0  0  0  0  0
   -2.6984   -1.4189   -0.0325 C   0  0  0  0  0  0  0  0  0  0  0  0
   -1.0820   -1.5129    0.7485 S   0  0  0  0  0  0  0  0  0  0  0  0
   -0.2837   -0.0499    0.1642 C   0  0  0  0  0  0  0  0  0  0  0  0
   -0.8528    1.1709   -0.1575 C   0  0  0  0  0  0  0  0  0  0  0  0
    0.3837    2.2760   -0.6531 S   0  0  0  0  0  0  0  0  0  0  0  0
    1.6487    1.1533   -0.4316 C   0  0  0  0  0  0  0  0  0  0  0  0
    3.0220    1.3826   -0.6569 C   0  0  0  0  0  0  0  0  0  0  0  0
    3.9299    0.3512   -0.4209 C   0  0  0  0  0  0  0  0  0  0  0  0
    3.4792   -0.8745    0.0282 C   0  0  0  0  0  0  0  0  0  0  0  0
    4.4067   -1.8506    0.2458 O   0  0  0  0  0  0  0  0  0  0  0  0
    2.1214   -1.1047    0.2509 C   0  0  0  0  0  0  0  0  0  0  0  0
    1.1648   -0.0730    0.0186 C   0  0  0  0  0  0  0  0  0  0  0  0
   -4.1397    1.5905    0.0459 H   0  0  0  0  0  0  0  0  0  0  0  0
   -4.5758   -0.5531    0.4872 H   0  0  0  0  0  0  0  0  0  0  0  0
   -3.3464   -0.2574    1.7115 H   0  0  0  0  0  0  0  0  0  0  0  0
   -3.1857   -2.3848    0.1357 H   0  0  0  0  0  0  0  0  0  0  0  0
   -2.6064   -1.2767   -1.1144 H   0  0  0  0  0  0  0  0  0  0  0  0
    3.3715    2.3497   -1.0084 H   0  0  0  0  0  0  0  0  0  0  0  0
    4.9913    0.5126   -0.5890 H   0  0  0  0  0  0  0  0  0  0  0  0
    3.9526   -2.6470    0.5672 H   0  0  0  0  0  0  0  0  0  0  0  0
    1.7848   -2.0748    0.6034 H   0  0  0  0  0  0  0  0  0  0  0  0
  1  2  2  0
  2  3  1  0
  3  4  1  0
  4  5  1  0
  5  6  1  0
  6  7  1  0
  7  8  2  0
  8  9  1  0
  9 10  1  0
 10 11  2  0
 11 12  1  0
 12 13  2  0
 13 14  1  0
 13 15  1  0
 15 16  2  0
  8  2  1  0
 16 10  1  0
 16  7  1  0
  3 17  1  0
  4 18  1  0
  4 19  1  0
  5 20  1  0
  5 21  1  0
 11 22  1  0
 12 23  1  0
 14 24  1  0
 15 25  1  0
M  END
$$$$
