
     RDKit          3D

 48 50  0  0  0  0  0  0  0  0999 V2000
   -3.6564   -2.2890    2.1591 C   0  0  0  0  0  0  0  0  0  0  0  0
   -2.2077   -2.0452    1.7592 C   0  0  0  0  0  0  0  0  0  0  0  0
   -2.0775   -1.2502    0.5166 N   0  0  0  0  0  0  0  0  0  0  0  0
   -2.5726   -1.9601   -0.6796 C   0  0  0  0  0  0  0  0  0  0  0  0
   -1.8540   -1.4779   -1.9311 C   0  0  0  0  0  0  0  0  0  0  0  0
   -2.3514    0.1121    0.6262 C   0  0  0  0  0  0  0  0  0  0  0  0
   -3.5470    0.5311    0.2908 N   0  0  0  0  0  0  0  0  0  0  0  0
   -3.7841    1.8929    0.4549 C   0  0  0  0  0  0  0  0  0  0  0  0
   -5.0226    2.5133    0.1784 C   0  0  0  0  0  0  0  0  0  0  0  0
   -4.9626    3.8693    0.4353 C   0  0  0  0  0  0  0  0  0  0  0  0
   -3.4093    4.3508    1.0007 S   0  0  0  0  0  0  0  0  0  0  0  0
   -2.8354    2.7585    0.9044 C   0  0  0  0  0  0  0  0  0  0  0  0
   -1.5085    2.3410    1.2327 C   0  0  0  0  0  0  0  0  0  0  0  0
   -0.6043    3.1039    1.5708 O   0  0  0  0  0  0  0  0  0  0  0  0
   -1.3260    0.9565    1.0897 N   0  0  0  0  0  0  0  0  0  0  0  0
    0.0421    0.4654    1.2912 C   0  0  0  0  0  0  0  0  0  0  0  0
    0.9129    0.7093    0.0603 C   0  0  0  0  0  0  0  0  0  0  0  0
    2.2946    0.1092    0.2342 C   0  0  0  0  0  0  0  0  0  0  0  0
    2.5846   -0.5802    1.2049 O   0  0  0  0  0  0  0  0  0  0  0  0
    3.1214    0.4278   -0.8314 N   0  0  0  0  0  0  0  0  0  0  0  0
    4.4618    0.0359   -1.0288 C   0  0  0  0  0  0  0  0  0  0  0  0
    5.1775   -0.7770   -0.1484 C   0  0  0  0  0  0  0  0  0  0  0  0
    6.5061   -1.1202   -0.4209 C   0  0  0  0  0  0  0  0  0  0  0  0
    7.1299   -0.6540   -1.5754 C   0  0  0  0  0  0  0  0  0  0  0  0
    6.4257    0.1572   -2.4603 C   0  0  0  0  0  0  0  0  0  0  0  0
    5.0985    0.5000   -2.1880 C   0  0  0  0  0  0  0  0  0  0  0  0
   -4.2003   -2.8446    1.3892 H   0  0  0  0  0  0  0  0  0  0  0  0
   -3.6958   -2.8740    3.0836 H   0  0  0  0  0  0  0  0  0  0  0  0
   -4.1866   -1.3480    2.3354 H   0  0  0  0  0  0  0  0  0  0  0  0
   -1.6932   -3.0046    1.6292 H   0  0  0  0  0  0  0  0  0  0  0  0
   -1.7001   -1.5344    2.5856 H   0  0  0  0  0  0  0  0  0  0  0  0
   -3.6556   -1.8338   -0.7930 H   0  0  0  0  0  0  0  0  0  0  0  0
   -2.3838   -3.0359   -0.5800 H   0  0  0  0  0  0  0  0  0  0  0  0
   -0.7737   -1.6331   -1.8439 H   0  0  0  0  0  0  0  0  0  0  0  0
   -2.2071   -2.0317   -2.8066 H   0  0  0  0  0  0  0  0  0  0  0  0
   -2.0283   -0.4127   -2.1128 H   0  0  0  0  0  0  0  0  0  0  0  0
   -5.9055    2.0040   -0.1847 H   0  0  0  0  0  0  0  0  0  0  0  0
   -5.7483    4.6033    0.3204 H   0  0  0  0  0  0  0  0  0  0  0  0
    0.0393   -0.5995    1.5342 H   0  0  0  0  0  0  0  0  0  0  0  0
    0.4765    0.9758    2.1600 H   0  0  0  0  0  0  0  0  0  0  0  0
    0.4526    0.2580   -0.8254 H   0  0  0  0  0  0  0  0  0  0  0  0
    1.0163    1.7841   -0.1277 H   0  0  0  0  0  0  0  0  0  0  0  0
    2.7286    1.0245   -1.5490 H   0  0  0  0  0  0  0  0  0  0  0  0
    4.7332   -1.1626    0.7635 H   0  0  0  0  0  0  0  0  0  0  0  0
    7.0512   -1.7532    0.2750 H   0  0  0  0  0  0  0  0  0  0  0  0
    8.1625   -0.9223   -1.7827 H   0  0  0  0  0  0  0  0  0  0  0  0
    6.9086    0.5245   -3.3621 H   0  0  0  0  0  0  0  0  0  0  0  0
    4.5736    1.1358   -2.8959 H   0  0  0  0  0  0  0  0  0  0  0  0
  1  2  1  0
  2  3  1  0
  3  4  1  0
  4  5  1  0
  3  6  1  0
  6  7  2  0
  7  8  1  0
  8  9  1  0
  9 10  2  0
 10 11  1  0
 11 12  1  0
 12 13  1  0
 13 14  2  0
 13 15  1  0
 15 16  1  0
 16 17  1  0
 17 18  1  0
 18 19  2  0
 18 20  1  0
 20 21  1  0
 21 22  2  0
 22 23  1  0
 23 24  2  0
 24 25  1  0
 25 26  2  0
 15  6  1  0
 26 21  1  0
 12  8  2  0
  1 27  1  0
  1 28  1  0
  1 29  1  0
  2 30  1  0
  2 31  1  0
  4 32  1  0
  4 33  1  0
  5 34  1  0
  5 35  1  0
  5 36  1  0
  9 37  1  0
 10 38  1  0
 16 39  1  0
 16 40  1  0
 17 41  1  0
 17 42  1  0
 20 43  1  0
 22 44  1  0
 23 45  1  0
 24 46  1  0
 25 47  1  0
 26 48  1  0
M  END
$$$$
