
     RDKit          3D

 51 53  0  0  0  0  0  0  0  0999 V2000
   -2.3740   -4.0232   -0.6908 C   0  0  0  0  0  0  0  0  0  0  0  0
   -1.9565   -2.6392   -0.3927 C   0  0  0  0  0  0  0  0  0  0  0  0
   -1.5635   -2.2407    0.8215 N   0  0  0  0  0  0  0  0  0  0  0  0
   -1.3093   -0.9408    0.6105 N   0  0  0  0  0  0  0  0  0  0  0  0
   -1.5184   -0.5942   -0.6961 C   0  0  0  0  0  0  0  0  0  0  0  0
   -1.2537    0.7705   -1.2536 C   0  0  2  0  0  0  0  0  0  0  0  0
   -0.0475    0.7583   -2.2021 C   0  0  0  0  0  0  0  0  0  0  0  0
    1.1507    0.9642   -1.2703 C   0  0  2  0  0  0  0  0  0  0  0  0
    1.5854   -0.2985   -0.6807 N   0  0  0  0  0  0  0  0  0  0  0  0
    2.7169   -0.3598    0.1092 C   0  0  0  0  0  0  0  0  0  0  0  0
    3.3451    0.6399    0.4315 O   0  0  0  0  0  0  0  0  0  0  0  0
    3.0547   -1.7799    0.5349 C   0  0  0  0  0  0  0  0  0  0  0  0
    4.3430   -1.9689    1.3503 C   0  0  0  0  0  0  0  0  0  0  0  0
    4.2987   -1.2639    2.7060 C   0  0  0  0  0  0  0  0  0  0  0  0
    5.5952   -1.5801    0.5644 C   0  0  0  0  0  0  0  0  0  0  0  0
    0.5866    1.9548   -0.2347 C   0  0  0  0  0  0  0  0  0  0  0  0
   -0.8527    1.7042   -0.2025 N   0  0  0  0  0  0  0  0  0  0  0  0
   -1.6683    2.4095    0.6636 C   0  0  0  0  0  0  0  0  0  0  0  0
   -1.2136    3.1389    1.5382 O   0  0  0  0  0  0  0  0  0  0  0  0
   -3.0959    2.2155    0.5220 C   0  0  0  0  0  0  0  0  0  0  0  0
   -3.9683    1.4567    1.3513 C   0  0  0  0  0  0  0  0  0  0  0  0
   -5.2260    1.5873    0.8128 C   0  0  0  0  0  0  0  0  0  0  0  0
   -5.1949    2.3969   -0.2751 O   0  0  0  0  0  0  0  0  0  0  0  0
   -3.9032    2.7996   -0.4381 C   0  0  0  0  0  0  0  0  0  0  0  0
   -3.6533    3.7333   -1.5573 C   0  0  0  0  0  0  0  0  0  0  0  0
   -1.9191   -1.6634   -1.3548 N   0  0  0  0  0  0  0  0  0  0  0  0
   -3.3548   -4.0277   -1.1758 H   0  0  0  0  0  0  0  0  0  0  0  0
   -2.4410   -4.6285    0.2187 H   0  0  0  0  0  0  0  0  0  0  0  0
   -1.6545   -4.4976   -1.3656 H   0  0  0  0  0  0  0  0  0  0  0  0
   -0.9713   -0.3599    1.3707 H   0  0  0  0  0  0  0  0  0  0  0  0
   -2.1467    1.1224   -1.7764 H   0  0  0  0  0  0  0  0  0  0  0  0
   -0.1177    1.6201   -2.8786 H   0  0  0  0  0  0  0  0  0  0  0  0
    0.0243   -0.1460   -2.8153 H   0  0  0  0  0  0  0  0  0  0  0  0
    2.0107    1.3896   -1.7975 H   0  0  0  0  0  0  0  0  0  0  0  0
    1.2454   -1.1696   -1.0772 H   0  0  0  0  0  0  0  0  0  0  0  0
    2.2041   -2.1570    1.1175 H   0  0  0  0  0  0  0  0  0  0  0  0
    3.1202   -2.3921   -0.3733 H   0  0  0  0  0  0  0  0  0  0  0  0
    4.4189   -3.0452    1.5577 H   0  0  0  0  0  0  0  0  0  0  0  0
    5.1545   -1.5648    3.3197 H   0  0  0  0  0  0  0  0  0  0  0  0
    4.3356   -0.1760    2.6083 H   0  0  0  0  0  0  0  0  0  0  0  0
    3.3891   -1.5278    3.2537 H   0  0  0  0  0  0  0  0  0  0  0  0
    6.4980   -1.8609    1.1184 H   0  0  0  0  0  0  0  0  0  0  0  0
    5.6235   -2.0963   -0.4011 H   0  0  0  0  0  0  0  0  0  0  0  0
    5.6466   -0.5041    0.3755 H   0  0  0  0  0  0  0  0  0  0  0  0
    1.0046    1.8497    0.7705 H   0  0  0  0  0  0  0  0  0  0  0  0
    0.7260    2.9886   -0.5713 H   0  0  0  0  0  0  0  0  0  0  0  0
   -3.7106    0.8819    2.2308 H   0  0  0  0  0  0  0  0  0  0  0  0
   -6.1981    1.1954    1.0777 H   0  0  0  0  0  0  0  0  0  0  0  0
   -3.6576    3.1925   -2.5083 H   0  0  0  0  0  0  0  0  0  0  0  0
   -4.4245    4.5091   -1.5958 H   0  0  0  0  0  0  0  0  0  0  0  0
   -2.6828    4.2276   -1.4508 H   0  0  0  0  0  0  0  0  0  0  0  0
  1  2  1  0
  2  3  2  0
  3  4  1  0
  4  5  1  0
  5  6  1  0
  6  7  1  0
  7  8  1  0
  8  9  1  0
  9 10  1  0
 10 11  2  0
 10 12  1  0
 12 13  1  0
 13 14  1  0
 13 15  1  0
  8 16  1  0
 16 17  1  0
 17 18  1  0
 18 19  2  0
 18 20  1  0
 20 21  1  0
 21 22  2  0
 22 23  1  0
 23 24  1  0
 24 25  1  0
  5 26  2  0
 26  2  1  0
 17  6  1  0
 24 20  2  0
  1 27  1  0
  1 28  1  0
  1 29  1  0
  4 30  1  0
  6 31  1  6
  7 32  1  0
  7 33  1  0
  8 34  1  6
  9 35  1  0
 12 36  1  0
 12 37  1  0
 13 38  1  0
 14 39  1  0
 14 40  1  0
 14 41  1  0
 15 42  1  0
 15 43  1  0
 15 44  1  0
 16 45  1  0
 16 46  1  0
 21 47  1  0
 22 48  1  0
 25 49  1  0
 25 50  1  0
 25 51  1  0
M  END
$$$$
