
     RDKit          3D

 36 38  0  0  0  0  0  0  0  0999 V2000
    6.9018   -0.0185    0.2811 N   0  0  0  0  0  0  0  0  0  0  0  0
    5.4594    0.6929   -0.1968 S   0  0  0  0  0  6  0  0  0  0  0  0
    5.5167    0.7770   -1.6377 O   0  0  0  0  0  0  0  0  0  0  0  0
    5.2935    1.8565    0.6429 O   0  0  0  0  0  0  0  0  0  0  0  0
    4.3594   -0.4269    0.2260 O   0  0  0  0  0  0  0  0  0  0  0  0
    3.0170   -0.2677    0.0013 C   0  0  0  0  0  0  0  0  0  0  0  0
    2.4129    0.8513   -0.5657 C   0  0  0  0  0  0  0  0  0  0  0  0
    1.0195    0.8931   -0.7439 C   0  0  0  0  0  0  0  0  0  0  0  0
    0.1993   -0.1805   -0.3702 C   0  0  0  0  0  0  0  0  0  0  0  0
   -1.2684   -0.2133   -0.5312 C   0  0  0  0  0  0  0  0  0  0  0  0
   -1.9680   -1.2419   -0.0023 C   0  0  0  0  0  0  0  0  0  0  0  0
   -1.2747   -2.4013    0.6371 C   0  0  0  0  0  0  0  0  0  0  0  0
   -1.8961   -3.3559    1.0938 O   0  0  0  0  0  0  0  0  0  0  0  0
    0.1064   -2.3789    0.6753 O   0  0  0  0  0  0  0  0  0  0  0  0
    0.8325   -1.2725    0.2147 C   0  0  0  0  0  0  0  0  0  0  0  0
    2.2168   -1.3350    0.3983 C   0  0  0  0  0  0  0  0  0  0  0  0
   -3.4825   -1.3741    0.0495 C   0  0  0  0  0  0  0  0  0  0  0  0
   -4.3787   -0.1432   -0.1681 C   0  0  0  0  0  0  0  0  0  0  0  0
   -3.8232    1.1392    0.4463 C   0  0  0  0  0  0  0  0  0  0  0  0
   -2.7800    1.8284   -0.4373 C   0  0  0  0  0  0  0  0  0  0  0  0
   -1.9561    0.8827   -1.3093 C   0  0  0  0  0  0  0  0  0  0  0  0
    7.0941   -0.8607   -0.2565 H   0  0  0  0  0  0  0  0  0  0  0  0
    6.9416   -0.1303    1.2916 H   0  0  0  0  0  0  0  0  0  0  0  0
    2.9864    1.7199   -0.8806 H   0  0  0  0  0  0  0  0  0  0  0  0
    0.6095    1.8038   -1.1713 H   0  0  0  0  0  0  0  0  0  0  0  0
    2.6590   -2.2155    0.8566 H   0  0  0  0  0  0  0  0  0  0  0  0
   -3.7458   -1.7435    1.0511 H   0  0  0  0  0  0  0  0  0  0  0  0
   -3.7923   -2.1578   -0.6536 H   0  0  0  0  0  0  0  0  0  0  0  0
   -4.5899   -0.0037   -1.2348 H   0  0  0  0  0  0  0  0  0  0  0  0
   -5.3517   -0.3577    0.2933 H   0  0  0  0  0  0  0  0  0  0  0  0
   -4.6448    1.8452    0.6193 H   0  0  0  0  0  0  0  0  0  0  0  0
   -3.3956    0.9257    1.4338 H   0  0  0  0  0  0  0  0  0  0  0  0
   -2.1201    2.4371    0.1930 H   0  0  0  0  0  0  0  0  0  0  0  0
   -3.2981    2.5307   -1.1031 H   0  0  0  0  0  0  0  0  0  0  0  0
   -2.5973    0.4203   -2.0718 H   0  0  0  0  0  0  0  0  0  0  0  0
   -1.2627    1.4750   -1.9124 H   0  0  0  0  0  0  0  0  0  0  0  0
  1  2  1  0
  2  3  2  0
  2  4  2  0
  2  5  1  0
  5  6  1  0
  6  7  2  0
  7  8  1  0
  8  9  2  0
  9 10  1  0
 10 11  2  0
 11 12  1  0
 12 13  2  0
 12 14  1  0
 14 15  1  0
 15 16  2  0
 11 17  1  0
 17 18  1  0
 18 19  1  0
 19 20  1  0
 20 21  1  0
 16  6  1  0
 15  9  1  0
 21 10  1  0
  1 22  1  0
  1 23  1  0
  7 24  1  0
  8 25  1  0
 16 26  1  0
 17 27  1  0
 17 28  1  0
 18 29  1  0
 18 30  1  0
 19 31  1  0
 19 32  1  0
 20 33  1  0
 20 34  1  0
 21 35  1  0
 21 36  1  0
M  END
$$$$
