
     RDKit          3D

 86 88  0  0  0  0  0  0  0  0999 V2000
    6.1668   -1.4367   -2.8871 C   0  0  0  0  0  0  0  0  0  0  0  0
    4.8231   -2.1495   -2.8584 C   0  0  0  0  0  0  0  0  0  0  0  0
    3.8687   -1.6039   -1.7949 C   0  0  0  0  0  0  0  0  0  0  0  0
    3.3959   -0.1757   -2.0829 C   0  0  0  0  0  0  0  0  0  0  0  0
    2.4217    0.2789   -1.0845 N   0  0  0  0  0  0  0  0  0  0  0  0
    2.9486    0.9613    0.1035 C   0  0  0  0  0  0  0  0  0  0  0  0
    3.3973    2.4026   -0.1667 C   0  0  0  0  0  0  0  0  0  0  0  0
    2.2457    3.3302   -0.5579 C   0  0  0  0  0  0  0  0  0  0  0  0
    2.7315    4.7558   -0.7714 C   0  0  0  0  0  0  0  0  0  0  0  0
    1.0800   -0.0739   -1.2884 C   0  0  0  0  0  0  0  0  0  0  0  0
    0.7319   -0.6639   -2.3141 O   0  0  0  0  0  0  0  0  0  0  0  0
    0.0810    0.3018   -0.1677 C   0  0  0  0  0  0  0  0  0  0  0  0
   -1.3076   -0.1402   -0.4553 N   0  0  0  0  0  0  0  0  0  0  0  0
   -1.4092   -1.6149   -0.3647 C   0  0  0  0  0  0  0  0  0  0  0  0
   -1.8381   -1.9624    1.0788 C   0  0  1  0  0  0  0  0  0  0  0  0
   -0.8292   -2.8728    1.7671 C   0  0  0  0  0  0  0  0  0  0  0  0
   -0.7711   -4.2304    1.3401 C   0  0  0  0  0  0  0  0  0  0  0  0
    0.1460   -5.1424    1.8805 C   0  0  0  0  0  0  0  0  0  0  0  0
    0.2778   -6.4550    1.5328 O   0  0  0  0  0  0  0  0  0  0  0  0
   -0.4606   -6.9000    0.4030 C   0  0  0  0  0  0  0  0  0  0  0  0
    0.9969   -4.6692    2.8604 C   0  0  0  0  0  0  0  0  0  0  0  0
    0.9519   -3.3628    3.2850 C   0  0  0  0  0  0  0  0  0  0  0  0
    0.0570   -2.4472    2.7668 C   0  0  0  0  0  0  0  0  0  0  0  0
    1.8810   -3.0912    4.2433 O   0  0  0  0  0  0  0  0  0  0  0  0
    2.5232   -4.3765    4.3692 C   0  0  0  0  0  0  0  0  0  0  0  0
    1.9633   -5.3827    3.5069 O   0  0  0  0  0  0  0  0  0  0  0  0
   -2.1507   -0.5949    1.7108 C   0  0  2  0  0  0  0  0  0  0  0  0
   -3.4088   -0.6581    2.5350 C   0  0  0  0  0  0  0  0  0  0  0  0
   -4.5151   -1.0096    2.1590 O   0  0  0  0  0  0  0  0  0  0  0  0
   -3.2129   -0.2520    3.8071 O   0  0  0  0  0  0  0  0  0  0  0  0
   -2.3361    0.3338    0.5021 C   0  0  1  0  0  0  0  0  0  0  0  0
   -2.3373    1.8322    0.8939 C   0  0  0  0  0  0  0  0  0  0  0  0
   -2.8835    2.8638   -0.1554 C   0  0  0  0  0  0  0  0  0  0  0  0
   -2.4787    4.2605    0.3682 C   0  0  0  0  0  0  0  0  0  0  0  0
   -2.2575    2.6701   -1.5444 C   0  0  0  0  0  0  0  0  0  0  0  0
   -4.4398    2.7380   -0.2095 C   0  0  0  0  0  0  0  0  0  0  0  0
   -5.2115    3.3837   -1.3699 C   0  0  0  0  0  0  0  0  0  0  0  0
   -5.2021    4.9009   -1.4054 C   0  0  0  0  0  0  0  0  0  0  0  0
    6.0612   -0.3872   -3.1797 H   0  0  0  0  0  0  0  0  0  0  0  0
    6.8304   -1.9182   -3.6119 H   0  0  0  0  0  0  0  0  0  0  0  0
    6.6515   -1.4754   -1.9063 H   0  0  0  0  0  0  0  0  0  0  0  0
    4.9983   -3.2128   -2.6567 H   0  0  0  0  0  0  0  0  0  0  0  0
    4.3562   -2.0894   -3.8484 H   0  0  0  0  0  0  0  0  0  0  0  0
    4.3480   -1.6483   -0.8092 H   0  0  0  0  0  0  0  0  0  0  0  0
    2.9980   -2.2689   -1.7406 H   0  0  0  0  0  0  0  0  0  0  0  0
    4.2395    0.5194   -2.0941 H   0  0  0  0  0  0  0  0  0  0  0  0
    2.9370   -0.1330   -3.0777 H   0  0  0  0  0  0  0  0  0  0  0  0
    2.2176    0.9641    0.9148 H   0  0  0  0  0  0  0  0  0  0  0  0
    3.8040    0.3780    0.4647 H   0  0  0  0  0  0  0  0  0  0  0  0
    3.8723    2.7882    0.7436 H   0  0  0  0  0  0  0  0  0  0  0  0
    4.1626    2.4232   -0.9508 H   0  0  0  0  0  0  0  0  0  0  0  0
    1.4835    3.3286    0.2302 H   0  0  0  0  0  0  0  0  0  0  0  0
    1.7710    2.9765   -1.4799 H   0  0  0  0  0  0  0  0  0  0  0  0
    3.1681    5.1639    0.1464 H   0  0  0  0  0  0  0  0  0  0  0  0
    3.4889    4.7976   -1.5614 H   0  0  0  0  0  0  0  0  0  0  0  0
    1.8976    5.4010   -1.0671 H   0  0  0  0  0  0  0  0  0  0  0  0
    0.4333   -0.1253    0.7752 H   0  0  0  0  0  0  0  0  0  0  0  0
    0.1162    1.3904   -0.1048 H   0  0  0  0  0  0  0  0  0  0  0  0
   -0.5038   -2.1390   -0.6866 H   0  0  0  0  0  0  0  0  0  0  0  0
   -2.2027   -1.9331   -1.0536 H   0  0  0  0  0  0  0  0  0  0  0  0
   -2.7714   -2.5416    1.0182 H   0  0  0  0  0  0  0  0  0  0  0  0
   -1.4663   -4.5521    0.5682 H   0  0  0  0  0  0  0  0  0  0  0  0
   -1.5366   -6.8738    0.6029 H   0  0  0  0  0  0  0  0  0  0  0  0
   -0.1814   -7.9403    0.2096 H   0  0  0  0  0  0  0  0  0  0  0  0
   -0.2089   -6.3159   -0.4881 H   0  0  0  0  0  0  0  0  0  0  0  0
    0.0833   -1.4349    3.1480 H   0  0  0  0  0  0  0  0  0  0  0  0
    2.4326   -4.7147    5.4084 H   0  0  0  0  0  0  0  0  0  0  0  0
    3.5877   -4.2598    4.1299 H   0  0  0  0  0  0  0  0  0  0  0  0
   -1.3376   -0.2088    2.3315 H   0  0  0  0  0  0  0  0  0  0  0  0
   -4.0930   -0.3506    4.2296 H   0  0  0  0  0  0  0  0  0  0  0  0
   -3.3099    0.1153    0.0460 H   0  0  0  0  0  0  0  0  0  0  0  0
   -1.3307    2.1259    1.2135 H   0  0  0  0  0  0  0  0  0  0  0  0
   -2.9459    1.9481    1.8020 H   0  0  0  0  0  0  0  0  0  0  0  0
   -2.7283    5.0596   -0.3323 H   0  0  0  0  0  0  0  0  0  0  0  0
   -2.9674    4.4836    1.3231 H   0  0  0  0  0  0  0  0  0  0  0  0
   -1.3952    4.3192    0.5277 H   0  0  0  0  0  0  0  0  0  0  0  0
   -1.1646    2.6750   -1.4933 H   0  0  0  0  0  0  0  0  0  0  0  0
   -2.5382    3.4790   -2.2280 H   0  0  0  0  0  0  0  0  0  0  0  0
   -2.5794    1.7312   -2.0065 H   0  0  0  0  0  0  0  0  0  0  0  0
   -4.7035    1.6749   -0.2492 H   0  0  0  0  0  0  0  0  0  0  0  0
   -4.8625    3.1022    0.7375 H   0  0  0  0  0  0  0  0  0  0  0  0
   -6.2579    3.0656   -1.2768 H   0  0  0  0  0  0  0  0  0  0  0  0
   -4.8657    2.9890   -2.3322 H   0  0  0  0  0  0  0  0  0  0  0  0
   -5.9954    5.2639   -2.0677 H   0  0  0  0  0  0  0  0  0  0  0  0
   -4.2601    5.2836   -1.8051 H   0  0  0  0  0  0  0  0  0  0  0  0
   -5.3717    5.3282   -0.4127 H   0  0  0  0  0  0  0  0  0  0  0  0
  1  2  1  0
  2  3  1  0
  3  4  1  0
  4  5  1  0
  5  6  1  0
  6  7  1  0
  7  8  1  0
  8  9  1  0
  5 10  1  0
 10 11  2  0
 10 12  1  0
 12 13  1  0
 13 14  1  0
 14 15  1  0
 15 16  1  0
 16 17  2  0
 17 18  1  0
 18 19  1  0
 19 20  1  0
 18 21  2  0
 21 22  1  0
 22 23  2  0
 22 24  1  0
 24 25  1  0
 25 26  1  0
 15 27  1  0
 27 28  1  0
 28 29  2  0
 28 30  1  0
 27 31  1  0
 31 32  1  0
 32 33  1  0
 33 34  1  0
 33 35  1  0
 33 36  1  0
 36 37  1  0
 37 38  1  0
 31 13  1  0
 23 16  1  0
 26 21  1  0
  1 39  1  0
  1 40  1  0
  1 41  1  0
  2 42  1  0
  2 43  1  0
  3 44  1  0
  3 45  1  0
  4 46  1  0
  4 47  1  0
  6 48  1  0
  6 49  1  0
  7 50  1  0
  7 51  1  0
  8 52  1  0
  8 53  1  0
  9 54  1  0
  9 55  1  0
  9 56  1  0
 12 57  1  0
 12 58  1  0
 14 59  1  0
 14 60  1  0
 15 61  1  6
 17 62  1  0
 20 63  1  0
 20 64  1  0
 20 65  1  0
 23 66  1  0
 25 67  1  0
 25 68  1  0
 27 69  1  1
 30 70  1  0
 31 71  1  6
 32 72  1  0
 32 73  1  0
 34 74  1  0
 34 75  1  0
 34 76  1  0
 35 77  1  0
 35 78  1  0
 35 79  1  0
 36 80  1  0
 36 81  1  0
 37 82  1  0
 37 83  1  0
 38 84  1  0
 38 85  1  0
 38 86  1  0
M  END
$$$$
