
     RDKit          3D

 57 61  0  0  0  0  0  0  0  0999 V2000
   -2.6506    4.3535   -0.4654 C   0  0  0  0  0  0  0  0  0  0  0  0
   -2.3581    3.2223    0.4860 C   0  0  0  0  0  0  0  0  0  0  0  0
   -2.3942    3.3836    1.7043 O   0  0  0  0  0  0  0  0  0  0  0  0
   -2.0526    2.0040   -0.0785 N   0  0  0  0  0  0  0  0  0  0  0  0
   -1.9093    1.7173   -1.4987 C   0  0  0  0  0  0  0  0  0  0  0  0
   -1.3737    0.2865   -1.5765 C   0  0  1  0  0  0  0  0  0  0  0  0
    0.1401    0.2505   -1.7909 C   0  0  0  0  0  0  0  0  0  0  0  0
    0.6062   -1.1520   -1.8390 N   0  0  0  0  0  0  0  0  0  0  0  0
    2.2670   -1.4120   -2.0915 S   0  0  0  0  0  6  0  0  0  0  0  0
    2.4729   -2.8208   -2.3503 O   0  0  0  0  0  0  0  0  0  0  0  0
    2.7398   -0.4016   -3.0152 O   0  0  0  0  0  0  0  0  0  0  0  0
    2.9718   -1.0475   -0.4943 C   0  0  0  0  0  0  0  0  0  0  0  0
    3.1531   -2.0892    0.4353 C   0  0  0  0  0  0  0  0  0  0  0  0
    3.7083   -1.8236    1.6887 C   0  0  0  0  0  0  0  0  0  0  0  0
    4.0971   -0.5245    1.9740 C   0  0  0  0  0  0  0  0  0  0  0  0
    3.9370    0.5048    1.0385 C   0  0  0  0  0  0  0  0  0  0  0  0
    3.3780    0.2612   -0.2047 C   0  0  0  0  0  0  0  0  0  0  0  0
    4.4116    1.8106    1.5969 C   0  0  0  0  0  0  0  0  0  0  0  0
    5.2807    1.3370    2.7710 C   0  0  0  0  0  0  0  0  0  0  0  0
    4.6934   -0.0012    3.2440 C   0  0  0  0  0  0  0  0  0  0  0  0
   -0.1354   -2.1277   -1.0009 C   0  0  0  0  0  0  0  0  0  0  0  0
   -0.7415   -1.4356    0.2165 C   0  0  0  0  0  0  0  0  0  0  0  0
   -1.7524   -0.3471   -0.2106 C   0  0  2  0  0  0  0  0  0  0  0  0
   -3.1410   -0.9377   -0.3011 C   0  0  0  0  0  0  0  0  0  0  0  0
   -3.4528   -2.1639   -0.6696 N   0  0  0  0  0  0  0  0  0  0  0  0
   -4.8223   -2.1741   -0.6321 C   0  0  0  0  0  0  0  0  0  0  0  0
   -5.6176   -3.3704   -0.9730 C   0  0  0  0  0  0  0  0  0  0  0  0
   -5.3795   -1.0161   -0.2599 N   0  0  0  0  0  0  0  0  0  0  0  0
   -4.2999   -0.2513   -0.0453 N   0  0  0  0  0  0  0  0  0  0  0  0
   -1.6967    0.8579    0.7462 C   0  0  0  0  0  0  0  0  0  0  0  0
   -3.4039    4.0564   -1.1986 H   0  0  0  0  0  0  0  0  0  0  0  0
   -1.7304    4.6604   -0.9705 H   0  0  0  0  0  0  0  0  0  0  0  0
   -3.0431    5.2062    0.0973 H   0  0  0  0  0  0  0  0  0  0  0  0
   -1.2587    2.4548   -1.9739 H   0  0  0  0  0  0  0  0  0  0  0  0
   -2.9051    1.7872   -1.9485 H   0  0  0  0  0  0  0  0  0  0  0  0
   -1.8491   -0.2352   -2.4187 H   0  0  0  0  0  0  0  0  0  0  0  0
    0.6561    0.7961   -0.9958 H   0  0  0  0  0  0  0  0  0  0  0  0
    0.3749    0.7375   -2.7433 H   0  0  0  0  0  0  0  0  0  0  0  0
    2.8654   -3.1082    0.1851 H   0  0  0  0  0  0  0  0  0  0  0  0
    3.8416   -2.6200    2.4142 H   0  0  0  0  0  0  0  0  0  0  0  0
    3.2675    1.0610   -0.9306 H   0  0  0  0  0  0  0  0  0  0  0  0
    3.5593    2.4027    1.9492 H   0  0  0  0  0  0  0  0  0  0  0  0
    4.9966    2.3866    0.8746 H   0  0  0  0  0  0  0  0  0  0  0  0
    6.3067    1.1725    2.4140 H   0  0  0  0  0  0  0  0  0  0  0  0
    5.3341    2.0768    3.5755 H   0  0  0  0  0  0  0  0  0  0  0  0
    3.9115    0.1511    3.9937 H   0  0  0  0  0  0  0  0  0  0  0  0
    5.4715   -0.6588    3.6401 H   0  0  0  0  0  0  0  0  0  0  0  0
   -0.9087   -2.5912   -1.6225 H   0  0  0  0  0  0  0  0  0  0  0  0
    0.5134   -2.9406   -0.6640 H   0  0  0  0  0  0  0  0  0  0  0  0
   -1.2110   -2.1797    0.8716 H   0  0  0  0  0  0  0  0  0  0  0  0
    0.0749   -0.9953    0.8018 H   0  0  0  0  0  0  0  0  0  0  0  0
   -4.9917   -4.1283   -1.4520 H   0  0  0  0  0  0  0  0  0  0  0  0
   -6.0547   -3.8075   -0.0704 H   0  0  0  0  0  0  0  0  0  0  0  0
   -6.4276   -3.1157   -1.6646 H   0  0  0  0  0  0  0  0  0  0  0  0
   -4.4224    0.7103    0.2567 H   0  0  0  0  0  0  0  0  0  0  0  0
   -0.6838    1.0496    1.1196 H   0  0  0  0  0  0  0  0  0  0  0  0
   -2.3629    0.7785    1.6122 H   0  0  0  0  0  0  0  0  0  0  0  0
  1  2  1  0
  2  3  2  0
  2  4  1  0
  4  5  1  0
  5  6  1  0
  6  7  1  0
  7  8  1  0
  8  9  1  0
  9 10  2  0
  9 11  2  0
  9 12  1  0
 12 13  2  0
 13 14  1  0
 14 15  2  0
 15 16  1  0
 16 17  2  0
 16 18  1  0
 18 19  1  0
 19 20  1  0
  8 21  1  0
 21 22  1  0
 22 23  1  0
 23 24  1  6
 24 25  2  0
 25 26  1  0
 26 27  1  0
 26 28  2  0
 28 29  1  0
 23 30  1  0
 30  4  1  0
 23  6  1  0
 29 24  1  0
 17 12  1  0
 20 15  1  0
  1 31  1  0
  1 32  1  0
  1 33  1  0
  5 34  1  0
  5 35  1  0
  6 36  1  6
  7 37  1  0
  7 38  1  0
 13 39  1  0
 14 40  1  0
 17 41  1  0
 18 42  1  0
 18 43  1  0
 19 44  1  0
 19 45  1  0
 20 46  1  0
 20 47  1  0
 21 48  1  0
 21 49  1  0
 22 50  1  0
 22 51  1  0
 27 52  1  0
 27 53  1  0
 27 54  1  0
 29 55  1  0
 30 56  1  0
 30 57  1  0
M  END
$$$$
