
     RDKit          3D

 50 51  0  0  0  0  0  0  0  0999 V2000
    1.9496    1.4097    1.1489 O   0  0  0  0  0  0  0  0  0  0  0  0
    1.3276    0.5691    0.5255 C   0  0  0  0  0  0  0  0  0  0  0  0
    1.5176    0.3680   -0.7865 O   0  0  0  0  0  0  0  0  0  0  0  0
    0.4158   -0.4072    1.1284 C   0  0  0  0  0  0  0  0  0  0  0  0
   -0.7095   -0.8819    0.5772 C   0  0  0  0  0  0  0  0  0  0  0  0
   -1.2925   -0.4476   -0.6947 C   0  0  0  0  0  0  0  0  0  0  0  0
   -1.8577   -1.1800   -1.4838 O   0  0  0  0  0  0  0  0  0  0  0  0
   -1.2574    0.8830   -0.8542 O   0  0  0  0  0  0  0  0  0  0  0  0
    5.0269   -2.3853   -0.2815 O   0  0  0  0  0  0  0  0  0  0  0  0
    4.3756   -1.4521    0.1790 C   0  0  0  0  0  0  0  0  0  0  0  0
    2.9376   -1.2696   -0.1670 C   0  0  0  0  0  0  0  0  0  0  0  0
    2.3624   -2.1373   -1.1048 C   0  0  0  0  0  0  0  0  0  0  0  0
    1.0175   -1.9984   -1.4589 C   0  0  0  0  0  0  0  0  0  0  0  0
    0.2259   -1.0113   -0.8723 C   0  0  0  0  0  0  0  0  0  0  0  0
   -1.0670   -0.9740   -1.3141 O   0  0  0  0  0  0  0  0  0  0  0  0
   -2.0442   -0.3559   -0.4694 C   0  0  0  0  0  0  0  0  0  0  0  0
   -2.2963    1.0862   -0.9045 C   0  0  0  0  0  0  0  0  0  0  0  0
   -3.2380    1.8303    0.0453 C   0  0  0  0  0  0  0  0  0  0  0  0
   -4.6290    1.2994    0.0353 C   0  0  0  0  0  0  0  0  0  0  0  0
   -5.3489    0.7128    1.0571 C   0  0  0  0  0  0  0  0  0  0  0  0
   -6.5665    0.4155    0.5118 N   0  0  0  0  0  0  0  0  0  0  0  0
   -6.5465    0.8243   -0.7887 C   0  0  0  0  0  0  0  0  0  0  0  0
   -5.3883    1.3574   -1.1081 N   0  0  0  0  0  0  0  0  0  0  0  0
    0.7981   -0.1417    0.0599 C   0  0  0  0  0  0  0  0  0  0  0  0
    2.1486   -0.2670    0.4127 C   0  0  0  0  0  0  0  0  0  0  0  0
    5.0228   -0.4776    1.1034 C   0  0  0  0  0  0  0  0  0  0  0  0
    5.5113    0.8538    0.5703 C   0  0  0  0  0  0  0  0  0  0  0  0
    6.5035   -0.1883    0.9863 C   0  0  0  0  0  0  0  0  0  0  0  0
    2.1607    1.0619   -1.0392 H   0  0  0  0  0  0  0  0  0  0  0  0
    0.7214   -0.7430    2.1139 H   0  0  0  0  0  0  0  0  0  0  0  0
   -1.2750   -1.6582    1.0795 H   0  0  0  0  0  0  0  0  0  0  0  0
   -1.7005    1.0264   -1.7150 H   0  0  0  0  0  0  0  0  0  0  0  0
    2.9590   -2.9248   -1.5695 H   0  0  0  0  0  0  0  0  0  0  0  0
    0.5843   -2.6700   -2.1953 H   0  0  0  0  0  0  0  0  0  0  0  0
   -2.9635   -0.9375   -0.5934 H   0  0  0  0  0  0  0  0  0  0  0  0
   -1.7809   -0.4347    0.5912 H   0  0  0  0  0  0  0  0  0  0  0  0
   -1.3465    1.6306   -0.9598 H   0  0  0  0  0  0  0  0  0  0  0  0
   -2.6915    1.0898   -1.9294 H   0  0  0  0  0  0  0  0  0  0  0  0
   -3.2705    2.8902   -0.2416 H   0  0  0  0  0  0  0  0  0  0  0  0
   -2.8363    1.7954    1.0646 H   0  0  0  0  0  0  0  0  0  0  0  0
   -5.1105    0.4972    2.0875 H   0  0  0  0  0  0  0  0  0  0  0  0
   -7.3486   -0.0149    0.9853 H   0  0  0  0  0  0  0  0  0  0  0  0
   -7.3956    0.7126   -1.4500 H   0  0  0  0  0  0  0  0  0  0  0  0
    0.2251    0.6574    0.5174 H   0  0  0  0  0  0  0  0  0  0  0  0
    2.5591    0.4289    1.1377 H   0  0  0  0  0  0  0  0  0  0  0  0
    4.6333   -0.5071    2.1175 H   0  0  0  0  0  0  0  0  0  0  0  0
    5.4226    1.0560   -0.4917 H   0  0  0  0  0  0  0  0  0  0  0  0
    5.4291    1.7360    1.1996 H   0  0  0  0  0  0  0  0  0  0  0  0
    7.0603   -0.0287    1.9077 H   0  0  0  0  0  0  0  0  0  0  0  0
    7.0658   -0.6977    0.2155 H   0  0  0  0  0  0  0  0  0  0  0  0
  1  2  2  0
  2  3  1  0
  2  4  1  0
  4  5  2  0
  5  6  1  0
  6  7  2  0
  6  8  1  0
  9 10  2  0
 10 11  1  0
 11 12  2  0
 12 13  1  0
 13 14  2  0
 14 15  1  0
 15 16  1  0
 16 17  1  0
 17 18  1  0
 18 19  1  0
 19 20  2  0
 20 21  1  0
 21 22  1  0
 22 23  2  0
 14 24  1  0
 24 25  2  0
 10 26  1  0
 26 27  1  0
 27 28  1  0
 25 11  1  0
 28 26  1  0
 23 19  1  0
  3 29  1  0
  4 30  1  0
  5 31  1  0
  8 32  1  0
 12 33  1  0
 13 34  1  0
 16 35  1  0
 16 36  1  0
 17 37  1  0
 17 38  1  0
 18 39  1  0
 18 40  1  0
 20 41  1  0
 21 42  1  0
 22 43  1  0
 24 44  1  0
 25 45  1  0
 26 46  1  0
 27 47  1  0
 27 48  1  0
 28 49  1  0
 28 50  1  0
M  END
$$$$
