
     RDKit          3D

 34 35  0  0  0  0  0  0  0  0999 V2000
   -1.7151   -2.6236   -0.1041 C   0  0  0  0  0  0  0  0  0  0  0  0
   -1.0259   -1.2951   -0.1470 C   0  0  0  0  0  0  0  0  0  0  0  0
   -1.6342   -0.0917   -0.1280 C   0  0  0  0  0  0  0  0  0  0  0  0
   -2.9786    0.2675    0.0024 N   0  0  0  0  0  0  0  0  0  0  0  0
   -3.7065   -0.1463    1.2074 C   0  0  0  0  0  0  0  0  0  0  0  0
   -3.4332    1.5711   -0.4993 C   0  0  0  0  0  0  0  0  0  0  0  0
   -0.4957    0.9032   -0.2844 C   0  0  0  0  0  0  0  0  0  0  0  0
   -0.6427    2.1180   -0.2841 O   0  0  0  0  0  0  0  0  0  0  0  0
    0.6882    0.1539   -0.3366 N   0  0  0  0  0  0  0  0  0  0  0  0
    1.9785    0.6269    0.0246 C   0  0  0  0  0  0  0  0  0  0  0  0
    2.9446   -0.2365    0.5656 C   0  0  0  0  0  0  0  0  0  0  0  0
    4.2158    0.2286    0.9182 C   0  0  0  0  0  0  0  0  0  0  0  0
    4.5420    1.5688    0.7366 C   0  0  0  0  0  0  0  0  0  0  0  0
    3.5965    2.4422    0.2080 C   0  0  0  0  0  0  0  0  0  0  0  0
    2.3251    1.9746   -0.1424 C   0  0  0  0  0  0  0  0  0  0  0  0
    0.3691   -1.2301   -0.2985 N   0  0  0  0  0  0  0  0  0  0  0  0
    0.9836   -2.0027   -1.3927 C   0  0  0  0  0  0  0  0  0  0  0  0
   -1.4367   -3.2406   -0.9640 H   0  0  0  0  0  0  0  0  0  0  0  0
   -1.4416   -3.1606    0.8095 H   0  0  0  0  0  0  0  0  0  0  0  0
   -2.8044   -2.5317   -0.1325 H   0  0  0  0  0  0  0  0  0  0  0  0
   -4.7855   -0.1446    1.0193 H   0  0  0  0  0  0  0  0  0  0  0  0
   -3.4352   -1.1539    1.5347 H   0  0  0  0  0  0  0  0  0  0  0  0
   -3.4967    0.5424    2.0335 H   0  0  0  0  0  0  0  0  0  0  0  0
   -4.5225    1.5704   -0.6187 H   0  0  0  0  0  0  0  0  0  0  0  0
   -3.1682    2.3763    0.1941 H   0  0  0  0  0  0  0  0  0  0  0  0
   -3.0066    1.7832   -1.4858 H   0  0  0  0  0  0  0  0  0  0  0  0
    2.7104   -1.2807    0.7531 H   0  0  0  0  0  0  0  0  0  0  0  0
    4.9446   -0.4563    1.3435 H   0  0  0  0  0  0  0  0  0  0  0  0
    5.5278    1.9339    1.0121 H   0  0  0  0  0  0  0  0  0  0  0  0
    3.8423    3.4916    0.0658 H   0  0  0  0  0  0  0  0  0  0  0  0
    1.6204    2.6858   -0.5655 H   0  0  0  0  0  0  0  0  0  0  0  0
    0.4929   -1.7840   -2.3483 H   0  0  0  0  0  0  0  0  0  0  0  0
    2.0494   -1.7843   -1.5062 H   0  0  0  0  0  0  0  0  0  0  0  0
    0.8983   -3.0754   -1.1902 H   0  0  0  0  0  0  0  0  0  0  0  0
  1  2  1  0
  2  3  2  0
  3  4  1  0
  4  5  1  0
  4  6  1  0
  3  7  1  0
  7  8  2  0
  7  9  1  0
  9 10  1  0
 10 11  2  0
 11 12  1  0
 12 13  2  0
 13 14  1  0
 14 15  2  0
  9 16  1  0
 16 17  1  0
 16  2  1  0
 15 10  1  0
  1 18  1  0
  1 19  1  0
  1 20  1  0
  5 21  1  0
  5 22  1  0
  5 23  1  0
  6 24  1  0
  6 25  1  0
  6 26  1  0
 11 27  1  0
 12 28  1  0
 13 29  1  0
 14 30  1  0
 15 31  1  0
 17 32  1  0
 17 33  1  0
 17 34  1  0
M  END
$$$$
