
     RDKit          3D

 46 48  0  0  0  0  0  0  0  0999 V2000
    1.6876   -1.4455   -3.6205 C   0  0  0  0  0  0  0  0  0  0  0  0
    2.3114   -1.0442   -2.3106 C   0  0  0  0  0  0  0  0  0  0  0  0
    3.3293   -0.0734   -2.3208 C   0  0  0  0  0  0  0  0  0  0  0  0
    3.9327    0.3610   -1.1370 C   0  0  0  0  0  0  0  0  0  0  0  0
    4.9643    1.4044   -1.2071 C   0  0  0  0  0  0  0  0  0  0  0  0
    6.0643    1.4188   -0.4388 C   0  0  0  0  0  0  0  0  0  0  0  0
    7.0421    2.4434   -0.5519 C   0  0  0  0  0  0  0  0  0  0  0  0
    7.8410    3.2790   -0.6431 N   0  0  0  0  0  0  0  0  0  0  0  0
    3.4905   -0.1713    0.0771 C   0  0  0  0  0  0  0  0  0  0  0  0
    2.4888   -1.1577    0.1188 C   0  0  0  0  0  0  0  0  0  0  0  0
    2.0603   -1.6873    1.4622 C   0  0  0  0  0  0  0  0  0  0  0  0
    1.8934   -1.6050   -1.0822 C   0  0  0  0  0  0  0  0  0  0  0  0
    0.8316   -2.5496   -1.0450 N   0  0  0  0  0  0  0  0  0  0  0  0
   -0.4864   -2.2306   -0.6176 C   0  0  0  0  0  0  0  0  0  0  0  0
   -1.4107   -3.2521   -0.5613 C   0  0  0  0  0  0  0  0  0  0  0  0
   -2.6636   -2.9090   -0.1232 C   0  0  0  0  0  0  0  0  0  0  0  0
   -3.0037   -1.6621    0.2384 N   0  0  0  0  0  0  0  0  0  0  0  0
   -2.0503   -0.7243    0.1686 C   0  0  0  0  0  0  0  0  0  0  0  0
   -2.2840    0.6008    0.5250 N   0  0  0  0  0  0  0  0  0  0  0  0
   -3.3908    1.3001    1.0118 C   0  0  0  0  0  0  0  0  0  0  0  0
   -3.2563    2.6757    1.2649 C   0  0  0  0  0  0  0  0  0  0  0  0
   -4.3254    3.4384    1.7499 C   0  0  0  0  0  0  0  0  0  0  0  0
   -5.5595    2.8348    1.9918 C   0  0  0  0  0  0  0  0  0  0  0  0
   -6.6591    3.6087    2.4880 C   0  0  0  0  0  0  0  0  0  0  0  0
   -7.5481    4.2378    2.8896 N   0  0  0  0  0  0  0  0  0  0  0  0
   -5.7130    1.4702    1.7451 C   0  0  0  0  0  0  0  0  0  0  0  0
   -4.6369    0.7151    1.2596 C   0  0  0  0  0  0  0  0  0  0  0  0
   -0.8011   -0.9770   -0.2480 N   0  0  0  0  0  0  0  0  0  0  0  0
    1.8930   -2.5001   -3.8299 H   0  0  0  0  0  0  0  0  0  0  0  0
    2.0866   -0.8593   -4.4552 H   0  0  0  0  0  0  0  0  0  0  0  0
    0.6058   -1.2797   -3.5950 H   0  0  0  0  0  0  0  0  0  0  0  0
    3.6500    0.3512   -3.2710 H   0  0  0  0  0  0  0  0  0  0  0  0
    4.8031    2.1812   -1.9531 H   0  0  0  0  0  0  0  0  0  0  0  0
    6.2593    0.6412    0.2909 H   0  0  0  0  0  0  0  0  0  0  0  0
    3.9145    0.1848    1.0138 H   0  0  0  0  0  0  0  0  0  0  0  0
    1.1693   -1.1580    1.8124 H   0  0  0  0  0  0  0  0  0  0  0  0
    1.8544   -2.7615    1.4182 H   0  0  0  0  0  0  0  0  0  0  0  0
    2.8522   -1.5527    2.2073 H   0  0  0  0  0  0  0  0  0  0  0  0
    0.7651   -3.0529   -1.9230 H   0  0  0  0  0  0  0  0  0  0  0  0
   -1.1666   -4.2701   -0.8303 H   0  0  0  0  0  0  0  0  0  0  0  0
   -3.4548   -3.6483   -0.0434 H   0  0  0  0  0  0  0  0  0  0  0  0
   -1.4255    1.1177    0.3969 H   0  0  0  0  0  0  0  0  0  0  0  0
   -2.3053    3.1726    1.0842 H   0  0  0  0  0  0  0  0  0  0  0  0
   -4.1827    4.5013    1.9343 H   0  0  0  0  0  0  0  0  0  0  0  0
   -6.6664    0.9775    1.9258 H   0  0  0  0  0  0  0  0  0  0  0  0
   -4.8004   -0.3438    1.0812 H   0  0  0  0  0  0  0  0  0  0  0  0
  1  2  1  0
  2  3  2  0
  3  4  1  0
  4  5  1  0
  5  6  2  0
  6  7  1  0
  7  8  3  0
  4  9  2  0
  9 10  1  0
 10 11  1  0
 10 12  2  0
 12 13  1  0
 13 14  1  0
 14 15  2  0
 15 16  1  0
 16 17  2  0
 17 18  1  0
 18 19  1  0
 19 20  1  0
 20 21  2  0
 21 22  1  0
 22 23  2  0
 23 24  1  0
 24 25  3  0
 23 26  1  0
 26 27  2  0
 18 28  2  0
 12  2  1  0
 28 14  1  0
 27 20  1  0
  1 29  1  0
  1 30  1  0
  1 31  1  0
  3 32  1  0
  5 33  1  0
  6 34  1  0
  9 35  1  0
 11 36  1  0
 11 37  1  0
 11 38  1  0
 13 39  1  0
 15 40  1  0
 16 41  1  0
 19 42  1  0
 21 43  1  0
 22 44  1  0
 26 45  1  0
 27 46  1  0
M  END
$$$$
