
     RDKit          3D

 21 22  0  0  0  0  0  0  0  0999 V2000
    3.7148    1.0732    1.3075 O   0  0  0  0  0  0  0  0  0  0  0  0
    2.8878    0.5111    0.6133 C   0  0  0  0  0  0  0  0  0  0  0  0
    2.8630    0.4857   -0.7391 N   0  0  0  0  0  0  0  0  0  0  0  0
    1.8102   -0.2514   -1.1923 C   0  0  0  0  0  0  0  0  0  0  0  0
    1.5619   -0.4597   -2.3708 O   0  0  0  0  0  0  0  0  0  0  0  0
    1.0317   -0.7757    0.0196 C   0  0  0  0  0  0  0  0  0  0  0  0
   -0.4156   -0.3543    0.0470 C   0  0  0  0  0  0  0  0  0  0  0  0
   -0.8155    0.9234    0.4727 C   0  0  0  0  0  0  0  0  0  0  0  0
   -2.1639    1.2867    0.4696 C   0  0  0  0  0  0  0  0  0  0  0  0
   -3.1299    0.3833    0.0338 C   0  0  0  0  0  0  0  0  0  0  0  0
   -2.7493   -0.8828   -0.4035 C   0  0  0  0  0  0  0  0  0  0  0  0
   -1.4017   -1.2484   -0.4006 C   0  0  0  0  0  0  0  0  0  0  0  0
    1.8188   -0.2074    1.0861 N   0  0  0  0  0  0  0  0  0  0  0  0
    3.5417    0.9384   -1.3261 H   0  0  0  0  0  0  0  0  0  0  0  0
    1.1436   -1.8635    0.0815 H   0  0  0  0  0  0  0  0  0  0  0  0
   -0.0815    1.6529    0.8098 H   0  0  0  0  0  0  0  0  0  0  0  0
   -2.4596    2.2783    0.8033 H   0  0  0  0  0  0  0  0  0  0  0  0
   -4.1787    0.6686    0.0282 H   0  0  0  0  0  0  0  0  0  0  0  0
   -3.5019   -1.5848   -0.7539 H   0  0  0  0  0  0  0  0  0  0  0  0
   -1.1273   -2.2387   -0.7598 H   0  0  0  0  0  0  0  0  0  0  0  0
    1.6516   -0.3348    2.0746 H   0  0  0  0  0  0  0  0  0  0  0  0
  1  2  2  0
  2  3  1  0
  3  4  1  0
  4  5  2  0
  4  6  1  0
  6  7  1  0
  7  8  2  0
  8  9  1  0
  9 10  2  0
 10 11  1  0
 11 12  2  0
  6 13  1  0
 13  2  1  0
 12  7  1  0
  3 14  1  0
  6 15  1  0
  8 16  1  0
  9 17  1  0
 10 18  1  0
 11 19  1  0
 12 20  1  0
 13 21  1  0
M  END
$$$$
