
     RDKit          3D

 55 57  0  0  0  0  0  0  0  0999 V2000
   -6.5294    3.0665    1.1581 C   0  0  0  0  0  0  0  0  0  0  0  0
   -5.1919    2.8606    1.5863 O   0  0  0  0  0  0  0  0  0  0  0  0
   -4.5117    1.9127    0.7722 C   0  0  0  0  0  0  0  0  0  0  0  0
   -3.0475    1.6879    1.1992 C   0  0  0  0  0  0  0  0  0  0  0  0
   -2.5068    2.4204    2.0320 O   0  0  0  0  0  0  0  0  0  0  0  0
   -2.3484    0.6051    0.6213 N   0  0  0  0  0  0  0  0  0  0  0  0
   -2.8655   -0.1432   -0.5552 C   0  0  0  0  0  0  0  0  0  0  0  0
   -1.9938   -0.0560   -1.8109 C   0  0  0  0  0  0  0  0  0  0  0  0
   -2.6509   -0.7823   -2.9855 C   0  0  0  0  0  0  0  0  0  0  0  0
   -3.5597   -1.8089   -2.5870 O   0  0  0  0  0  0  0  0  0  0  0  0
   -3.1390   -2.5014   -1.4179 C   0  0  0  0  0  0  0  0  0  0  0  0
   -3.2751   -1.5839   -0.2113 C   0  0  0  0  0  0  0  0  0  0  0  0
   -0.9769    0.4099    1.1414 C   0  0  0  0  0  0  0  0  0  0  0  0
   -0.3444   -0.9851    1.0845 C   0  0  0  0  0  0  0  0  0  0  0  0
    1.1344   -0.6948    1.3121 C   0  0  0  0  0  0  0  0  0  0  0  0
    1.3482    0.6049    0.6959 N   0  0  0  0  0  0  0  0  0  0  0  0
    2.5285    1.1160    0.1935 C   0  0  0  0  0  0  0  0  0  0  0  0
    2.5821    2.1288   -0.4981 O   0  0  0  0  0  0  0  0  0  0  0  0
    3.7848    0.3934    0.4865 C   0  0  0  0  0  0  0  0  0  0  0  0
    4.1843    0.1590    1.8044 C   0  0  0  0  0  0  0  0  0  0  0  0
    5.3784   -0.5168    2.0490 C   0  0  0  0  0  0  0  0  0  0  0  0
    6.1765   -0.9435    0.9813 C   0  0  0  0  0  0  0  0  0  0  0  0
    5.7891   -0.6881   -0.3367 C   0  0  0  0  0  0  0  0  0  0  0  0
    6.4796   -1.0493   -1.4607 O   0  0  0  0  0  0  0  0  0  0  0  0
    7.7574   -1.6427   -1.2688 C   0  0  0  0  0  0  0  0  0  0  0  0
    4.5915   -0.0133   -0.5806 C   0  0  0  0  0  0  0  0  0  0  0  0
    0.0904    1.3105    0.4949 C   0  0  0  0  0  0  0  0  0  0  0  0
   -6.5505    3.4464    0.1321 H   0  0  0  0  0  0  0  0  0  0  0  0
   -7.1017    2.1366    1.2278 H   0  0  0  0  0  0  0  0  0  0  0  0
   -6.9901    3.8104    1.8136 H   0  0  0  0  0  0  0  0  0  0  0  0
   -5.0434    0.9581    0.8396 H   0  0  0  0  0  0  0  0  0  0  0  0
   -4.5056    2.2817   -0.2592 H   0  0  0  0  0  0  0  0  0  0  0  0
   -3.7960    0.3421   -0.8636 H   0  0  0  0  0  0  0  0  0  0  0  0
   -1.8010    0.9867   -2.0884 H   0  0  0  0  0  0  0  0  0  0  0  0
   -1.0118   -0.5048   -1.6428 H   0  0  0  0  0  0  0  0  0  0  0  0
   -3.2237   -0.0704   -3.5900 H   0  0  0  0  0  0  0  0  0  0  0  0
   -1.8886   -1.2182   -3.6408 H   0  0  0  0  0  0  0  0  0  0  0  0
   -2.1086   -2.8548   -1.5447 H   0  0  0  0  0  0  0  0  0  0  0  0
   -3.7744   -3.3836   -1.2912 H   0  0  0  0  0  0  0  0  0  0  0  0
   -4.3256   -1.5649    0.1086 H   0  0  0  0  0  0  0  0  0  0  0  0
   -2.7262   -2.0048    0.6348 H   0  0  0  0  0  0  0  0  0  0  0  0
   -1.0020    0.6680    2.2108 H   0  0  0  0  0  0  0  0  0  0  0  0
   -0.4643   -1.4679    0.1126 H   0  0  0  0  0  0  0  0  0  0  0  0
   -0.7469   -1.6609    1.8451 H   0  0  0  0  0  0  0  0  0  0  0  0
    1.3507   -0.6005    2.3816 H   0  0  0  0  0  0  0  0  0  0  0  0
    1.7812   -1.4607    0.8759 H   0  0  0  0  0  0  0  0  0  0  0  0
    3.5817    0.5161    2.6352 H   0  0  0  0  0  0  0  0  0  0  0  0
    5.6970   -0.7039    3.0720 H   0  0  0  0  0  0  0  0  0  0  0  0
    7.0986   -1.4662    1.2130 H   0  0  0  0  0  0  0  0  0  0  0  0
    7.6702   -2.6083   -0.7597 H   0  0  0  0  0  0  0  0  0  0  0  0
    8.1926   -1.8251   -2.2558 H   0  0  0  0  0  0  0  0  0  0  0  0
    8.4306   -0.9696   -0.7280 H   0  0  0  0  0  0  0  0  0  0  0  0
    4.2878    0.2014   -1.6019 H   0  0  0  0  0  0  0  0  0  0  0  0
    0.1428    2.2979    0.9648 H   0  0  0  0  0  0  0  0  0  0  0  0
   -0.0569    1.4531   -0.5786 H   0  0  0  0  0  0  0  0  0  0  0  0
  1  2  1  0
  2  3  1  0
  3  4  1  0
  4  5  2  0
  4  6  1  0
  6  7  1  0
  7  8  1  0
  8  9  1  0
  9 10  1  0
 10 11  1  0
 11 12  1  0
  6 13  1  0
 13 14  1  0
 14 15  1  0
 15 16  1  0
 16 17  1  0
 17 18  2  0
 17 19  1  0
 19 20  2  0
 20 21  1  0
 21 22  2  0
 22 23  1  0
 23 24  1  0
 24 25  1  0
 23 26  2  0
 16 27  1  0
 12  7  1  0
 27 13  1  0
 26 19  1  0
  1 28  1  0
  1 29  1  0
  1 30  1  0
  3 31  1  0
  3 32  1  0
  7 33  1  0
  8 34  1  0
  8 35  1  0
  9 36  1  0
  9 37  1  0
 11 38  1  0
 11 39  1  0
 12 40  1  0
 12 41  1  0
 13 42  1  0
 14 43  1  0
 14 44  1  0
 15 45  1  0
 15 46  1  0
 20 47  1  0
 21 48  1  0
 22 49  1  0
 25 50  1  0
 25 51  1  0
 25 52  1  0
 26 53  1  0
 27 54  1  0
 27 55  1  0
M  END
$$$$
