
     RDKit          3D

 43 44  0  0  0  0  0  0  0  0999 V2000
    7.3893   -0.4645    0.9573 C   0  0  0  0  0  0  0  0  0  0  0  0
    6.0213   -0.0653    0.5654 C   0  0  0  0  0  0  0  0  0  0  0  0
    5.4909    1.1419    0.6395 N   0  0  0  0  0  0  0  0  0  0  0  0
    4.1955    1.0714    0.1722 N   0  0  0  0  0  0  0  0  0  0  0  0
    3.9689   -0.1742   -0.1747 C   0  0  0  0  0  0  0  0  0  0  0  0
    2.5021   -0.8265   -0.8137 S   0  0  0  0  0  0  0  0  0  0  0  0
    1.6126    0.7133   -1.1848 C   0  0  0  0  0  0  0  0  0  0  0  0
    0.2368    0.3726   -1.7245 C   0  0  0  0  0  0  0  0  0  0  0  0
    0.0157    0.2342   -2.9247 O   0  0  0  0  0  0  0  0  0  0  0  0
   -0.7311    0.2111   -0.7507 N   0  0  0  0  0  0  0  0  0  0  0  0
   -2.1302   -0.0372   -1.0871 C   0  0  0  0  0  0  0  0  0  0  0  0
   -2.8100    1.3035   -1.4263 C   0  0  0  0  0  0  0  0  0  0  0  0
   -4.2849    1.3147   -1.0593 C   0  0  0  0  0  0  0  0  0  0  0  0
   -4.4976    1.0790    0.4368 C   0  0  0  0  0  0  0  0  0  0  0  0
   -3.4513    0.1437    1.0818 C   0  0  0  0  0  0  0  0  0  0  0  0
   -4.0695   -0.5538    2.2955 C   0  0  0  0  0  0  0  0  0  0  0  0
   -2.8728   -0.8284    0.0279 C   0  0  0  0  0  0  0  0  0  0  0  0
   -2.0030   -1.9433    0.6192 C   0  0  0  0  0  0  0  0  0  0  0  0
    5.0890   -0.9321    0.0527 N   0  0  0  0  0  0  0  0  0  0  0  0
    5.2735   -2.3332   -0.1932 N   0  0  0  0  0  0  0  0  0  0  0  0
    7.9474    0.3984    1.3340 H   0  0  0  0  0  0  0  0  0  0  0  0
    7.9361   -0.8718    0.1013 H   0  0  0  0  0  0  0  0  0  0  0  0
    7.3625   -1.2202    1.7485 H   0  0  0  0  0  0  0  0  0  0  0  0
    1.5126    1.3294   -0.2851 H   0  0  0  0  0  0  0  0  0  0  0  0
    2.1497    1.2958   -1.9404 H   0  0  0  0  0  0  0  0  0  0  0  0
   -0.5126    0.4931    0.1967 H   0  0  0  0  0  0  0  0  0  0  0  0
   -2.1400   -0.6636   -1.9892 H   0  0  0  0  0  0  0  0  0  0  0  0
   -2.6891    1.5138   -2.4959 H   0  0  0  0  0  0  0  0  0  0  0  0
   -2.3140    2.1293   -0.8983 H   0  0  0  0  0  0  0  0  0  0  0  0
   -4.7404    2.2689   -1.3482 H   0  0  0  0  0  0  0  0  0  0  0  0
   -4.8063    0.5369   -1.6312 H   0  0  0  0  0  0  0  0  0  0  0  0
   -5.5126    0.6867    0.5785 H   0  0  0  0  0  0  0  0  0  0  0  0
   -4.4704    2.0417    0.9634 H   0  0  0  0  0  0  0  0  0  0  0  0
   -2.6288    0.7685    1.4569 H   0  0  0  0  0  0  0  0  0  0  0  0
   -4.8388   -1.2714    1.9910 H   0  0  0  0  0  0  0  0  0  0  0  0
   -4.5336    0.1769    2.9669 H   0  0  0  0  0  0  0  0  0  0  0  0
   -3.3112   -1.0888    2.8756 H   0  0  0  0  0  0  0  0  0  0  0  0
   -3.7263   -1.3317   -0.4503 H   0  0  0  0  0  0  0  0  0  0  0  0
   -1.5314   -2.5315   -0.1755 H   0  0  0  0  0  0  0  0  0  0  0  0
   -1.2155   -1.5435    1.2663 H   0  0  0  0  0  0  0  0  0  0  0  0
   -2.6065   -2.6359    1.2150 H   0  0  0  0  0  0  0  0  0  0  0  0
    4.4972   -2.8616    0.2057 H   0  0  0  0  0  0  0  0  0  0  0  0
    5.2267   -2.5189   -1.1953 H   0  0  0  0  0  0  0  0  0  0  0  0
  1  2  1  0
  2  3  2  0
  3  4  1  0
  4  5  2  0
  5  6  1  0
  6  7  1  0
  7  8  1  0
  8  9  2  0
  8 10  1  0
 10 11  1  0
 11 12  1  0
 12 13  1  0
 13 14  1  0
 14 15  1  0
 15 16  1  0
 15 17  1  0
 17 18  1  0
  5 19  1  0
 19 20  1  0
 19  2  1  0
 17 11  1  0
  1 21  1  0
  1 22  1  0
  1 23  1  0
  7 24  1  0
  7 25  1  0
 10 26  1  0
 11 27  1  0
 12 28  1  0
 12 29  1  0
 13 30  1  0
 13 31  1  0
 14 32  1  0
 14 33  1  0
 15 34  1  0
 16 35  1  0
 16 36  1  0
 16 37  1  0
 17 38  1  0
 18 39  1  0
 18 40  1  0
 18 41  1  0
 20 42  1  0
 20 43  1  0
M  END
$$$$
