
     RDKit          3D

 46 49  0  0  0  0  0  0  0  0999 V2000
   -0.9395   -1.5984    2.0766 O   0  0  0  0  0  0  0  0  0  0  0  0
   -1.1009   -1.2791    0.8981 C   0  0  0  0  0  0  0  0  0  0  0  0
   -2.4426   -0.8384    0.4482 C   0  0  0  0  0  0  0  0  0  0  0  0
   -2.9686    0.2080    1.1030 C   0  0  0  0  0  0  0  0  0  0  0  0
   -4.2878    0.6986    0.7434 C   0  0  0  0  0  0  0  0  0  0  0  0
   -4.8763    1.7894    1.3859 C   0  0  0  0  0  0  0  0  0  0  0  0
   -6.1481    2.2250    0.9995 C   0  0  0  0  0  0  0  0  0  0  0  0
   -6.8351    1.5733   -0.0277 C   0  0  0  0  0  0  0  0  0  0  0  0
   -6.2540    0.4828   -0.6720 C   0  0  0  0  0  0  0  0  0  0  0  0
   -4.9876    0.0602   -0.2765 C   0  0  0  0  0  0  0  0  0  0  0  0
   -4.4338   -1.0460   -0.9475 O   0  0  0  0  0  0  0  0  0  0  0  0
   -3.1776   -1.5475   -0.6160 C   0  0  0  0  0  0  0  0  0  0  0  0
   -2.7119   -2.5182   -1.2023 O   0  0  0  0  0  0  0  0  0  0  0  0
   -0.0597   -1.2584   -0.0125 N   0  0  0  0  0  0  0  0  0  0  0  0
   -0.1210   -0.7230   -1.3807 C   0  0  0  0  0  0  0  0  0  0  0  0
    1.2164   -0.1031   -1.8116 C   0  0  0  0  0  0  0  0  0  0  0  0
    2.3290   -1.0874   -1.7329 N   0  0  0  0  0  0  0  0  0  0  0  0
    3.8988   -0.5011   -1.9755 S   0  0  0  0  0  6  0  0  0  0  0  0
    4.7936   -1.6350   -2.0681 O   0  0  0  0  0  0  0  0  0  0  0  0
    3.8416    0.4977   -3.0224 O   0  0  0  0  0  0  0  0  0  0  0  0
    4.2634    0.3441   -0.4498 C   0  0  0  0  0  0  0  0  0  0  0  0
    3.9976    1.7123   -0.3343 C   0  0  0  0  0  0  0  0  0  0  0  0
    4.3017    2.3741    0.8553 C   0  0  0  0  0  0  0  0  0  0  0  0
    4.8837    1.6754    1.9142 C   0  0  0  0  0  0  0  0  0  0  0  0
    5.1754    0.3166    1.7847 C   0  0  0  0  0  0  0  0  0  0  0  0
    4.8749   -0.3519    0.5981 C   0  0  0  0  0  0  0  0  0  0  0  0
    2.1336   -2.1969   -0.7578 C   0  0  0  0  0  0  0  0  0  0  0  0
    1.2411   -1.7791    0.4167 C   0  0  0  0  0  0  0  0  0  0  0  0
   -2.4331    0.7016    1.9090 H   0  0  0  0  0  0  0  0  0  0  0  0
   -4.3598    2.3087    2.1898 H   0  0  0  0  0  0  0  0  0  0  0  0
   -6.6059    3.0739    1.5025 H   0  0  0  0  0  0  0  0  0  0  0  0
   -7.8244    1.9152   -0.3224 H   0  0  0  0  0  0  0  0  0  0  0  0
   -6.7829   -0.0314   -1.4692 H   0  0  0  0  0  0  0  0  0  0  0  0
   -0.9128    0.0275   -1.4591 H   0  0  0  0  0  0  0  0  0  0  0  0
   -0.3743   -1.5588   -2.0428 H   0  0  0  0  0  0  0  0  0  0  0  0
    1.1273    0.2516   -2.8438 H   0  0  0  0  0  0  0  0  0  0  0  0
    1.4291    0.7536   -1.1646 H   0  0  0  0  0  0  0  0  0  0  0  0
    3.5634    2.2674   -1.1628 H   0  0  0  0  0  0  0  0  0  0  0  0
    4.0960    3.4373    0.9550 H   0  0  0  0  0  0  0  0  0  0  0  0
    5.1252    2.1952    2.8387 H   0  0  0  0  0  0  0  0  0  0  0  0
    5.6479   -0.2175    2.6060 H   0  0  0  0  0  0  0  0  0  0  0  0
    5.1278   -1.4049    0.4963 H   0  0  0  0  0  0  0  0  0  0  0  0
    3.0872   -2.5706   -0.3746 H   0  0  0  0  0  0  0  0  0  0  0  0
    1.6689   -3.0290   -1.3009 H   0  0  0  0  0  0  0  0  0  0  0  0
    1.7236   -0.9828    0.9958 H   0  0  0  0  0  0  0  0  0  0  0  0
    1.0906   -2.6310    1.0893 H   0  0  0  0  0  0  0  0  0  0  0  0
  1  2  2  0
  2  3  1  0
  3  4  2  0
  4  5  1  0
  5  6  2  0
  6  7  1  0
  7  8  2  0
  8  9  1  0
  9 10  2  0
 10 11  1  0
 11 12  1  0
 12 13  2  0
  2 14  1  0
 14 15  1  0
 15 16  1  0
 16 17  1  0
 17 18  1  0
 18 19  2  0
 18 20  2  0
 18 21  1  0
 21 22  2  0
 22 23  1  0
 23 24  2  0
 24 25  1  0
 25 26  2  0
 17 27  1  0
 27 28  1  0
 12  3  1  0
 28 14  1  0
 10  5  1  0
 26 21  1  0
  4 29  1  0
  6 30  1  0
  7 31  1  0
  8 32  1  0
  9 33  1  0
 15 34  1  0
 15 35  1  0
 16 36  1  0
 16 37  1  0
 22 38  1  0
 23 39  1  0
 24 40  1  0
 25 41  1  0
 26 42  1  0
 27 43  1  0
 27 44  1  0
 28 45  1  0
 28 46  1  0
M  END
$$$$
