
     RDKit          3D

 50 54  0  0  0  0  0  0  0  0999 V2000
    7.8219    0.3061    0.2515 C   0  0  0  0  0  0  0  0  0  0  0  0
    6.6111   -0.4906    0.4047 N   0  0  0  0  0  0  0  0  0  0  0  0
    6.0060   -0.8107   -0.9093 C   0  0  0  0  0  0  0  0  0  0  0  0
    4.8414    0.1158   -1.3639 C   0  0  0  0  0  0  0  0  0  0  0  0
    3.7745    0.1692   -0.3429 N   0  0  0  0  0  0  0  0  0  0  0  0
    2.4466    0.2893   -0.7286 C   0  0  0  0  0  0  0  0  0  0  0  0
    2.0869    1.0634   -1.8510 C   0  0  0  0  0  0  0  0  0  0  0  0
    0.7540    1.2421   -2.2630 C   0  0  0  0  0  0  0  0  0  0  0  0
   -0.2533    0.6124   -1.5312 C   0  0  0  0  0  0  0  0  0  0  0  0
   -1.6168    0.6620   -1.6968 N   0  0  0  0  0  0  0  0  0  0  0  0
   -2.1057   -0.1318   -0.7475 C   0  0  0  0  0  0  0  0  0  0  0  0
   -3.4458   -0.4155   -0.3805 C   0  0  0  0  0  0  0  0  0  0  0  0
   -4.1802    0.5282    0.2645 C   0  0  0  0  0  0  0  0  0  0  0  0
   -3.6853    1.7789    0.6462 N   0  0  0  0  0  0  0  0  0  0  0  0
   -5.5934    0.2123    0.6205 C   0  0  0  0  0  0  0  0  0  0  0  0
   -6.4634    1.1132    1.2647 C   0  0  0  0  0  0  0  0  0  0  0  0
   -6.0548    2.3549    1.6010 F   0  0  0  0  0  0  0  0  0  0  0  0
   -7.7767    0.7664    1.5882 C   0  0  0  0  0  0  0  0  0  0  0  0
   -8.2554   -0.5050    1.2754 C   0  0  0  0  0  0  0  0  0  0  0  0
   -7.4180   -1.4218    0.6326 C   0  0  0  0  0  0  0  0  0  0  0  0
   -6.1054   -1.0579    0.3067 C   0  0  0  0  0  0  0  0  0  0  0  0
   -5.2934   -1.9994   -0.3361 N   0  0  0  0  0  0  0  0  0  0  0  0
   -3.9951   -1.7750   -0.6897 C   0  0  0  0  0  0  0  0  0  0  0  0
   -3.3225   -2.6706   -1.2070 O   0  0  0  0  0  0  0  0  0  0  0  0
   -1.0940   -0.6748    0.0221 N   0  0  0  0  0  0  0  0  0  0  0  0
    0.0980   -0.1732   -0.4364 C   0  0  0  0  0  0  0  0  0  0  0  0
    1.4174   -0.3379   -0.0026 C   0  0  0  0  0  0  0  0  0  0  0  0
    4.1616   -0.1875    1.0389 C   0  0  0  0  0  0  0  0  0  0  0  0
    5.6360    0.2098    1.2912 C   0  0  0  0  0  0  0  0  0  0  0  0
    7.6106    1.2887   -0.2018 H   0  0  0  0  0  0  0  0  0  0  0  0
    8.5605   -0.2241   -0.3827 H   0  0  0  0  0  0  0  0  0  0  0  0
    8.2994    0.4659    1.2359 H   0  0  0  0  0  0  0  0  0  0  0  0
    5.6106   -1.8314   -0.8241 H   0  0  0  0  0  0  0  0  0  0  0  0
    6.7692   -0.8636   -1.6998 H   0  0  0  0  0  0  0  0  0  0  0  0
    4.4606   -0.2814   -2.3152 H   0  0  0  0  0  0  0  0  0  0  0  0
    5.2162    1.1303   -1.5465 H   0  0  0  0  0  0  0  0  0  0  0  0
    2.8526    1.5913   -2.4124 H   0  0  0  0  0  0  0  0  0  0  0  0
    0.5077    1.8743   -3.1152 H   0  0  0  0  0  0  0  0  0  0  0  0
   -4.4157    2.5052    0.7140 H   0  0  0  0  0  0  0  0  0  0  0  0
   -2.9342    2.1022    0.0300 H   0  0  0  0  0  0  0  0  0  0  0  0
   -8.4090    1.4843    2.0991 H   0  0  0  0  0  0  0  0  0  0  0  0
   -9.2739   -0.7875    1.5370 H   0  0  0  0  0  0  0  0  0  0  0  0
   -7.7901   -2.4345    0.4051 H   0  0  0  0  0  0  0  0  0  0  0  0
   -5.6411   -2.9181   -0.5544 H   0  0  0  0  0  0  0  0  0  0  0  0
   -1.2093   -1.3248    0.7895 H   0  0  0  0  0  0  0  0  0  0  0  0
    1.6294   -0.9553    0.8697 H   0  0  0  0  0  0  0  0  0  0  0  0
    3.5340    0.3655    1.7584 H   0  0  0  0  0  0  0  0  0  0  0  0
    4.0256   -1.2687    1.2104 H   0  0  0  0  0  0  0  0  0  0  0  0
    5.8981    0.0101    2.3365 H   0  0  0  0  0  0  0  0  0  0  0  0
    5.7027    1.2993    1.1441 H   0  0  0  0  0  0  0  0  0  0  0  0
  1  2  1  0
  2  3  1  0
  3  4  1  0
  4  5  1  0
  5  6  1  0
  6  7  2  0
  7  8  1  0
  8  9  2  0
  9 10  1  0
 10 11  2  0
 11 12  1  0
 12 13  2  0
 13 14  1  0
 13 15  1  0
 15 16  2  0
 16 17  1  0
 16 18  1  0
 18 19  2  0
 19 20  1  0
 20 21  2  0
 21 22  1  0
 22 23  1  0
 23 24  2  0
 11 25  1  0
 25 26  1  0
 26 27  2  0
  5 28  1  0
 28 29  1  0
 29  2  1  0
 27  6  1  0
 26  9  1  0
 23 12  1  0
 21 15  1  0
  1 30  1  0
  1 31  1  0
  1 32  1  0
  3 33  1  0
  3 34  1  0
  4 35  1  0
  4 36  1  0
  7 37  1  0
  8 38  1  0
 14 39  1  0
 14 40  1  0
 18 41  1  0
 19 42  1  0
 20 43  1  0
 22 44  1  0
 25 45  1  0
 27 46  1  0
 28 47  1  0
 28 48  1  0
 29 49  1  0
 29 50  1  0
M  END
$$$$
