
     RDKit          3D

 45 45  0  0  0  0  0  0  0  0999 V2000
   -1.9402   -1.2010   -2.5409 C   0  0  0  0  0  0  0  0  0  0  0  0
   -2.0796    0.2169   -2.0313 C   0  0  0  0  0  0  0  0  0  0  0  0
   -1.3455    0.4012   -0.6988 C   0  0  0  0  0  0  0  0  0  0  0  0
   -1.8340   -0.4513    0.3241 N   0  0  0  0  0  0  0  0  0  0  0  0
   -3.1829   -0.2615    0.6956 C   0  0  0  0  0  0  0  0  0  0  0  0
   -3.5232    1.0706    1.2746 C   0  0  0  0  0  0  0  0  0  0  0  0
   -3.5585   -1.3362    1.7120 C   0  0  0  0  0  0  0  0  0  0  0  0
    0.1128    0.0518   -1.0197 C   0  0  0  0  0  0  0  0  0  0  0  0
    0.4312    0.9782   -2.0462 O   0  0  0  0  0  0  0  0  0  0  0  0
    1.0082    0.3399    0.1106 C   0  0  0  0  0  0  0  0  0  0  0  0
    0.5791    0.8833    1.3035 C   0  0  0  0  0  0  0  0  0  0  0  0
    1.4701    1.1297    2.3240 C   0  0  0  0  0  0  0  0  0  0  0  0
    2.8029    0.8362    2.1660 C   0  0  0  0  0  0  0  0  0  0  0  0
    3.7335    1.0673    3.1651 O   0  0  0  0  0  0  0  0  0  0  0  0
    3.2423    0.2856    0.9593 C   0  0  0  0  0  0  0  0  0  0  0  0
    4.5621   -0.0071    0.7970 N   0  0  0  0  0  0  0  0  0  0  0  0
    4.9718   -0.5348   -0.3657 C   0  0  0  0  0  0  0  0  0  0  0  0
    6.3241   -0.8564   -0.5880 O   0  0  0  0  0  0  0  0  0  0  0  0
    4.1176   -0.7981   -1.4130 C   0  0  0  0  0  0  0  0  0  0  0  0
    2.7873   -0.5150   -1.2797 C   0  0  0  0  0  0  0  0  0  0  0  0
    2.3559    0.0349   -0.0701 C   0  0  0  0  0  0  0  0  0  0  0  0
    0.6893    0.0000    0.0000 Cl  0  0  0  0  0  0  0  0  0  0  0  0
   -2.2796   -1.9560   -1.8063 H   0  0  0  0  0  0  0  0  0  0  0  0
   -2.6725   -1.2770   -3.3981 H   0  0  0  0  0  0  0  0  0  0  0  0
   -0.9554   -1.4107   -2.9813 H   0  0  0  0  0  0  0  0  0  0  0  0
   -3.1441    0.4339   -1.9461 H   0  0  0  0  0  0  0  0  0  0  0  0
   -1.5523    0.8750   -2.7515 H   0  0  0  0  0  0  0  0  0  0  0  0
   -1.3501    1.4671   -0.4485 H   0  0  0  0  0  0  0  0  0  0  0  0
   -1.6733   -1.4432    0.0711 H   0  0  0  0  0  0  0  0  0  0  0  0
   -3.8177   -0.4720   -0.1938 H   0  0  0  0  0  0  0  0  0  0  0  0
   -3.8038    1.8309    0.4924 H   0  0  0  0  0  0  0  0  0  0  0  0
   -2.7784    1.4797    1.9580 H   0  0  0  0  0  0  0  0  0  0  0  0
   -4.4670    0.9527    1.8853 H   0  0  0  0  0  0  0  0  0  0  0  0
   -3.1889   -0.9928    2.6949 H   0  0  0  0  0  0  0  0  0  0  0  0
   -3.1720   -2.3249    1.4246 H   0  0  0  0  0  0  0  0  0  0  0  0
   -4.6816   -1.3672    1.7937 H   0  0  0  0  0  0  0  0  0  0  0  0
    0.1859   -0.9855   -1.3402 H   0  0  0  0  0  0  0  0  0  0  0  0
    0.7749    1.7824   -1.6250 H   0  0  0  0  0  0  0  0  0  0  0  0
   -0.4650    1.1231    1.4492 H   0  0  0  0  0  0  0  0  0  0  0  0
    1.1412    1.5631    3.2798 H   0  0  0  0  0  0  0  0  0  0  0  0
    3.4060    1.4668    4.0366 H   0  0  0  0  0  0  0  0  0  0  0  0
    6.9410   -0.1553   -0.9513 H   0  0  0  0  0  0  0  0  0  0  0  0
    4.4629   -1.2299   -2.3599 H   0  0  0  0  0  0  0  0  0  0  0  0
    2.0548   -0.6942   -2.0619 H   0  0  0  0  0  0  0  0  0  0  0  0
   -0.6893    0.0000    0.0000 H   0  0  0  0  0  0  0  0  0  0  0  0
  1  2  1  0
  2  3  1  0
  3  4  1  0
  4  5  1  0
  5  6  1  0
  5  7  1  0
  3  8  1  0
  8  9  1  0
  8 10  1  0
 10 11  2  0
 11 12  1  0
 12 13  2  0
 13 14  1  0
 13 15  1  0
 15 16  2  0
 16 17  1  0
 17 18  1  0
 17 19  2  0
 19 20  1  0
 20 21  2  0
 21 10  1  0
 21 15  1  0
  1 23  1  0
  1 24  1  0
  1 25  1  0
  2 26  1  0
  2 27  1  0
  3 28  1  0
  4 29  1  0
  5 30  1  0
  6 31  1  0
  6 32  1  0
  6 33  1  0
  7 34  1  0
  7 35  1  0
  7 36  1  0
  8 37  1  0
  9 38  1  0
 11 39  1  0
 12 40  1  0
 14 41  1  0
 18 42  1  0
 19 43  1  0
 20 44  1  0
 22 45  1  0
M  END
$$$$
