
     RDKit          3D

 51 53  0  0  0  0  0  0  0  0999 V2000
    2.9280    6.0057   -0.1080 C   0  0  0  0  0  0  0  0  0  0  0  0
    2.9954    4.5843   -0.4978 C   0  0  0  0  0  0  0  0  0  0  0  0
    4.1524    3.9375   -0.6711 N   0  0  0  0  0  0  0  0  0  0  0  0
    3.7253    2.7061   -0.9952 N   0  0  0  0  0  0  0  0  0  0  0  0
    2.3580    2.6388   -1.0246 C   0  0  0  0  0  0  0  0  0  0  0  0
    1.6224    1.3983   -1.4183 C   0  0  2  0  0  0  0  0  0  0  0  0
    0.1060    1.6344   -1.4599 C   0  0  0  0  0  0  0  0  0  0  0  0
   -0.4648    0.2558   -1.1639 C   0  0  2  0  0  0  0  0  0  0  0  0
   -1.8443    0.2994   -0.7226 N   0  0  0  0  0  0  0  0  0  0  0  0
   -2.5925   -0.8573   -0.6468 C   0  0  0  0  0  0  0  0  0  0  0  0
   -2.1675   -1.9490   -1.0047 O   0  0  0  0  0  0  0  0  0  0  0  0
   -3.9665   -0.6374   -0.0376 C   0  0  0  0  0  0  0  0  0  0  0  0
   -4.9308   -1.8104   -0.2711 C   0  0  0  0  0  0  0  0  0  0  0  0
   -6.1489   -1.6815    0.6453 C   0  0  0  0  0  0  0  0  0  0  0  0
   -5.3845   -1.8739   -1.7316 C   0  0  0  0  0  0  0  0  0  0  0  0
    0.5114   -0.2914   -0.1141 C   0  0  0  0  0  0  0  0  0  0  0  0
    1.7976    0.3119   -0.4536 N   0  0  0  0  0  0  0  0  0  0  0  0
    3.0269   -0.3218   -0.2895 C   0  0  0  0  0  0  0  0  0  0  0  0
    4.0001    0.0343   -0.9631 O   0  0  0  0  0  0  0  0  0  0  0  0
    3.1642   -1.4005    0.7118 C   0  0  0  0  0  0  0  0  0  0  0  0
    4.2663   -2.2956    0.8133 C   0  0  0  0  0  0  0  0  0  0  0  0
    3.9920   -3.1067    1.8872 C   0  0  0  0  0  0  0  0  0  0  0  0
    2.7992   -2.6752    2.3785 N   0  0  0  0  0  0  0  0  0  0  0  0
    2.0976   -3.1923    3.5283 C   0  0  0  0  0  0  0  0  0  0  0  0
    2.2786   -1.6396    1.6985 N   0  0  0  0  0  0  0  0  0  0  0  0
    1.8738    3.8253   -0.7100 N   0  0  0  0  0  0  0  0  0  0  0  0
    3.6213    6.6066   -0.7043 H   0  0  0  0  0  0  0  0  0  0  0  0
    3.1853    6.1259    0.9487 H   0  0  0  0  0  0  0  0  0  0  0  0
    1.9193    6.4028   -0.2608 H   0  0  0  0  0  0  0  0  0  0  0  0
    4.3904    1.9536   -1.1608 H   0  0  0  0  0  0  0  0  0  0  0  0
    1.9750    1.0439   -2.3956 H   0  0  0  0  0  0  0  0  0  0  0  0
   -0.2203    2.3445   -0.6880 H   0  0  0  0  0  0  0  0  0  0  0  0
   -0.2260    2.0306   -2.4258 H   0  0  0  0  0  0  0  0  0  0  0  0
   -0.4073   -0.3643   -2.0684 H   0  0  0  0  0  0  0  0  0  0  0  0
   -2.1608    1.1080   -0.2013 H   0  0  0  0  0  0  0  0  0  0  0  0
   -3.8079   -0.4984    1.0391 H   0  0  0  0  0  0  0  0  0  0  0  0
   -4.3948    0.2915   -0.4343 H   0  0  0  0  0  0  0  0  0  0  0  0
   -4.4272   -2.7537   -0.0280 H   0  0  0  0  0  0  0  0  0  0  0  0
   -6.8444   -2.5117    0.4863 H   0  0  0  0  0  0  0  0  0  0  0  0
   -5.8452   -1.7006    1.6980 H   0  0  0  0  0  0  0  0  0  0  0  0
   -6.6893   -0.7452    0.4633 H   0  0  0  0  0  0  0  0  0  0  0  0
   -4.5344   -2.0125   -2.4069 H   0  0  0  0  0  0  0  0  0  0  0  0
   -6.0704   -2.7134   -1.8876 H   0  0  0  0  0  0  0  0  0  0  0  0
   -5.9042   -0.9557   -2.0266 H   0  0  0  0  0  0  0  0  0  0  0  0
    0.5462   -1.3836   -0.1528 H   0  0  0  0  0  0  0  0  0  0  0  0
    0.2408    0.0363    0.8955 H   0  0  0  0  0  0  0  0  0  0  0  0
    5.1388   -2.3286    0.1748 H   0  0  0  0  0  0  0  0  0  0  0  0
    4.5396   -3.9251    2.3332 H   0  0  0  0  0  0  0  0  0  0  0  0
    1.0361   -3.2756    3.2831 H   0  0  0  0  0  0  0  0  0  0  0  0
    2.4964   -4.1771    3.7830 H   0  0  0  0  0  0  0  0  0  0  0  0
    2.2475   -2.4972    4.3568 H   0  0  0  0  0  0  0  0  0  0  0  0
  1  2  1  0
  2  3  2  0
  3  4  1  0
  4  5  1  0
  5  6  1  0
  6  7  1  0
  7  8  1  0
  8  9  1  0
  9 10  1  0
 10 11  2  0
 10 12  1  0
 12 13  1  0
 13 14  1  0
 13 15  1  0
  8 16  1  0
 16 17  1  0
 17 18  1  0
 18 19  2  0
 18 20  1  0
 20 21  1  0
 21 22  2  0
 22 23  1  0
 23 24  1  0
 23 25  1  0
  5 26  2  0
 26  2  1  0
 17  6  1  0
 25 20  2  0
  1 27  1  0
  1 28  1  0
  1 29  1  0
  4 30  1  0
  6 31  1  6
  7 32  1  0
  7 33  1  0
  8 34  1  6
  9 35  1  0
 12 36  1  0
 12 37  1  0
 13 38  1  0
 14 39  1  0
 14 40  1  0
 14 41  1  0
 15 42  1  0
 15 43  1  0
 15 44  1  0
 16 45  1  0
 16 46  1  0
 21 47  1  0
 22 48  1  0
 24 49  1  0
 24 50  1  0
 24 51  1  0
M  END
$$$$
