
     RDKit          3D

 41 41  0  0  0  0  0  0  0  0999 V2000
   -3.0927   -2.3345   -0.6225 C   0  0  0  0  0  0  0  0  0  0  0  0
   -2.1883   -1.4365   -1.4388 C   0  0  0  0  0  0  0  0  0  0  0  0
   -1.5294   -0.4448   -0.6496 N   0  0  0  0  0  0  0  0  0  0  0  0
   -2.3006    0.5099    0.0485 C   0  0  0  0  0  0  0  0  0  0  0  0
   -2.9011    1.6007   -0.5490 C   0  0  0  0  0  0  0  0  0  0  0  0
   -3.6412    2.5361    0.1601 C   0  0  0  0  0  0  0  0  0  0  0  0
   -3.8030    2.4003    1.5289 C   0  0  0  0  0  0  0  0  0  0  0  0
   -3.2174    1.3305    2.1314 C   0  0  0  0  0  0  0  0  0  0  0  0
   -2.4839    0.3991    1.4348 C   0  0  0  0  0  0  0  0  0  0  0  0
   -0.0976   -0.4113   -0.5288 C   0  0  0  0  0  0  0  0  0  0  0  0
    0.4728    0.5656    0.2327 C   0  0  0  0  0  0  0  0  0  0  0  0
    1.8867    0.6012    0.3806 C   0  0  0  0  0  0  0  0  0  0  0  0
    2.3931    1.5159    1.0821 N   0  0  0  0  0  0  0  0  0  0  0  0
    3.7366    1.7399    1.3609 C   0  0  0  0  0  0  0  0  0  0  0  0
    2.6663   -0.3108   -0.2164 N   0  0  0  0  0  0  0  0  0  0  0  0
    4.0728   -0.2453   -0.0405 C   0  0  0  0  0  0  0  0  0  0  0  0
    2.0519   -1.2652   -0.9663 C   0  0  0  0  0  0  0  0  0  0  0  0
    2.9383   -2.2586   -1.6110 C   0  0  0  0  0  0  0  0  0  0  0  0
    0.7065   -1.3110   -1.1159 N   0  0  0  0  0  0  0  0  0  0  0  0
    0.6834    0.0000    0.0000 Cl  0  0  0  0  0  0  0  0  0  0  0  0
   -3.3311   -3.2177   -1.2711 H   0  0  0  0  0  0  0  0  0  0  0  0
   -4.0701   -1.8698   -0.3781 H   0  0  0  0  0  0  0  0  0  0  0  0
   -2.5828   -2.7525    0.2632 H   0  0  0  0  0  0  0  0  0  0  0  0
   -1.4462   -2.0834   -1.9438 H   0  0  0  0  0  0  0  0  0  0  0  0
   -2.8140   -0.9783   -2.2349 H   0  0  0  0  0  0  0  0  0  0  0  0
   -2.7759    1.7091   -1.6171 H   0  0  0  0  0  0  0  0  0  0  0  0
   -4.1049    3.3938   -0.3236 H   0  0  0  0  0  0  0  0  0  0  0  0
   -4.3854    3.1599    2.0456 H   0  0  0  0  0  0  0  0  0  0  0  0
   -3.3631    1.2498    3.2175 H   0  0  0  0  0  0  0  0  0  0  0  0
   -2.0319   -0.4429    1.9345 H   0  0  0  0  0  0  0  0  0  0  0  0
   -0.0895    1.3388    0.7419 H   0  0  0  0  0  0  0  0  0  0  0  0
    4.1697    1.3275    2.2894 H   0  0  0  0  0  0  0  0  0  0  0  0
    3.6390    2.8320    1.7912 H   0  0  0  0  0  0  0  0  0  0  0  0
    4.4422    2.0436    0.5717 H   0  0  0  0  0  0  0  0  0  0  0  0
    4.4167   -1.2931   -0.4148 H   0  0  0  0  0  0  0  0  0  0  0  0
    4.6736    0.3270   -0.7580 H   0  0  0  0  0  0  0  0  0  0  0  0
    4.4784   -0.4106    0.9730 H   0  0  0  0  0  0  0  0  0  0  0  0
    3.6846   -1.7084   -2.2132 H   0  0  0  0  0  0  0  0  0  0  0  0
    3.4430   -2.9336   -0.9295 H   0  0  0  0  0  0  0  0  0  0  0  0
    2.3778   -2.8724   -2.3652 H   0  0  0  0  0  0  0  0  0  0  0  0
   -0.6834    0.0000    0.0000 H   0  0  0  0  0  0  0  0  0  0  0  0
  1  2  1  0
  2  3  1  0
  3  4  1  0
  4  5  2  0
  5  6  1  0
  6  7  2  0
  7  8  1  0
  8  9  2  0
  3 10  1  0
 10 11  2  0
 11 12  1  0
 12 13  2  0
 13 14  1  0
 12 15  1  0
 15 16  1  0
 15 17  1  0
 17 18  1  0
 17 19  2  0
  9  4  1  0
 19 10  1  0
  1 21  1  0
  1 22  1  0
  1 23  1  0
  2 24  1  0
  2 25  1  0
  5 26  1  0
  6 27  1  0
  7 28  1  0
  8 29  1  0
  9 30  1  0
 11 31  1  0
 14 32  1  0
 14 33  1  0
 14 34  1  0
 16 35  1  0
 16 36  1  0
 16 37  1  0
 18 38  1  0
 18 39  1  0
 18 40  1  0
 20 41  1  0
M  END
$$$$
