
     RDKit          3D

 55 59  0  0  0  0  0  0  0  0999 V2000
   -1.1288    1.8465   -1.7559 C   0  0  0  0  0  0  0  0  0  0  0  0
   -1.8850    0.8367   -0.9732 C   0  0  0  0  0  0  0  0  0  0  0  0
   -3.1900    0.8372   -0.7838 N   0  0  0  0  0  0  0  0  0  0  0  0
   -3.4609   -0.2514    0.0154 C   0  0  0  0  0  0  0  0  0  0  0  0
   -4.8244   -0.5685    0.4529 C   0  0  0  0  0  0  0  0  0  0  0  0
   -5.1401   -1.6312    1.2104 N   0  0  0  0  0  0  0  0  0  0  0  0
   -6.5232   -1.5112    1.3629 O   0  0  0  0  0  0  0  0  0  0  0  0
   -6.8977   -0.3892    0.6771 C   0  0  0  0  0  0  0  0  0  0  0  0
   -8.3122   -0.0423    0.6847 C   0  0  0  0  0  0  0  0  0  0  0  0
   -8.7427    1.0970   -0.0023 C   0  0  0  0  0  0  0  0  0  0  0  0
  -10.0895    1.4149    0.0130 C   0  0  0  0  0  0  0  0  0  0  0  0
  -11.0226    0.6841    0.6574 N   0  0  0  0  0  0  0  0  0  0  0  0
  -10.5908   -0.4110    1.3158 C   0  0  0  0  0  0  0  0  0  0  0  0
   -9.2653   -0.8112    1.3590 C   0  0  0  0  0  0  0  0  0  0  0  0
   -5.8907    0.2214    0.0970 N   0  0  0  0  0  0  0  0  0  0  0  0
   -2.2995   -0.9386    0.2936 C   0  0  0  0  0  0  0  0  0  0  0  0
   -1.3060   -0.2390   -0.3375 N   0  0  0  0  0  0  0  0  0  0  0  0
    0.0907   -0.6417   -0.4032 C   0  0  0  0  0  0  0  0  0  0  0  0
    1.0126    0.2211    0.4425 C   0  0  0  0  0  0  0  0  0  0  0  0
    0.5837    0.9860    1.3059 O   0  0  0  0  0  0  0  0  0  0  0  0
    2.3755    0.0991    0.1957 N   0  0  0  0  0  0  0  0  0  0  0  0
    3.3148    0.9621    0.9290 C   0  0  0  0  0  0  0  0  0  0  0  0
    4.5555    1.3102    0.0896 C   0  0  0  0  0  0  0  0  0  0  0  0
    5.2639    0.1083   -0.4163 N   0  0  0  0  0  0  0  0  0  0  0  0
    6.5502   -0.1410    0.1084 C   0  0  0  0  0  0  0  0  0  0  0  0
    7.5140   -0.7030   -0.7452 C   0  0  0  0  0  0  0  0  0  0  0  0
    8.8064   -0.9915   -0.2943 C   0  0  0  0  0  0  0  0  0  0  0  0
    9.1604   -0.7312    1.0276 C   0  0  0  0  0  0  0  0  0  0  0  0
    8.2206   -0.1856    1.8971 C   0  0  0  0  0  0  0  0  0  0  0  0
    6.9345    0.1011    1.4396 C   0  0  0  0  0  0  0  0  0  0  0  0
    6.0514    0.5882    2.3259 F   0  0  0  0  0  0  0  0  0  0  0  0
    4.4595   -1.1348   -0.4561 C   0  0  0  0  0  0  0  0  0  0  0  0
    2.9792   -0.8398   -0.7610 C   0  0  0  0  0  0  0  0  0  0  0  0
   -0.5865    1.3749   -2.5806 H   0  0  0  0  0  0  0  0  0  0  0  0
   -0.4142    2.3767   -1.1199 H   0  0  0  0  0  0  0  0  0  0  0  0
   -1.8120    2.5871   -2.1834 H   0  0  0  0  0  0  0  0  0  0  0  0
   -8.0407    1.7280   -0.5406 H   0  0  0  0  0  0  0  0  0  0  0  0
  -10.4635    2.2918   -0.5080 H   0  0  0  0  0  0  0  0  0  0  0  0
  -11.3642   -0.9788    1.8261 H   0  0  0  0  0  0  0  0  0  0  0  0
   -8.9957   -1.7056    1.9110 H   0  0  0  0  0  0  0  0  0  0  0  0
   -2.1148   -1.8318    0.8740 H   0  0  0  0  0  0  0  0  0  0  0  0
    0.3795   -0.6008   -1.4579 H   0  0  0  0  0  0  0  0  0  0  0  0
    0.1564   -1.6778   -0.0544 H   0  0  0  0  0  0  0  0  0  0  0  0
    3.6009    0.4168    1.8354 H   0  0  0  0  0  0  0  0  0  0  0  0
    2.8131    1.8841    1.2410 H   0  0  0  0  0  0  0  0  0  0  0  0
    5.2145    1.9939    0.6366 H   0  0  0  0  0  0  0  0  0  0  0  0
    4.2232    1.8699   -0.7946 H   0  0  0  0  0  0  0  0  0  0  0  0
    7.2594   -0.9012   -1.7841 H   0  0  0  0  0  0  0  0  0  0  0  0
    9.5358   -1.4156   -0.9803 H   0  0  0  0  0  0  0  0  0  0  0  0
   10.1644   -0.9548    1.3786 H   0  0  0  0  0  0  0  0  0  0  0  0
    8.4753    0.0147    2.9329 H   0  0  0  0  0  0  0  0  0  0  0  0
    4.5192   -1.6577    0.5085 H   0  0  0  0  0  0  0  0  0  0  0  0
    4.8511   -1.8075   -1.2285 H   0  0  0  0  0  0  0  0  0  0  0  0
    2.4116   -1.7751   -0.7645 H   0  0  0  0  0  0  0  0  0  0  0  0
    2.8838   -0.3833   -1.7534 H   0  0  0  0  0  0  0  0  0  0  0  0
  1  2  1  0
  2  3  2  0
  3  4  1  0
  4  5  1  0
  5  6  2  0
  6  7  1  0
  7  8  1  0
  8  9  1  0
  9 10  2  0
 10 11  1  0
 11 12  2  0
 12 13  1  0
 13 14  2  0
  8 15  2  0
  4 16  2  0
 16 17  1  0
 17 18  1  0
 18 19  1  0
 19 20  2  0
 19 21  1  0
 21 22  1  0
 22 23  1  0
 23 24  1  0
 24 25  1  0
 25 26  2  0
 26 27  1  0
 27 28  2  0
 28 29  1  0
 29 30  2  0
 30 31  1  0
 24 32  1  0
 32 33  1  0
 17  2  1  0
 33 21  1  0
 15  5  1  0
 30 25  1  0
 14  9  1  0
  1 34  1  0
  1 35  1  0
  1 36  1  0
 10 37  1  0
 11 38  1  0
 13 39  1  0
 14 40  1  0
 16 41  1  0
 18 42  1  0
 18 43  1  0
 22 44  1  0
 22 45  1  0
 23 46  1  0
 23 47  1  0
 26 48  1  0
 27 49  1  0
 28 50  1  0
 29 51  1  0
 32 52  1  0
 32 53  1  0
 33 54  1  0
 33 55  1  0
M  END
$$$$
