
     RDKit          3D

 47 50  0  0  0  0  0  0  0  0999 V2000
   -4.3600    3.1299   -0.1178 C   0  0  0  0  0  0  0  0  0  0  0  0
   -3.5305    1.8891   -0.2223 C   0  0  0  0  0  0  0  0  0  0  0  0
   -2.2446    1.9697    0.1629 N   0  0  0  0  0  0  0  0  0  0  0  0
   -1.4850    0.8601    0.1127 C   0  0  0  0  0  0  0  0  0  0  0  0
   -0.1481    0.9491    0.4916 N   0  0  0  0  0  0  0  0  0  0  0  0
    0.3483    2.2933    0.8284 C   0  0  0  0  0  0  0  0  0  0  0  0
    1.8816    2.2708    0.9477 C   0  0  0  0  0  0  0  0  0  0  0  0
    2.3508    1.3095    1.9858 N   0  0  0  0  0  0  0  0  0  0  0  0
    3.9845    0.8845    1.9707 S   0  0  0  0  0  6  0  0  0  0  0  0
    4.2671    0.1472    3.1840 O   0  0  0  0  0  0  0  0  0  0  0  0
    4.7513    2.0581    1.6105 O   0  0  0  0  0  0  0  0  0  0  0  0
    4.1067   -0.2688    0.6154 C   0  0  0  0  0  0  0  0  0  0  0  0
    4.4081    0.1971   -0.6690 C   0  0  0  0  0  0  0  0  0  0  0  0
    4.5260   -0.7124   -1.7223 C   0  0  0  0  0  0  0  0  0  0  0  0
    4.3627   -2.0773   -1.4830 C   0  0  0  0  0  0  0  0  0  0  0  0
    4.5069   -3.1944   -2.7828 Cl  0  0  0  0  0  0  0  0  0  0  0  0
    4.0927   -2.5451   -0.1964 C   0  0  0  0  0  0  0  0  0  0  0  0
    3.9732   -1.6405    0.8609 C   0  0  0  0  0  0  0  0  0  0  0  0
    1.3501    0.2864    2.3923 C   0  0  0  0  0  0  0  0  0  0  0  0
    0.4568   -0.1776    1.2250 C   0  0  0  0  0  0  0  0  0  0  0  0
   -2.0174   -0.3283   -0.3473 C   0  0  0  0  0  0  0  0  0  0  0  0
   -3.3503   -0.3295   -0.7145 C   0  0  0  0  0  0  0  0  0  0  0  0
   -3.9342   -1.5437   -1.1814 N   0  0  0  0  0  0  0  0  0  0  0  0
   -5.2388   -1.7144   -1.5978 C   0  0  0  0  0  0  0  0  0  0  0  0
   -5.3780   -3.0309   -1.9634 C   0  0  0  0  0  0  0  0  0  0  0  0
   -4.1130   -3.5939   -1.7351 C   0  0  0  0  0  0  0  0  0  0  0  0
   -3.2327   -2.7102   -1.2603 N   0  0  0  0  0  0  0  0  0  0  0  0
   -4.1307    0.7716   -0.6512 N   0  0  0  0  0  0  0  0  0  0  0  0
   -4.7445    3.2311    0.9012 H   0  0  0  0  0  0  0  0  0  0  0  0
   -3.7603    4.0129   -0.3588 H   0  0  0  0  0  0  0  0  0  0  0  0
   -5.2059    3.0903   -0.8111 H   0  0  0  0  0  0  0  0  0  0  0  0
   -0.0972    2.6378    1.7706 H   0  0  0  0  0  0  0  0  0  0  0  0
    0.0851    3.0118    0.0420 H   0  0  0  0  0  0  0  0  0  0  0  0
    2.2353    3.2725    1.2142 H   0  0  0  0  0  0  0  0  0  0  0  0
    2.3018    2.0043   -0.0269 H   0  0  0  0  0  0  0  0  0  0  0  0
    4.5566    1.2585   -0.8564 H   0  0  0  0  0  0  0  0  0  0  0  0
    4.7531   -0.3525   -2.7231 H   0  0  0  0  0  0  0  0  0  0  0  0
    3.9852   -3.6111   -0.0108 H   0  0  0  0  0  0  0  0  0  0  0  0
    3.7862   -2.0116    1.8664 H   0  0  0  0  0  0  0  0  0  0  0  0
    1.8308   -0.5850    2.8479 H   0  0  0  0  0  0  0  0  0  0  0  0
    0.7282    0.7343    3.1776 H   0  0  0  0  0  0  0  0  0  0  0  0
    1.0512   -0.7618    0.5139 H   0  0  0  0  0  0  0  0  0  0  0  0
   -0.3044   -0.8461    1.6459 H   0  0  0  0  0  0  0  0  0  0  0  0
   -1.4094   -1.2191   -0.4383 H   0  0  0  0  0  0  0  0  0  0  0  0
   -5.9329   -0.8856   -1.5957 H   0  0  0  0  0  0  0  0  0  0  0  0
   -6.2678   -3.5139   -2.3413 H   0  0  0  0  0  0  0  0  0  0  0  0
   -3.7945   -4.6164   -1.8953 H   0  0  0  0  0  0  0  0  0  0  0  0
  1  2  1  0
  2  3  2  0
  3  4  1  0
  4  5  1  0
  5  6  1  0
  6  7  1  0
  7  8  1  0
  8  9  1  0
  9 10  2  0
  9 11  2  0
  9 12  1  0
 12 13  2  0
 13 14  1  0
 14 15  2  0
 15 16  1  0
 15 17  1  0
 17 18  2  0
  8 19  1  0
 19 20  1  0
  4 21  2  0
 21 22  1  0
 22 23  1  0
 23 24  1  0
 24 25  2  0
 25 26  1  0
 26 27  2  0
 22 28  2  0
 28  2  1  0
 20  5  1  0
 27 23  1  0
 18 12  1  0
  1 29  1  0
  1 30  1  0
  1 31  1  0
  6 32  1  0
  6 33  1  0
  7 34  1  0
  7 35  1  0
 13 36  1  0
 14 37  1  0
 17 38  1  0
 18 39  1  0
 19 40  1  0
 19 41  1  0
 20 42  1  0
 20 43  1  0
 21 44  1  0
 24 45  1  0
 25 46  1  0
 26 47  1  0
M  END
$$$$
