
     RDKit          3D

 52 54  0  0  0  0  0  0  0  0999 V2000
   -7.7595    3.0490   -1.0179 C   0  0  0  0  0  0  0  0  0  0  0  0
   -7.5759    2.0213   -0.0525 O   0  0  0  0  0  0  0  0  0  0  0  0
   -6.2975    1.5763    0.1417 C   0  0  0  0  0  0  0  0  0  0  0  0
   -6.1677    0.5796    1.1113 C   0  0  0  0  0  0  0  0  0  0  0  0
   -4.9175    0.0334    1.4107 C   0  0  0  0  0  0  0  0  0  0  0  0
   -3.7715    0.4845    0.7455 C   0  0  0  0  0  0  0  0  0  0  0  0
   -2.4288   -0.1247    1.0421 C   0  0  0  0  0  0  0  0  0  0  0  0
   -2.2334   -1.3295    0.2700 N   0  0  0  0  0  0  0  0  0  0  0  0
   -1.1194   -2.1105    0.4613 C   0  0  0  0  0  0  0  0  0  0  0  0
   -0.3006   -1.9110    1.3517 O   0  0  0  0  0  0  0  0  0  0  0  0
   -1.0328   -3.2815   -0.4906 C   0  0  0  0  0  0  0  0  0  0  0  0
    0.3860   -3.8290   -0.5728 C   0  0  0  0  0  0  0  0  0  0  0  0
    1.2809   -2.9451   -1.2912 N   0  0  0  0  0  0  0  0  0  0  0  0
    1.1138   -2.7758   -2.6182 N   0  0  0  0  0  0  0  0  0  0  0  0
    2.0681   -1.9581   -3.0411 N   0  0  0  0  0  0  0  0  0  0  0  0
    2.8412   -1.6137   -1.9656 C   0  0  0  0  0  0  0  0  0  0  0  0
    3.9655   -0.7829   -1.8866 C   0  0  0  0  0  0  0  0  0  0  0  0
    4.5506   -0.6029   -0.6258 C   0  0  0  0  0  0  0  0  0  0  0  0
    5.9753    0.4438   -0.4645 S   0  0  0  0  0  6  0  0  0  0  0  0
    6.2660    1.0312   -1.7557 O   0  0  0  0  0  0  0  0  0  0  0  0
    6.9756   -0.3104    0.2598 O   0  0  0  0  0  0  0  0  0  0  0  0
    5.4075    1.7020    0.5502 N   0  0  0  0  0  0  0  0  0  0  0  0
    4.3489    2.5516   -0.0408 C   0  0  0  0  0  0  0  0  0  0  0  0
    6.5042    2.5204    1.1165 C   0  0  0  0  0  0  0  0  0  0  0  0
    4.0477   -1.2321    0.5204 C   0  0  0  0  0  0  0  0  0  0  0  0
    2.9265   -2.0645    0.4451 C   0  0  0  0  0  0  0  0  0  0  0  0
    2.3513   -2.2324   -0.8195 C   0  0  0  0  0  0  0  0  0  0  0  0
   -3.9063    1.4769   -0.2345 C   0  0  0  0  0  0  0  0  0  0  0  0
   -5.1608    2.0223   -0.5320 C   0  0  0  0  0  0  0  0  0  0  0  0
   -7.4712    2.7074   -2.0175 H   0  0  0  0  0  0  0  0  0  0  0  0
   -7.2151    3.9568   -0.7372 H   0  0  0  0  0  0  0  0  0  0  0  0
   -8.8254    3.2953   -1.0451 H   0  0  0  0  0  0  0  0  0  0  0  0
   -7.0503    0.2241    1.6378 H   0  0  0  0  0  0  0  0  0  0  0  0
   -4.8448   -0.7467    2.1657 H   0  0  0  0  0  0  0  0  0  0  0  0
   -2.3353   -0.3604    2.1089 H   0  0  0  0  0  0  0  0  0  0  0  0
   -1.6201    0.5748    0.7990 H   0  0  0  0  0  0  0  0  0  0  0  0
   -2.7752   -1.4350   -0.5789 H   0  0  0  0  0  0  0  0  0  0  0  0
   -1.7013   -4.0607   -0.1065 H   0  0  0  0  0  0  0  0  0  0  0  0
   -1.3968   -2.9829   -1.4803 H   0  0  0  0  0  0  0  0  0  0  0  0
    0.8088   -4.0236    0.4180 H   0  0  0  0  0  0  0  0  0  0  0  0
    0.3876   -4.7803   -1.1182 H   0  0  0  0  0  0  0  0  0  0  0  0
    4.3552   -0.3037   -2.7783 H   0  0  0  0  0  0  0  0  0  0  0  0
    4.7355    3.1398   -0.8784 H   0  0  0  0  0  0  0  0  0  0  0  0
    3.9655    3.2416    0.7183 H   0  0  0  0  0  0  0  0  0  0  0  0
    3.5013    1.9491   -0.3765 H   0  0  0  0  0  0  0  0  0  0  0  0
    7.0567    3.0378    0.3263 H   0  0  0  0  0  0  0  0  0  0  0  0
    7.1891    1.8953    1.6968 H   0  0  0  0  0  0  0  0  0  0  0  0
    6.0952    3.2689    1.8030 H   0  0  0  0  0  0  0  0  0  0  0  0
    4.5290   -1.0712    1.4845 H   0  0  0  0  0  0  0  0  0  0  0  0
    2.5207   -2.5412    1.3323 H   0  0  0  0  0  0  0  0  0  0  0  0
   -3.0327    1.8353   -0.7759 H   0  0  0  0  0  0  0  0  0  0  0  0
   -5.2139    2.7912   -1.2956 H   0  0  0  0  0  0  0  0  0  0  0  0
  1  2  1  0
  2  3  1  0
  3  4  2  0
  4  5  1  0
  5  6  2  0
  6  7  1  0
  7  8  1  0
  8  9  1  0
  9 10  2  0
  9 11  1  0
 11 12  1  0
 12 13  1  0
 13 14  1  0
 14 15  2  0
 15 16  1  0
 16 17  2  0
 17 18  1  0
 18 19  1  0
 19 20  2  0
 19 21  2  0
 19 22  1  0
 22 23  1  0
 22 24  1  0
 18 25  2  0
 25 26  1  0
 26 27  2  0
  6 28  1  0
 28 29  2  0
 29  3  1  0
 27 13  1  0
 27 16  1  0
  1 30  1  0
  1 31  1  0
  1 32  1  0
  4 33  1  0
  5 34  1  0
  7 35  1  0
  7 36  1  0
  8 37  1  0
 11 38  1  0
 11 39  1  0
 12 40  1  0
 12 41  1  0
 17 42  1  0
 23 43  1  0
 23 44  1  0
 23 45  1  0
 24 46  1  0
 24 47  1  0
 24 48  1  0
 25 49  1  0
 26 50  1  0
 28 51  1  0
 29 52  1  0
M  END
$$$$
