
     RDKit          3D

 28 29  0  0  0  0  0  0  0  0999 V2000
    4.7465    0.6873    0.4473 N   0  0  0  0  0  0  0  0  0  0  0  0
    3.9771   -0.7820    0.1715 S   0  0  0  0  0  6  0  0  0  0  0  0
    4.5317   -1.3310   -1.0423 O   0  0  0  0  0  0  0  0  0  0  0  0
    4.0128   -1.5063    1.4208 O   0  0  0  0  0  0  0  0  0  0  0  0
    2.2961   -0.3234   -0.1444 C   0  0  0  0  0  0  0  0  0  0  0  0
    1.3011   -0.8175    0.7091 C   0  0  0  0  0  0  0  0  0  0  0  0
   -0.0390   -0.5043    0.4570 C   0  0  0  0  0  0  0  0  0  0  0  0
   -0.4239    0.2868   -0.6254 C   0  0  0  0  0  0  0  0  0  0  0  0
    0.5916    0.7942   -1.4481 C   0  0  0  0  0  0  0  0  0  0  0  0
    1.9441    0.4885   -1.2241 C   0  0  0  0  0  0  0  0  0  0  0  0
    3.0860    1.2004   -2.3055 Cl  0  0  0  0  0  0  0  0  0  0  0  0
   -1.7454    0.6746   -0.8955 N   0  0  0  0  0  0  0  0  0  0  0  0
   -2.8232   -0.0719   -0.2411 C   0  0  0  0  0  0  0  0  0  0  0  0
   -4.2188    0.5371   -0.5914 C   0  0  0  0  0  0  0  0  0  0  0  0
   -5.5317   -0.3755    0.2094 Cl  0  0  0  0  0  0  0  0  0  0  0  0
   -4.3357    2.2626   -0.1196 Cl  0  0  0  0  0  0  0  0  0  0  0  0
   -2.5638   -0.0585    1.2009 N   0  0  0  0  0  0  0  0  0  0  0  0
   -1.2679   -1.0575    1.5813 S   0  0  0  0  0  6  0  0  0  0  0  0
   -0.8572   -0.7180    2.9227 O   0  0  0  0  0  0  0  0  0  0  0  0
   -1.6463   -2.3999    1.2056 O   0  0  0  0  0  0  0  0  0  0  0  0
    5.4245    0.8530   -0.3001 H   0  0  0  0  0  0  0  0  0  0  0  0
    4.1178    1.4783    0.5722 H   0  0  0  0  0  0  0  0  0  0  0  0
    1.5571   -1.4395    1.5671 H   0  0  0  0  0  0  0  0  0  0  0  0
    0.3197    1.4307   -2.2899 H   0  0  0  0  0  0  0  0  0  0  0  0
   -1.8481    1.6716   -0.6815 H   0  0  0  0  0  0  0  0  0  0  0  0
   -2.8382   -1.1007   -0.6253 H   0  0  0  0  0  0  0  0  0  0  0  0
   -4.3909    0.4905   -1.6711 H   0  0  0  0  0  0  0  0  0  0  0  0
   -3.3758   -0.3696    1.7404 H   0  0  0  0  0  0  0  0  0  0  0  0
  1  2  1  0
  2  3  2  0
  2  4  2  0
  2  5  1  0
  5  6  2  0
  6  7  1  0
  7  8  2  0
  8  9  1  0
  9 10  2  0
 10 11  1  0
  8 12  1  0
 12 13  1  0
 13 14  1  0
 14 15  1  0
 14 16  1  0
 13 17  1  0
 17 18  1  0
 18 19  2  0
 18 20  2  0
 10  5  1  0
 18  7  1  0
  1 21  1  0
  1 22  1  0
  6 23  1  0
  9 24  1  0
 12 25  1  0
 13 26  1  0
 14 27  1  0
 17 28  1  0
M  END
$$$$
