
     RDKit          3D

 39 40  0  0  0  0  0  0  0  0999 V2000
    0.6919    0.0000    0.0000 Cl  0  0  0  0  0  0  0  0  0  0  0  0
    0.3340    0.1320   -2.6554 O   0  0  0  0  0  0  0  0  0  0  0  0
   -0.0025   -0.4282   -1.3114 S   0  0  0  0  0  6  0  0  0  0  0  0
   -0.9477   -1.5753   -1.5434 O   0  0  0  0  0  0  0  0  0  0  0  0
    1.3688   -1.0166   -0.4479 C   0  0  0  0  0  0  0  0  0  0  0  0
    1.5029   -2.3573   -0.1635 C   0  0  0  0  0  0  0  0  0  0  0  0
    2.6049   -2.8307    0.5308 C   0  0  0  0  0  0  0  0  0  0  0  0
    3.5982   -1.9789    0.9575 C   0  0  0  0  0  0  0  0  0  0  0  0
    3.4825   -0.6161    0.6800 C   0  0  0  0  0  0  0  0  0  0  0  0
    4.4588    0.2769    1.0904 C   0  0  0  0  0  0  0  0  0  0  0  0
    4.2839    1.5729    0.7897 N   0  0  0  0  0  0  0  0  0  0  0  0
    3.2110    2.0263    0.1149 C   0  0  0  0  0  0  0  0  0  0  0  0
    2.2238    1.1830   -0.3095 C   0  0  0  0  0  0  0  0  0  0  0  0
    2.3739   -0.1676   -0.0142 C   0  0  0  0  0  0  0  0  0  0  0  0
   -0.8269    0.7051   -0.3143 N   0  0  0  0  0  0  0  0  0  0  0  0
   -1.2729    0.0598    0.8614 C   0  0  0  0  0  0  0  0  0  0  0  0
   -2.6547    0.4370    1.3131 C   0  0  0  0  0  0  0  0  0  0  0  0
   -3.7249   -0.2013    0.4368 C   0  0  0  0  0  0  0  0  0  0  0  0
   -4.0815    0.8183   -0.5532 N   0  0  0  0  0  0  0  0  0  0  0  0
   -2.9734    0.7927   -1.5227 C   0  0  0  0  0  0  0  0  0  0  0  0
   -1.7792    1.4961   -1.0093 C   0  0  0  0  0  0  0  0  0  0  0  0
   -0.6919    0.0000    0.0000 H   0  0  0  0  0  0  0  0  0  0  0  0
    0.7694   -3.0866   -0.4629 H   0  0  0  0  0  0  0  0  0  0  0  0
    2.7010   -3.8789    0.7483 H   0  0  0  0  0  0  0  0  0  0  0  0
    4.4718   -2.2932    1.4984 H   0  0  0  0  0  0  0  0  0  0  0  0
    5.3054   -0.1013    1.6261 H   0  0  0  0  0  0  0  0  0  0  0  0
    3.1448    3.0856   -0.0877 H   0  0  0  0  0  0  0  0  0  0  0  0
    1.3438    1.5112   -0.8564 H   0  0  0  0  0  0  0  0  0  0  0  0
   -0.5771    0.3518    1.7004 H   0  0  0  0  0  0  0  0  0  0  0  0
   -1.2074   -1.0219    0.7584 H   0  0  0  0  0  0  0  0  0  0  0  0
   -2.7915    1.5122    1.4293 H   0  0  0  0  0  0  0  0  0  0  0  0
   -2.7956   -0.0245    2.3307 H   0  0  0  0  0  0  0  0  0  0  0  0
   -4.5832   -0.5191    1.0408 H   0  0  0  0  0  0  0  0  0  0  0  0
   -3.2979   -1.0513   -0.1358 H   0  0  0  0  0  0  0  0  0  0  0  0
   -4.0966    1.7322   -0.0445 H   0  0  0  0  0  0  0  0  0  0  0  0
   -3.3675    1.3841   -2.4007 H   0  0  0  0  0  0  0  0  0  0  0  0
   -2.8327   -0.2306   -1.8617 H   0  0  0  0  0  0  0  0  0  0  0  0
   -2.1058    2.3189   -0.3435 H   0  0  0  0  0  0  0  0  0  0  0  0
   -1.2600    1.9832   -1.8690 H   0  0  0  0  0  0  0  0  0  0  0  0
  2  3  2  0
  3  4  2  0
  3  5  1  0
  5  6  2  0
  6  7  1  0
  7  8  2  0
  8  9  1  0
  9 10  2  0
 10 11  1  0
 11 12  2  0
 12 13  1  0
 13 14  2  0
  3 15  1  0
 15 16  1  0
 16 17  1  0
 17 18  1  0
 18 19  1  0
 19 20  1  0
 20 21  1  0
 14  5  1  0
 21 15  1  0
 14  9  1  0
  1 22  1  0
  6 23  1  0
  7 24  1  0
  8 25  1  0
 10 26  1  0
 12 27  1  0
 13 28  1  0
 16 29  1  0
 16 30  1  0
 17 31  1  0
 17 32  1  0
 18 33  1  0
 18 34  1  0
 19 35  1  0
 20 36  1  0
 20 37  1  0
 21 38  1  0
 21 39  1  0
M  END
$$$$
