
     RDKit          3D

 30 31  0  0  0  0  0  0  0  0999 V2000
    0.6864    0.0000    0.0000 Cl  0  0  0  0  0  0  0  0  0  0  0  0
   -4.2837    2.7724    1.2420 Cl  0  0  0  0  0  0  0  0  0  0  0  0
   -3.7631    1.2396    0.5875 C   0  0  0  0  0  0  0  0  0  0  0  0
   -4.6888    0.2679    0.2310 C   0  0  0  0  0  0  0  0  0  0  0  0
   -4.2739   -0.9384   -0.2843 C   0  0  0  0  0  0  0  0  0  0  0  0
   -2.9286   -1.1501   -0.4338 C   0  0  0  0  0  0  0  0  0  0  0  0
   -1.9534   -0.1949   -0.0863 C   0  0  0  0  0  0  0  0  0  0  0  0
   -0.5957   -0.5019   -0.2826 N   0  0  0  0  0  0  0  0  0  0  0  0
    0.5134    0.2795    0.1057 C   0  0  0  0  0  0  0  0  0  0  0  0
    0.4242    1.4371    0.7383 N   0  0  0  0  0  0  0  0  0  0  0  0
    1.4402    2.2063    1.1301 C   0  0  0  0  0  0  0  0  0  0  0  0
    2.6783    1.7700    0.8596 N   0  0  0  0  0  0  0  0  0  0  0  0
    2.8991    0.6120    0.2233 C   0  0  0  0  0  0  0  0  0  0  0  0
    4.2138    0.2520   -0.0081 C   0  0  0  0  0  0  0  0  0  0  0  0
    4.4441   -0.9379   -0.6625 C   0  0  0  0  0  0  0  0  0  0  0  0
    3.3940   -1.7330   -1.0675 C   0  0  0  0  0  0  0  0  0  0  0  0
    2.0712   -1.3366   -0.8162 C   0  0  0  0  0  0  0  0  0  0  0  0
    1.8119   -0.1699   -0.1736 C   0  0  0  0  0  0  0  0  0  0  0  0
   -2.4022    0.9928    0.4228 C   0  0  0  0  0  0  0  0  0  0  0  0
   -0.6864    0.0000    0.0000 H   0  0  0  0  0  0  0  0  0  0  0  0
   -5.7565    0.4641    0.3613 H   0  0  0  0  0  0  0  0  0  0  0  0
   -4.9860   -1.6889   -0.5599 H   0  0  0  0  0  0  0  0  0  0  0  0
   -2.6480   -2.1207   -0.8458 H   0  0  0  0  0  0  0  0  0  0  0  0
   -0.4263   -1.4266   -0.7795 H   0  0  0  0  0  0  0  0  0  0  0  0
    1.2826    3.1628    1.6551 H   0  0  0  0  0  0  0  0  0  0  0  0
    5.0472    0.8623    0.3021 H   0  0  0  0  0  0  0  0  0  0  0  0
    5.4512   -1.2572   -0.8634 H   0  0  0  0  0  0  0  0  0  0  0  0
    3.5253   -2.6741   -1.5838 H   0  0  0  0  0  0  0  0  0  0  0  0
    1.2633   -1.9692   -1.1397 H   0  0  0  0  0  0  0  0  0  0  0  0
   -1.7535    1.7805    0.7121 H   0  0  0  0  0  0  0  0  0  0  0  0
  2  3  1  0
  3  4  2  0
  4  5  1  0
  5  6  2  0
  6  7  1  0
  7  8  1  0
  8  9  1  0
  9 10  2  0
 10 11  1  0
 11 12  2  0
 12 13  1  0
 13 14  2  0
 14 15  1  0
 15 16  2  0
 16 17  1  0
 17 18  2  0
  7 19  2  0
 19  3  1  0
 18  9  1  0
 18 13  1  0
  1 20  1  0
  4 21  1  0
  5 22  1  0
  6 23  1  0
  8 24  1  0
 11 25  1  0
 14 26  1  0
 15 27  1  0
 16 28  1  0
 17 29  1  0
 19 30  1  0
M  END
$$$$
