
     RDKit          3D

 32 34  0  0  0  0  0  0  0  0999 V2000
   -6.8327    0.1406   -1.7853 C   0  0  0  0  0  0  0  0  0  0  0  0
   -5.4543    0.4136   -2.0463 O   0  0  0  0  0  0  0  0  0  0  0  0
   -4.6389    0.2194   -0.9694 C   0  0  0  0  0  0  0  0  0  0  0  0
   -5.0414   -0.1543    0.1200 O   0  0  0  0  0  0  0  0  0  0  0  0
   -3.3664    0.5164   -1.3631 N   0  0  0  0  0  0  0  0  0  0  0  0
   -2.2872    0.4320   -0.5274 C   0  0  0  0  0  0  0  0  0  0  0  0
   -2.2489    0.0776    0.7346 N   0  0  0  0  0  0  0  0  0  0  0  0
   -0.9349    0.1574    1.1147 C   0  0  0  0  0  0  0  0  0  0  0  0
   -0.3432   -0.1015    2.3594 C   0  0  0  0  0  0  0  0  0  0  0  0
    1.0433    0.0555    2.4904 C   0  0  0  0  0  0  0  0  0  0  0  0
    1.8256    0.4486    1.3949 C   0  0  0  0  0  0  0  0  0  0  0  0
    3.2880    0.6168    1.6011 C   0  0  0  0  0  0  0  0  0  0  0  0
    3.6280    1.3144    2.5571 O   0  0  0  0  0  0  0  0  0  0  0  0
    4.2521   -0.0052    0.7020 C   0  0  0  0  0  0  0  0  0  0  0  0
    5.5883    0.3347    0.5786 C   0  0  0  0  0  0  0  0  0  0  0  0
    6.2804   -0.4788   -0.3637 C   0  0  0  0  0  0  0  0  0  0  0  0
    5.4576   -1.4324   -0.9175 C   0  0  0  0  0  0  0  0  0  0  0  0
    3.8685   -1.3456   -0.2950 S   0  0  0  0  0  0  0  0  0  0  0  0
    1.2453    0.7377    0.1466 C   0  0  0  0  0  0  0  0  0  0  0  0
   -0.1391    0.5691    0.0525 C   0  0  0  0  0  0  0  0  0  0  0  0
   -1.0275    0.7419   -0.9785 N   0  0  0  0  0  0  0  0  0  0  0  0
   -7.2157    0.8075   -1.0065 H   0  0  0  0  0  0  0  0  0  0  0  0
   -6.9699   -0.9081   -1.5034 H   0  0  0  0  0  0  0  0  0  0  0  0
   -7.3937    0.3267   -2.7054 H   0  0  0  0  0  0  0  0  0  0  0  0
   -3.2653    0.8073   -2.3210 H   0  0  0  0  0  0  0  0  0  0  0  0
   -0.9571   -0.4111    3.1986 H   0  0  0  0  0  0  0  0  0  0  0  0
    1.5104   -0.1303    3.4560 H   0  0  0  0  0  0  0  0  0  0  0  0
    6.0437    1.1387    1.1469 H   0  0  0  0  0  0  0  0  0  0  0  0
    7.3296   -0.3754   -0.6131 H   0  0  0  0  0  0  0  0  0  0  0  0
    5.7159   -2.1854   -1.6497 H   0  0  0  0  0  0  0  0  0  0  0  0
    1.8352    1.0814   -0.6960 H   0  0  0  0  0  0  0  0  0  0  0  0
   -0.7957    1.0425   -1.9118 H   0  0  0  0  0  0  0  0  0  0  0  0
  1  2  1  0
  2  3  1  0
  3  4  2  0
  3  5  1  0
  5  6  1  0
  6  7  2  0
  7  8  1  0
  8  9  2  0
  9 10  1  0
 10 11  2  0
 11 12  1  0
 12 13  2  0
 12 14  1  0
 14 15  2  0
 15 16  1  0
 16 17  2  0
 17 18  1  0
 11 19  1  0
 19 20  2  0
 20 21  1  0
 21  6  1  0
 20  8  1  0
 18 14  1  0
  1 22  1  0
  1 23  1  0
  1 24  1  0
  5 25  1  0
  9 26  1  0
 10 27  1  0
 15 28  1  0
 16 29  1  0
 17 30  1  0
 19 31  1  0
 21 32  1  0
M  END
$$$$
