
     RDKit          3D

 39 41  0  0  0  0  0  0  0  0999 V2000
   -0.3080    1.5793   -2.7034 O   0  0  0  0  0  0  0  0  0  0  0  0
    0.2531    1.0798   -1.7306 C   0  0  0  0  0  0  0  0  0  0  0  0
    1.2798    0.0192   -1.9244 C   0  0  0  0  0  0  0  0  0  0  0  0
    1.2656   -0.7063   -3.1241 C   0  0  0  0  0  0  0  0  0  0  0  0
    2.2138   -1.7062   -3.3551 C   0  0  0  0  0  0  0  0  0  0  0  0
    3.1831   -1.9747   -2.3908 C   0  0  0  0  0  0  0  0  0  0  0  0
    4.3496   -3.2073   -2.6708 Cl  0  0  0  0  0  0  0  0  0  0  0  0
    3.2168   -1.2481   -1.2013 C   0  0  0  0  0  0  0  0  0  0  0  0
    2.2689   -0.2468   -0.9685 C   0  0  0  0  0  0  0  0  0  0  0  0
   -0.1077    1.5842   -0.3857 C   0  0  0  0  0  0  0  0  0  0  0  0
   -0.0260    2.9738   -0.2034 C   0  0  0  0  0  0  0  0  0  0  0  0
   -0.3356    3.5175    1.0436 C   0  0  0  0  0  0  0  0  0  0  0  0
   -0.2418    4.9669    1.2527 N   0  0  0  0  0  4  0  0  0  0  0  0
   -0.6601    5.4199    2.3275 O   0  0  0  0  0  0  0  0  0  0  0  0
    0.2584    5.6483    0.3477 O   0  0  0  0  0  1  0  0  0  0  0  0
   -0.7326    2.6888    2.0974 C   0  0  0  0  0  0  0  0  0  0  0  0
   -0.8292    1.3062    1.8959 C   0  0  0  0  0  0  0  0  0  0  0  0
   -0.5275    0.7195    0.6541 C   0  0  0  0  0  0  0  0  0  0  0  0
   -0.6859   -0.6565    0.4328 N   0  0  0  0  0  0  0  0  0  0  0  0
   -0.3744   -1.6101    1.5232 C   0  0  0  0  0  0  0  0  0  0  0  0
   -1.6490   -2.2765    2.0614 C   0  0  0  0  0  0  0  0  0  0  0  0
   -2.3803   -3.0053    1.0636 O   0  0  0  0  0  0  0  0  0  0  0  0
   -2.2036   -2.4888   -0.2655 C   0  0  0  0  0  0  0  0  0  0  0  0
   -1.9437   -0.9750   -0.2969 C   0  0  0  0  0  0  0  0  0  0  0  0
    0.5139   -0.4944   -3.8824 H   0  0  0  0  0  0  0  0  0  0  0  0
    2.1912   -2.2653   -4.2868 H   0  0  0  0  0  0  0  0  0  0  0  0
    3.9789   -1.4534   -0.4539 H   0  0  0  0  0  0  0  0  0  0  0  0
    2.3189    0.3133   -0.0393 H   0  0  0  0  0  0  0  0  0  0  0  0
    0.2769    3.6061   -1.0369 H   0  0  0  0  0  0  0  0  0  0  0  0
   -0.9844    3.0986    3.0742 H   0  0  0  0  0  0  0  0  0  0  0  0
   -1.1807    0.6980    2.7258 H   0  0  0  0  0  0  0  0  0  0  0  0
    0.1962   -1.1453    2.3349 H   0  0  0  0  0  0  0  0  0  0  0  0
    0.2737   -2.3843    1.0938 H   0  0  0  0  0  0  0  0  0  0  0  0
   -2.3267   -1.5287    2.4883 H   0  0  0  0  0  0  0  0  0  0  0  0
   -1.3962   -2.9814    2.8597 H   0  0  0  0  0  0  0  0  0  0  0  0
   -3.1088   -2.7286   -0.8323 H   0  0  0  0  0  0  0  0  0  0  0  0
   -1.3717   -3.0322   -0.7288 H   0  0  0  0  0  0  0  0  0  0  0  0
   -1.8753   -0.6452   -1.3386 H   0  0  0  0  0  0  0  0  0  0  0  0
   -2.7897   -0.4593    0.1764 H   0  0  0  0  0  0  0  0  0  0  0  0
  1  2  2  0
  2  3  1  0
  3  4  2  0
  4  5  1  0
  5  6  2  0
  6  7  1  0
  6  8  1  0
  8  9  2  0
  2 10  1  0
 10 11  2  0
 11 12  1  0
 12 13  1  0
 13 14  2  0
 13 15  1  0
 12 16  2  0
 16 17  1  0
 17 18  2  0
 18 19  1  0
 19 20  1  0
 20 21  1  0
 21 22  1  0
 22 23  1  0
 23 24  1  0
  9  3  1  0
 18 10  1  0
 24 19  1  0
  4 25  1  0
  5 26  1  0
  8 27  1  0
  9 28  1  0
 11 29  1  0
 16 30  1  0
 17 31  1  0
 20 32  1  0
 20 33  1  0
 21 34  1  0
 21 35  1  0
 23 36  1  0
 23 37  1  0
 24 38  1  0
 24 39  1  0
M  CHG  2  13   1  15  -1
M  END
$$$$
