
     RDKit          3D

 30 32  0  0  0  0  0  0  0  0999 V2000
    6.0654    1.0007    0.5519 O   0  0  0  0  0  0  0  0  0  0  0  0
    4.8625    0.7973    0.4115 C   0  0  0  0  0  0  0  0  0  0  0  0
    4.3132   -0.0860   -0.6720 C   0  0  0  0  0  0  0  0  0  0  0  0
    3.0368   -0.7562   -0.2137 C   0  0  0  0  0  0  0  0  0  0  0  0
    2.1137    0.2724    0.4036 C   0  0  0  0  0  0  0  0  0  0  0  0
    0.6370    0.0913    0.2716 C   0  0  0  0  0  0  0  0  0  0  0  0
    0.0671   -1.1613    0.0307 C   0  0  0  0  0  0  0  0  0  0  0  0
   -1.3235   -1.2978   -0.0841 C   0  0  0  0  0  0  0  0  0  0  0  0
   -2.1640   -0.1817    0.0457 C   0  0  0  0  0  0  0  0  0  0  0  0
   -3.5792   -0.3180   -0.0719 N   0  0  0  0  0  0  0  0  0  0  0  0
   -4.5298    0.6763    0.0341 C   0  0  0  0  0  0  0  0  0  0  0  0
   -5.7480    0.0673   -0.1532 C   0  0  0  0  0  0  0  0  0  0  0  0
   -5.5916   -1.2690   -0.3724 N   0  0  0  0  0  0  0  0  0  0  0  0
   -4.2935   -1.4726   -0.3185 C   0  0  0  0  0  0  0  0  0  0  0  0
   -1.5881    1.0714    0.2978 C   0  0  0  0  0  0  0  0  0  0  0  0
   -0.1989    1.2036    0.4126 C   0  0  0  0  0  0  0  0  0  0  0  0
    2.5711    1.2833    1.0827 N   0  0  0  0  0  0  0  0  0  0  0  0
    3.9217    1.4255    1.1877 N   0  0  0  0  0  0  0  0  0  0  0  0
    4.1305    0.5401   -1.5528 H   0  0  0  0  0  0  0  0  0  0  0  0
    5.0598   -0.8430   -0.9332 H   0  0  0  0  0  0  0  0  0  0  0  0
    2.5671   -1.2531   -1.0674 H   0  0  0  0  0  0  0  0  0  0  0  0
    3.2536   -1.5098    0.5527 H   0  0  0  0  0  0  0  0  0  0  0  0
    0.6806   -2.0545   -0.0529 H   0  0  0  0  0  0  0  0  0  0  0  0
   -1.7091   -2.2964   -0.2687 H   0  0  0  0  0  0  0  0  0  0  0  0
   -4.2907    1.7099    0.2284 H   0  0  0  0  0  0  0  0  0  0  0  0
   -6.7283    0.5266   -0.1406 H   0  0  0  0  0  0  0  0  0  0  0  0
   -3.8321   -2.4400   -0.4532 H   0  0  0  0  0  0  0  0  0  0  0  0
   -2.1835    1.9721    0.4143 H   0  0  0  0  0  0  0  0  0  0  0  0
    0.2240    2.1873    0.6109 H   0  0  0  0  0  0  0  0  0  0  0  0
    4.2562    2.1142    1.8547 H   0  0  0  0  0  0  0  0  0  0  0  0
  1  2  2  0
  2  3  1  0
  3  4  1  0
  4  5  1  0
  5  6  1  0
  6  7  2  0
  7  8  1  0
  8  9  2  0
  9 10  1  0
 10 11  1  0
 11 12  2  0
 12 13  1  0
 13 14  2  0
  9 15  1  0
 15 16  2  0
  5 17  2  0
 17 18  1  0
 18  2  1  0
 16  6  1  0
 14 10  1  0
  3 19  1  0
  3 20  1  0
  4 21  1  0
  4 22  1  0
  7 23  1  0
  8 24  1  0
 11 25  1  0
 12 26  1  0
 14 27  1  0
 15 28  1  0
 16 29  1  0
 18 30  1  0
M  END
$$$$
