
     RDKit          3D

 50 53  0  0  0  0  0  0  0  0999 V2000
    8.4411   -2.2484   -1.9408 N   0  0  0  0  0  0  0  0  0  0  0  0
    7.4280   -1.3938   -1.4868 C   0  0  0  0  0  0  0  0  0  0  0  0
    6.4682   -0.9026   -2.3737 C   0  0  0  0  0  0  0  0  0  0  0  0
    5.3908   -0.1390   -1.9106 C   0  0  0  0  0  0  0  0  0  0  0  0
    5.2319    0.1075   -0.5424 C   0  0  0  0  0  0  0  0  0  0  0  0
    4.0662    0.9169   -0.0331 C   0  0  0  0  0  0  0  0  0  0  0  0
    2.7610    0.1103   -0.0013 C   0  0  0  0  0  0  0  0  0  0  0  0
    1.7049    0.9114    0.6011 N   0  0  0  0  0  0  0  0  0  0  0  0
    0.4257    0.3533    0.5697 C   0  0  0  0  0  0  0  0  0  0  0  0
    0.2487   -0.9901    0.4927 N   0  0  0  0  0  0  0  0  0  0  0  0
   -1.0080   -1.4829    0.4695 C   0  0  0  0  0  0  0  0  0  0  0  0
   -2.1731   -0.8065    0.5026 N   0  0  0  0  0  0  0  0  0  0  0  0
   -1.9539    0.5157    0.5967 C   0  0  0  0  0  0  0  0  0  0  0  0
   -0.7281    1.1618    0.6197 C   0  0  0  0  0  0  0  0  0  0  0  0
   -0.8947    2.5332    0.6726 N   0  0  0  0  0  0  0  0  0  0  0  0
   -2.1984    2.7074    0.7192 C   0  0  0  0  0  0  0  0  0  0  0  0
   -2.8799    1.5181    0.6901 N   0  0  0  0  0  0  0  0  0  0  0  0
   -4.3198    1.3814    0.7598 C   0  0  2  0  0  0  0  0  0  0  0  0
   -4.6616    0.4649    1.8198 O   0  0  0  0  0  0  0  0  0  0  0  0
   -5.7996   -0.3249    1.3779 C   0  0  2  0  0  0  0  0  0  0  0  0
   -5.3582   -1.7895    1.2690 C   0  0  0  0  0  0  0  0  0  0  0  0
   -4.8289   -2.2317    2.5164 O   0  0  0  0  0  0  0  0  0  0  0  0
   -6.2444    0.2507    0.0337 C   0  0  1  0  0  0  0  0  0  0  0  0
   -7.1976    1.3040    0.2470 O   0  0  0  0  0  0  0  0  0  0  0  0
   -4.9570    0.8408   -0.5204 C   0  0  1  0  0  0  0  0  0  0  0  0
   -5.2404    1.8517   -1.4930 O   0  0  0  0  0  0  0  0  0  0  0  0
    6.1541   -0.4458    0.3527 C   0  0  0  0  0  0  0  0  0  0  0  0
    7.2305   -1.2043   -0.1180 C   0  0  0  0  0  0  0  0  0  0  0  0
    9.2475   -2.2713   -1.3209 H   0  0  0  0  0  0  0  0  0  0  0  0
    8.7085   -2.0894   -2.9063 H   0  0  0  0  0  0  0  0  0  0  0  0
    6.5524   -1.1079   -3.4373 H   0  0  0  0  0  0  0  0  0  0  0  0
    4.6718    0.2475   -2.6288 H   0  0  0  0  0  0  0  0  0  0  0  0
    4.2928    1.2984    0.9702 H   0  0  0  0  0  0  0  0  0  0  0  0
    3.9449    1.8040   -0.6645 H   0  0  0  0  0  0  0  0  0  0  0  0
    2.4844   -0.1866   -1.0240 H   0  0  0  0  0  0  0  0  0  0  0  0
    2.9133   -0.8050    0.5861 H   0  0  0  0  0  0  0  0  0  0  0  0
    1.6604    1.8946    0.3362 H   0  0  0  0  0  0  0  0  0  0  0  0
   -1.0898   -2.5666    0.4112 H   0  0  0  0  0  0  0  0  0  0  0  0
   -2.6983    3.6653    0.7779 H   0  0  0  0  0  0  0  0  0  0  0  0
   -4.7310    2.3629    1.0251 H   0  0  0  0  0  0  0  0  0  0  0  0
   -6.5720   -0.2224    2.1542 H   0  0  0  0  0  0  0  0  0  0  0  0
   -4.5824   -1.9273    0.5113 H   0  0  0  0  0  0  0  0  0  0  0  0
   -6.2031   -2.4357    1.0104 H   0  0  0  0  0  0  0  0  0  0  0  0
   -4.1252   -1.5916    2.7438 H   0  0  0  0  0  0  0  0  0  0  0  0
   -6.7114   -0.4718   -0.6368 H   0  0  0  0  0  0  0  0  0  0  0  0
   -7.0970    1.9276   -0.4962 H   0  0  0  0  0  0  0  0  0  0  0  0
   -4.3380    0.0619   -0.9869 H   0  0  0  0  0  0  0  0  0  0  0  0
   -5.3872    1.3958   -2.3400 H   0  0  0  0  0  0  0  0  0  0  0  0
    6.0369   -0.3039    1.4250 H   0  0  0  0  0  0  0  0  0  0  0  0
    7.9150   -1.6480    0.6006 H   0  0  0  0  0  0  0  0  0  0  0  0
  1  2  1  0
  2  3  2  0
  3  4  1  0
  4  5  2  0
  5  6  1  0
  6  7  1  0
  7  8  1  0
  8  9  1  0
  9 10  2  0
 10 11  1  0
 11 12  2  0
 12 13  1  0
 13 14  2  0
 14 15  1  0
 15 16  2  0
 16 17  1  0
 17 18  1  0
 18 19  1  0
 19 20  1  0
 20 21  1  0
 21 22  1  0
 20 23  1  0
 23 24  1  0
 23 25  1  0
 25 26  1  0
  5 27  1  0
 27 28  2  0
 28  2  1  0
 14  9  1  0
 25 18  1  0
 17 13  1  0
  1 29  1  0
  1 30  1  0
  3 31  1  0
  4 32  1  0
  6 33  1  0
  6 34  1  0
  7 35  1  0
  7 36  1  0
  8 37  1  0
 11 38  1  0
 16 39  1  0
 18 40  1  1
 20 41  1  1
 21 42  1  0
 21 43  1  0
 22 44  1  0
 23 45  1  6
 24 46  1  0
 25 47  1  6
 26 48  1  0
 27 49  1  0
 28 50  1  0
M  END
$$$$
