
     RDKit          3D

 22 23  0  0  0  0  0  0  0  0999 V2000
    4.6855   -0.0371   -0.0823 C   0  0  0  0  0  0  0  0  0  0  0  0
    3.2421    0.1347   -0.3111 C   0  0  0  0  0  0  0  0  0  0  0  0
    2.6033    1.0586   -0.9894 N   0  0  0  0  0  0  0  0  0  0  0  0
    1.2667    0.7434   -0.8840 N   0  0  0  0  0  0  0  0  0  0  0  0
    1.1607   -0.3492   -0.1367 C   0  0  0  0  0  0  0  0  0  0  0  0
    0.0640   -1.0509    0.2353 N   0  0  0  0  0  0  0  0  0  0  0  0
   -1.0658   -0.4348    0.2125 C   0  0  0  0  0  0  0  0  0  0  0  0
   -2.3309   -1.1985    0.5588 C   0  0  0  0  0  0  0  0  0  0  0  0
   -3.3795   -0.0854    0.6001 C   0  0  0  0  0  0  0  0  0  0  0  0
   -2.8242    0.9993   -0.3206 C   0  0  0  0  0  0  0  0  0  0  0  0
   -1.4010    0.8542   -0.1258 N   0  0  0  0  0  0  0  0  0  0  0  0
    2.4111   -0.7878    0.2505 O   0  0  0  0  0  0  0  0  0  0  0  0
    5.2529    0.7572   -0.5764 H   0  0  0  0  0  0  0  0  0  0  0  0
    5.0254   -0.9981   -0.4796 H   0  0  0  0  0  0  0  0  0  0  0  0
    4.9112   -0.0039    0.9876 H   0  0  0  0  0  0  0  0  0  0  0  0
   -2.2364   -1.7211    1.5139 H   0  0  0  0  0  0  0  0  0  0  0  0
   -2.5398   -1.9175   -0.2397 H   0  0  0  0  0  0  0  0  0  0  0  0
   -4.3720   -0.4292    0.2952 H   0  0  0  0  0  0  0  0  0  0  0  0
   -3.4577    0.3026    1.6236 H   0  0  0  0  0  0  0  0  0  0  0  0
   -3.1751    1.9964   -0.0416 H   0  0  0  0  0  0  0  0  0  0  0  0
   -3.0853    0.8010   -1.3655 H   0  0  0  0  0  0  0  0  0  0  0  0
   -0.7551    1.3661   -0.7249 H   0  0  0  0  0  0  0  0  0  0  0  0
  1  2  1  0
  2  3  2  0
  3  4  1  0
  4  5  2  0
  5  6  1  0
  6  7  2  3
  7  8  1  0
  8  9  1  0
  9 10  1  0
 10 11  1  0
  5 12  1  0
 12  2  1  0
 11  7  1  0
  1 13  1  0
  1 14  1  0
  1 15  1  0
  8 16  1  0
  8 17  1  0
  9 18  1  0
  9 19  1  0
 10 20  1  0
 10 21  1  0
 11 22  1  0
M  END
$$$$
