
     RDKit          3D

 86 92  0  0  0  0  0  0  0  0999 V2000
   -0.4121    2.2336   -1.4746 C   0  0  0  0  0  0  0  0  0  0  0  0
   -0.8642    1.8799   -0.1106 N   0  0  0  0  0  0  0  0  0  0  0  0
   -0.2186    0.6146    0.4152 C   0  0  1  0  0  0  0  0  0  0  0  0
    1.2061    0.8685    0.9583 C   0  0  0  0  0  0  0  0  0  0  0  0
    2.0957   -0.3513    0.8080 C   0  0  0  0  0  0  0  0  0  0  0  0
    2.2378   -1.2622    1.8643 C   0  0  0  0  0  0  0  0  0  0  0  0
    3.0270   -2.4035    1.7144 C   0  0  0  0  0  0  0  0  0  0  0  0
    3.6903   -2.6283    0.5110 C   0  0  0  0  0  0  0  0  0  0  0  0
    4.4501   -3.7500    0.3266 O   0  0  0  0  0  0  0  0  0  0  0  0
    5.9179   -3.8808    1.0431 S   0  0  0  0  0  6  0  0  0  0  0  0
    6.3608   -5.2517    0.8456 O   0  0  0  0  0  0  0  0  0  0  0  0
    5.8853   -3.3456    2.3902 O   0  0  0  0  0  0  0  0  0  0  0  0
    6.9909   -2.8474    0.0369 C   0  0  0  0  0  0  0  0  0  0  0  0
    7.7228   -3.5115   -0.9643 C   0  0  0  0  0  0  0  0  0  0  0  0
    8.5707   -2.8007   -1.8036 C   0  0  0  0  0  0  0  0  0  0  0  0
    8.6880   -1.4235   -1.6544 C   0  0  0  0  0  0  0  0  0  0  0  0
    7.9690   -0.7408   -0.6577 C   0  0  0  0  0  0  0  0  0  0  0  0
    8.0906    0.6456   -0.5223 C   0  0  0  0  0  0  0  0  0  0  0  0
    7.4422    1.3920    0.3965 N   0  0  0  0  0  0  0  0  0  0  0  0
    6.6371    0.7258    1.2411 C   0  0  0  0  0  0  0  0  0  0  0  0
    6.4466   -0.6486    1.2000 C   0  0  0  0  0  0  0  0  0  0  0  0
    7.1086   -1.4370    0.2264 C   0  0  0  0  0  0  0  0  0  0  0  0
    3.5370   -1.7486   -0.5589 C   0  0  0  0  0  0  0  0  0  0  0  0
    2.7524   -0.6046   -0.4067 C   0  0  0  0  0  0  0  0  0  0  0  0
   -1.1354   -0.0750    1.4558 C   0  0  0  0  0  0  0  0  0  0  0  0
   -0.7476   -0.2974    2.6055 O   0  0  0  0  0  0  0  0  0  0  0  0
   -2.4045   -0.4799    1.0469 N   0  0  0  0  0  0  0  0  0  0  0  0
   -2.9725   -0.3447   -0.2986 C   0  0  0  0  0  0  0  0  0  0  0  0
   -3.7089   -1.6229   -0.7493 C   0  0  0  0  0  0  0  0  0  0  0  0
   -4.6969   -2.0516    0.2710 N   0  0  0  0  0  0  0  0  0  0  0  0
   -5.5552   -3.0657   -0.1947 C   0  0  0  0  0  0  0  0  0  0  0  0
   -5.6317   -4.3441    0.3767 C   0  0  0  0  0  0  0  0  0  0  0  0
   -6.5005   -5.3195   -0.1279 C   0  0  0  0  0  0  0  0  0  0  0  0
   -7.3200   -5.0335   -1.2143 C   0  0  0  0  0  0  0  0  0  0  0  0
   -7.2771   -3.7702   -1.7901 C   0  0  0  0  0  0  0  0  0  0  0  0
   -6.4088   -2.8004   -1.2802 C   0  0  0  0  0  0  0  0  0  0  0  0
   -4.0847   -2.2354    1.6080 C   0  0  0  0  0  0  0  0  0  0  0  0
   -3.3618   -0.9520    2.0560 C   0  0  0  0  0  0  0  0  0  0  0  0
   -0.9794    3.1879    0.9873 S   0  0  0  0  0  6  0  0  0  0  0  0
    0.2349    3.9612    0.8565 O   0  0  0  0  0  0  0  0  0  0  0  0
   -1.3873    2.6786    2.2768 O   0  0  0  0  0  0  0  0  0  0  0  0
   -2.3835    4.0864    0.3300 C   0  0  0  0  0  0  0  0  0  0  0  0
   -3.6349    3.5130    0.6334 C   0  0  0  0  0  0  0  0  0  0  0  0
   -4.8107    4.0952    0.1794 C   0  0  0  0  0  0  0  0  0  0  0  0
   -4.7465    5.2602   -0.5754 C   0  0  0  0  0  0  0  0  0  0  0  0
   -3.5105    5.8572   -0.8798 C   0  0  0  0  0  0  0  0  0  0  0  0
   -3.4695    7.0299   -1.6405 C   0  0  0  0  0  0  0  0  0  0  0  0
   -2.3429    7.6835   -1.9929 N   0  0  0  0  0  0  0  0  0  0  0  0
   -1.1893    7.1509   -1.5571 C   0  0  0  0  0  0  0  0  0  0  0  0
   -1.1118    5.9888   -0.7994 C   0  0  0  0  0  0  0  0  0  0  0  0
   -2.2896    5.2910   -0.4303 C   0  0  0  0  0  0  0  0  0  0  0  0
   -0.4711    1.3567   -2.1281 H   0  0  0  0  0  0  0  0  0  0  0  0
   -1.0621    2.9929   -1.9155 H   0  0  0  0  0  0  0  0  0  0  0  0
    0.6204    2.5928   -1.4756 H   0  0  0  0  0  0  0  0  0  0  0  0
   -0.1432   -0.0916   -0.4237 H   0  0  0  0  0  0  0  0  0  0  0  0
    1.6913    1.6891    0.4154 H   0  0  0  0  0  0  0  0  0  0  0  0
    1.1904    1.1863    2.0085 H   0  0  0  0  0  0  0  0  0  0  0  0
    1.7252   -1.0922    2.8112 H   0  0  0  0  0  0  0  0  0  0  0  0
    3.1171   -3.1046    2.5410 H   0  0  0  0  0  0  0  0  0  0  0  0
    7.6394   -4.5884   -1.1023 H   0  0  0  0  0  0  0  0  0  0  0  0
    9.1382   -3.3197   -2.5726 H   0  0  0  0  0  0  0  0  0  0  0  0
    9.3531   -0.8789   -2.3232 H   0  0  0  0  0  0  0  0  0  0  0  0
    8.7397    1.2201   -1.1799 H   0  0  0  0  0  0  0  0  0  0  0  0
    6.1276    1.3350    1.9832 H   0  0  0  0  0  0  0  0  0  0  0  0
    5.7734   -1.0680    1.9388 H   0  0  0  0  0  0  0  0  0  0  0  0
    4.0348   -1.9385   -1.5065 H   0  0  0  0  0  0  0  0  0  0  0  0
    2.6567    0.0874   -1.2417 H   0  0  0  0  0  0  0  0  0  0  0  0
   -3.6752    0.4963   -0.2644 H   0  0  0  0  0  0  0  0  0  0  0  0
   -2.2074   -0.1128   -1.0407 H   0  0  0  0  0  0  0  0  0  0  0  0
   -2.9775   -2.4270   -0.9027 H   0  0  0  0  0  0  0  0  0  0  0  0
   -4.1778   -1.4110   -1.7161 H   0  0  0  0  0  0  0  0  0  0  0  0
   -5.0088   -4.6201    1.2216 H   0  0  0  0  0  0  0  0  0  0  0  0
   -6.5315   -6.3033    0.3338 H   0  0  0  0  0  0  0  0  0  0  0  0
   -7.9928   -5.7910   -1.6063 H   0  0  0  0  0  0  0  0  0  0  0  0
   -7.9275   -3.5298   -2.6269 H   0  0  0  0  0  0  0  0  0  0  0  0
   -6.4216   -1.8107   -1.7303 H   0  0  0  0  0  0  0  0  0  0  0  0
   -3.3600   -3.0586    1.5791 H   0  0  0  0  0  0  0  0  0  0  0  0
   -4.8553   -2.4722    2.3510 H   0  0  0  0  0  0  0  0  0  0  0  0
   -4.0894   -0.1438    2.2019 H   0  0  0  0  0  0  0  0  0  0  0  0
   -2.8757   -1.1272    3.0210 H   0  0  0  0  0  0  0  0  0  0  0  0
   -3.6947    2.6033    1.2317 H   0  0  0  0  0  0  0  0  0  0  0  0
   -5.7731    3.6460    0.4161 H   0  0  0  0  0  0  0  0  0  0  0  0
   -5.6766    5.7076   -0.9245 H   0  0  0  0  0  0  0  0  0  0  0  0
   -4.3824    7.4990   -2.0028 H   0  0  0  0  0  0  0  0  0  0  0  0
   -0.2897    7.6959   -1.8356 H   0  0  0  0  0  0  0  0  0  0  0  0
   -0.1193    5.6656   -0.5125 H   0  0  0  0  0  0  0  0  0  0  0  0
  1  2  1  0
  2  3  1  0
  3  4  1  0
  4  5  1  0
  5  6  2  0
  6  7  1  0
  7  8  2  0
  8  9  1  0
  9 10  1  0
 10 11  2  0
 10 12  2  0
 10 13  1  0
 13 14  2  0
 14 15  1  0
 15 16  2  0
 16 17  1  0
 17 18  2  0
 18 19  1  0
 19 20  2  0
 20 21  1  0
 21 22  2  0
  8 23  1  0
 23 24  2  0
  3 25  1  0
 25 26  2  0
 25 27  1  0
 27 28  1  0
 28 29  1  0
 29 30  1  0
 30 31  1  0
 31 32  2  0
 32 33  1  0
 33 34  2  0
 34 35  1  0
 35 36  2  0
 30 37  1  0
 37 38  1  0
  2 39  1  0
 39 40  2  0
 39 41  2  0
 39 42  1  0
 42 43  2  0
 43 44  1  0
 44 45  2  0
 45 46  1  0
 46 47  2  0
 47 48  1  0
 48 49  2  0
 49 50  1  0
 50 51  2  0
 24  5  1  0
 38 27  1  0
 51 42  1  0
 22 13  1  0
 36 31  1  0
 51 46  1  0
 22 17  1  0
  1 52  1  0
  1 53  1  0
  1 54  1  0
  3 55  1  6
  4 56  1  0
  4 57  1  0
  6 58  1  0
  7 59  1  0
 14 60  1  0
 15 61  1  0
 16 62  1  0
 18 63  1  0
 20 64  1  0
 21 65  1  0
 23 66  1  0
 24 67  1  0
 28 68  1  0
 28 69  1  0
 29 70  1  0
 29 71  1  0
 32 72  1  0
 33 73  1  0
 34 74  1  0
 35 75  1  0
 36 76  1  0
 37 77  1  0
 37 78  1  0
 38 79  1  0
 38 80  1  0
 43 81  1  0
 44 82  1  0
 45 83  1  0
 47 84  1  0
 49 85  1  0
 50 86  1  0
M  END
$$$$
