
     RDKit          3D

 51 53  0  0  0  0  0  0  0  0999 V2000
   -3.5135    4.3248    0.1087 C   0  0  0  0  0  0  0  0  0  0  0  0
   -3.6112    3.5849   -1.1015 O   0  0  0  0  0  0  0  0  0  0  0  0
   -3.4248    2.1889   -0.9092 C   0  0  0  0  0  0  0  0  0  0  0  0
   -1.9820    1.7011   -0.6416 C   0  0  0  0  0  0  0  0  0  0  0  0
   -1.0506    2.5063   -0.5835 O   0  0  0  0  0  0  0  0  0  0  0  0
   -1.7764    0.3236   -0.4601 N   0  0  0  0  0  0  0  0  0  0  0  0
   -2.8571   -0.6862   -0.5675 C   0  0  0  0  0  0  0  0  0  0  0  0
   -2.6148   -1.7002   -1.6899 C   0  0  0  0  0  0  0  0  0  0  0  0
   -3.8079   -2.6466   -1.8177 C   0  0  0  0  0  0  0  0  0  0  0  0
   -4.5669   -2.7573   -0.6121 O   0  0  0  0  0  0  0  0  0  0  0  0
   -3.7518   -2.7700    0.5541 C   0  0  0  0  0  0  0  0  0  0  0  0
   -3.1338   -1.3928    0.7698 C   0  0  0  0  0  0  0  0  0  0  0  0
   -0.4125   -0.1621   -0.1776 C   0  0  0  0  0  0  0  0  0  0  0  0
    0.6195    0.0867   -1.2837 C   0  0  0  0  0  0  0  0  0  0  0  0
    1.9443   -0.1693   -0.5709 C   0  0  0  0  0  0  0  0  0  0  0  0
    1.6980    0.1528    0.8297 N   0  0  0  0  0  0  0  0  0  0  0  0
    2.6363    0.4739    1.8023 C   0  0  0  0  0  0  0  0  0  0  0  0
    2.2714    0.9494    2.8790 O   0  0  0  0  0  0  0  0  0  0  0  0
    4.0471    0.2812    1.5054 C   0  0  0  0  0  0  0  0  0  0  0  0
    5.0615    1.1992    1.6990 C   0  0  0  0  0  0  0  0  0  0  0  0
    6.3412    0.6778    1.3537 C   0  0  0  0  0  0  0  0  0  0  0  0
    6.2741   -0.6382    0.9463 C   0  0  0  0  0  0  0  0  0  0  0  0
    7.3923   -1.5222    0.5109 C   0  0  0  0  0  0  0  0  0  0  0  0
    4.6698   -1.2287    0.9952 S   0  0  0  0  0  0  0  0  0  0  0  0
    0.2841    0.4070    1.0673 C   0  0  0  0  0  0  0  0  0  0  0  0
   -2.5250    4.2211    0.5630 H   0  0  0  0  0  0  0  0  0  0  0  0
   -3.6763    5.3809   -0.1234 H   0  0  0  0  0  0  0  0  0  0  0  0
   -4.2855    4.0040    0.8149 H   0  0  0  0  0  0  0  0  0  0  0  0
   -4.0776    1.8497   -0.0967 H   0  0  0  0  0  0  0  0  0  0  0  0
   -3.7526    1.7185   -1.8426 H   0  0  0  0  0  0  0  0  0  0  0  0
   -3.7865   -0.1773   -0.8346 H   0  0  0  0  0  0  0  0  0  0  0  0
   -2.4233   -1.2024   -2.6475 H   0  0  0  0  0  0  0  0  0  0  0  0
   -1.7207   -2.2990   -1.4786 H   0  0  0  0  0  0  0  0  0  0  0  0
   -3.4774   -3.6446   -2.1257 H   0  0  0  0  0  0  0  0  0  0  0  0
   -4.4927   -2.2808   -2.5897 H   0  0  0  0  0  0  0  0  0  0  0  0
   -2.9807   -3.5438    0.4551 H   0  0  0  0  0  0  0  0  0  0  0  0
   -4.3764   -3.0394    1.4118 H   0  0  0  0  0  0  0  0  0  0  0  0
   -2.2405   -1.4972    1.3946 H   0  0  0  0  0  0  0  0  0  0  0  0
   -3.8255   -0.7657    1.3472 H   0  0  0  0  0  0  0  0  0  0  0  0
   -0.4637   -1.2489   -0.0315 H   0  0  0  0  0  0  0  0  0  0  0  0
    0.4788   -0.5701   -2.1475 H   0  0  0  0  0  0  0  0  0  0  0  0
    0.5967    1.1172   -1.6505 H   0  0  0  0  0  0  0  0  0  0  0  0
    2.2022   -1.2314   -0.6331 H   0  0  0  0  0  0  0  0  0  0  0  0
    2.7598    0.4323   -0.9824 H   0  0  0  0  0  0  0  0  0  0  0  0
    4.8836    2.2032    2.0684 H   0  0  0  0  0  0  0  0  0  0  0  0
    7.2660    1.2395    1.4159 H   0  0  0  0  0  0  0  0  0  0  0  0
    8.2784   -1.3511    1.1316 H   0  0  0  0  0  0  0  0  0  0  0  0
    7.1346   -2.5840    0.5873 H   0  0  0  0  0  0  0  0  0  0  0  0
    7.6575   -1.3072   -0.5297 H   0  0  0  0  0  0  0  0  0  0  0  0
   -0.0409   -0.0912    1.9869 H   0  0  0  0  0  0  0  0  0  0  0  0
    0.1518    1.4839    1.2026 H   0  0  0  0  0  0  0  0  0  0  0  0
  1  2  1  0
  2  3  1  0
  3  4  1  0
  4  5  2  0
  4  6  1  0
  6  7  1  0
  7  8  1  0
  8  9  1  0
  9 10  1  0
 10 11  1  0
 11 12  1  0
  6 13  1  0
 13 14  1  0
 14 15  1  0
 15 16  1  0
 16 17  1  0
 17 18  2  0
 17 19  1  0
 19 20  2  0
 20 21  1  0
 21 22  2  0
 22 23  1  0
 22 24  1  0
 16 25  1  0
 12  7  1  0
 25 13  1  0
 24 19  1  0
  1 26  1  0
  1 27  1  0
  1 28  1  0
  3 29  1  0
  3 30  1  0
  7 31  1  0
  8 32  1  0
  8 33  1  0
  9 34  1  0
  9 35  1  0
 11 36  1  0
 11 37  1  0
 12 38  1  0
 12 39  1  0
 13 40  1  0
 14 41  1  0
 14 42  1  0
 15 43  1  0
 15 44  1  0
 20 45  1  0
 21 46  1  0
 23 47  1  0
 23 48  1  0
 23 49  1  0
 25 50  1  0
 25 51  1  0
M  END
$$$$
