
     RDKit          3D

 21 23  0  0  0  0  0  0  0  0999 V2000
   -0.3012    3.3036   -0.1147 O   0  0  0  0  0  0  0  0  0  0  0  0
    0.1241    2.1528   -0.0804 C   0  0  0  0  0  0  0  0  0  0  0  0
    1.4776    1.8899   -0.0946 N   0  0  0  0  0  0  0  0  0  0  0  0
    1.9144    0.5969   -0.0554 C   0  0  0  0  0  0  0  0  0  0  0  0
    3.5706    0.3051   -0.0739 S   0  0  0  0  0  0  0  0  0  0  0  0
    3.2962   -1.3906   -0.0075 C   0  0  0  0  0  0  0  0  0  0  0  0
    1.9479   -1.6985    0.0274 C   0  0  0  0  0  0  0  0  0  0  0  0
    1.1328   -0.5274   -0.0008 C   0  0  0  0  0  0  0  0  0  0  0  0
   -0.3075   -0.3330    0.0175 C   0  0  0  0  0  0  0  0  0  0  0  0
   -1.2009   -1.4082    0.0723 C   0  0  0  0  0  0  0  0  0  0  0  0
   -2.5791   -1.1734    0.0880 C   0  0  0  0  0  0  0  0  0  0  0  0
   -3.0736    0.1310    0.0493 C   0  0  0  0  0  0  0  0  0  0  0  0
   -2.1926    1.2112   -0.0054 C   0  0  0  0  0  0  0  0  0  0  0  0
   -0.8113    0.9836   -0.0214 C   0  0  0  0  0  0  0  0  0  0  0  0
    2.1300    2.6602   -0.1341 H   0  0  0  0  0  0  0  0  0  0  0  0
    4.1340   -2.0745    0.0026 H   0  0  0  0  0  0  0  0  0  0  0  0
    1.5818   -2.7165    0.0708 H   0  0  0  0  0  0  0  0  0  0  0  0
   -0.8443   -2.4340    0.1032 H   0  0  0  0  0  0  0  0  0  0  0  0
   -3.2706   -2.0122    0.1306 H   0  0  0  0  0  0  0  0  0  0  0  0
   -4.1467    0.3072    0.0618 H   0  0  0  0  0  0  0  0  0  0  0  0
   -2.5818    2.2268   -0.0354 H   0  0  0  0  0  0  0  0  0  0  0  0
  1  2  2  0
  2  3  1  0
  3  4  1  0
  4  5  1  0
  5  6  1  0
  6  7  2  0
  7  8  1  0
  8  9  1  0
  9 10  2  0
 10 11  1  0
 11 12  2  0
 12 13  1  0
 13 14  2  0
 14  2  1  0
  8  4  2  0
 14  9  1  0
  3 15  1  0
  6 16  1  0
  7 17  1  0
 10 18  1  0
 11 19  1  0
 12 20  1  0
 13 21  1  0
M  END
$$$$
