
     RDKit          3D

 43 45  0  0  0  0  0  0  0  0999 V2000
    3.8496    1.0548    1.7135 C   0  0  0  0  0  0  0  0  0  0  0  0
    4.2568    0.3823    0.4510 C   0  0  0  0  0  0  0  0  0  0  0  0
    5.3984    0.7140   -0.2111 N   0  0  0  0  0  0  0  0  0  0  0  0
    5.5028   -0.0534   -1.3030 C   0  0  0  0  0  0  0  0  0  0  0  0
    4.3896   -0.8734   -1.2996 C   0  0  0  0  0  0  0  0  0  0  0  0
    3.6364   -0.5978   -0.2236 N   0  0  0  0  0  0  0  0  0  0  0  0
    2.4032   -1.2330    0.1298 C   0  0  0  0  0  0  0  0  0  0  0  0
    1.1947   -0.5540   -0.4663 C   0  0  0  0  0  0  0  0  0  0  0  0
    1.0378    0.8708   -0.0471 C   0  0  0  0  0  0  0  0  0  0  0  0
   -0.1608    1.4461   -0.8128 C   0  0  0  0  0  0  0  0  0  0  0  0
   -1.4215    0.7491   -0.4251 C   0  0  0  0  0  0  0  0  0  0  0  0
   -1.3285   -0.6121   -0.1065 C   0  0  0  0  0  0  0  0  0  0  0  0
   -2.6166   -0.9898    0.2075 C   0  0  0  0  0  0  0  0  0  0  0  0
   -3.1597   -2.1982    0.5977 C   0  0  0  0  0  0  0  0  0  0  0  0
   -4.5041   -2.3105    0.8561 C   0  0  0  0  0  0  0  0  0  0  0  0
   -5.3555   -1.2390    0.7389 C   0  0  0  0  0  0  0  0  0  0  0  0
   -4.8338   -0.0209    0.3499 C   0  0  0  0  0  0  0  0  0  0  0  0
   -3.4707    0.0797    0.0912 C   0  0  0  0  0  0  0  0  0  0  0  0
   -2.7037    1.1270   -0.2979 N   0  0  0  0  0  0  0  0  0  0  0  0
   -3.1981    2.4855   -0.5469 C   0  0  0  0  0  0  0  0  0  0  0  0
   -0.0482   -1.2936   -0.1587 C   0  0  0  0  0  0  0  0  0  0  0  0
    0.0052   -2.5239    0.0594 O   0  0  0  0  0  0  0  0  0  0  0  0
    0.6911    0.0000    0.0000 Cl  0  0  0  0  0  0  0  0  0  0  0  0
    2.9536    0.5536    2.1235 H   0  0  0  0  0  0  0  0  0  0  0  0
    4.6484    0.9114    2.4961 H   0  0  0  0  0  0  0  0  0  0  0  0
    3.6847    2.1371    1.5623 H   0  0  0  0  0  0  0  0  0  0  0  0
    6.2978   -0.0481   -2.0557 H   0  0  0  0  0  0  0  0  0  0  0  0
    4.2262   -1.6053   -2.0897 H   0  0  0  0  0  0  0  0  0  0  0  0
    2.2457   -1.3008    1.2372 H   0  0  0  0  0  0  0  0  0  0  0  0
    2.3642   -2.2983   -0.2223 H   0  0  0  0  0  0  0  0  0  0  0  0
    1.2995   -0.5634   -1.5778 H   0  0  0  0  0  0  0  0  0  0  0  0
    1.9090    1.4701   -0.3901 H   0  0  0  0  0  0  0  0  0  0  0  0
    0.8505    0.9207    1.0274 H   0  0  0  0  0  0  0  0  0  0  0  0
    0.0087    1.2084   -1.8908 H   0  0  0  0  0  0  0  0  0  0  0  0
   -0.2009    2.5278   -0.6084 H   0  0  0  0  0  0  0  0  0  0  0  0
   -2.4802   -3.0491    0.6903 H   0  0  0  0  0  0  0  0  0  0  0  0
   -4.8763   -3.2822    1.1589 H   0  0  0  0  0  0  0  0  0  0  0  0
   -6.4319   -1.3364    0.9476 H   0  0  0  0  0  0  0  0  0  0  0  0
   -5.4404    0.8661    0.2360 H   0  0  0  0  0  0  0  0  0  0  0  0
   -2.6644    3.2195    0.0943 H   0  0  0  0  0  0  0  0  0  0  0  0
   -4.2842    2.5171   -0.4230 H   0  0  0  0  0  0  0  0  0  0  0  0
   -2.9832    2.7422   -1.6124 H   0  0  0  0  0  0  0  0  0  0  0  0
   -0.6911    0.0000    0.0000 H   0  0  0  0  0  0  0  0  0  0  0  0
  1  2  1  0
  2  3  2  0
  3  4  1  0
  4  5  2  0
  5  6  1  0
  6  7  1  0
  7  8  1  0
  8  9  1  0
  9 10  1  0
 10 11  1  0
 11 12  2  0
 12 13  1  0
 13 14  2  0
 14 15  1  0
 15 16  2  0
 16 17  1  0
 17 18  2  0
 18 19  1  0
 19 20  1  0
 12 21  1  0
 21 22  2  0
  6  2  1  0
 21  8  1  0
 19 11  1  0
 18 13  1  0
  1 24  1  0
  1 25  1  0
  1 26  1  0
  4 27  1  0
  5 28  1  0
  7 29  1  0
  7 30  1  0
  8 31  1  0
  9 32  1  0
  9 33  1  0
 10 34  1  0
 10 35  1  0
 14 36  1  0
 15 37  1  0
 16 38  1  0
 17 39  1  0
 20 40  1  0
 20 41  1  0
 20 42  1  0
 23 43  1  0
M  END
$$$$
