
     RDKit          3D

 45 47  0  0  0  0  0  0  0  0999 V2000
   -5.3547   -2.9490   -0.0837 C   0  0  0  0  0  0  0  0  0  0  0  0
   -4.4387   -3.1911   -1.2697 C   0  0  0  0  0  0  0  0  0  0  0  0
   -3.0537   -2.9992   -0.9207 N   0  0  0  0  0  0  0  0  0  0  0  0
   -2.4454   -1.7607   -0.8923 C   0  0  0  0  0  0  0  0  0  0  0  0
   -3.0084   -0.7296   -1.2454 O   0  0  0  0  0  0  0  0  0  0  0  0
   -1.0594   -1.8169   -0.3872 C   0  0  0  0  0  0  0  0  0  0  0  0
   -0.5295   -2.9889    0.0258 N   0  0  0  0  0  0  0  0  0  0  0  0
    0.6983   -2.6550    0.4460 N   0  0  0  0  0  0  0  0  0  0  0  0
    1.0331   -1.3342    0.2860 C   0  0  0  0  0  0  0  0  0  0  0  0
    2.3715   -0.8343    0.6481 C   0  0  0  0  0  0  0  0  0  0  0  0
    2.9446    0.2363   -0.0547 C   0  0  0  0  0  0  0  0  0  0  0  0
    4.2076    0.7288    0.2873 C   0  0  0  0  0  0  0  0  0  0  0  0
    4.8472    2.0563   -0.6117 Cl  0  0  0  0  0  0  0  0  0  0  0  0
    4.9272    0.1461    1.3327 C   0  0  0  0  0  0  0  0  0  0  0  0
    6.1633    0.6301    1.6626 O   0  0  0  0  0  0  0  0  0  0  0  0
    4.3930   -0.9319    2.0346 C   0  0  0  0  0  0  0  0  0  0  0  0
    3.1276   -1.4160    1.6868 C   0  0  0  0  0  0  0  0  0  0  0  0
    2.6194   -2.4925    2.3720 O   0  0  0  0  0  0  0  0  0  0  0  0
   -0.1197   -0.7496   -0.2297 C   0  0  0  0  0  0  0  0  0  0  0  0
   -0.2801    0.6673   -0.5007 C   0  0  0  0  0  0  0  0  0  0  0  0
   -0.4897    1.1175   -1.8065 C   0  0  0  0  0  0  0  0  0  0  0  0
   -0.6154    2.4854   -2.0632 C   0  0  0  0  0  0  0  0  0  0  0  0
   -0.5363    3.4175   -1.0255 C   0  0  0  0  0  0  0  0  0  0  0  0
   -0.6698    4.7210   -1.4172 O   0  0  0  0  0  0  0  0  0  0  0  0
   -0.6017    5.7084   -0.3966 C   0  0  0  0  0  0  0  0  0  0  0  0
   -0.3361    2.9688    0.2802 C   0  0  0  0  0  0  0  0  0  0  0  0
   -0.2114    1.5992    0.5418 C   0  0  0  0  0  0  0  0  0  0  0  0
   -5.2654   -1.9208    0.2820 H   0  0  0  0  0  0  0  0  0  0  0  0
   -6.3977   -3.1228   -0.3653 H   0  0  0  0  0  0  0  0  0  0  0  0
   -5.1058   -3.6198    0.7453 H   0  0  0  0  0  0  0  0  0  0  0  0
   -4.5457   -4.2201   -1.6263 H   0  0  0  0  0  0  0  0  0  0  0  0
   -4.7004   -2.5129   -2.0887 H   0  0  0  0  0  0  0  0  0  0  0  0
   -2.4994   -3.7580   -0.5314 H   0  0  0  0  0  0  0  0  0  0  0  0
    1.2877   -3.3725    0.8565 H   0  0  0  0  0  0  0  0  0  0  0  0
    2.4180    0.6952   -0.8876 H   0  0  0  0  0  0  0  0  0  0  0  0
    6.5389    0.1184    2.3963 H   0  0  0  0  0  0  0  0  0  0  0  0
    4.9575   -1.3950    2.8365 H   0  0  0  0  0  0  0  0  0  0  0  0
    3.1677   -2.6576    3.1587 H   0  0  0  0  0  0  0  0  0  0  0  0
   -0.5617    0.4140   -2.6322 H   0  0  0  0  0  0  0  0  0  0  0  0
   -0.7816    2.8266   -3.0820 H   0  0  0  0  0  0  0  0  0  0  0  0
   -0.7259    6.6873   -0.8697 H   0  0  0  0  0  0  0  0  0  0  0  0
    0.3756    5.6992    0.0972 H   0  0  0  0  0  0  0  0  0  0  0  0
   -1.4130    5.5839    0.3282 H   0  0  0  0  0  0  0  0  0  0  0  0
   -0.2734    3.6545    1.1180 H   0  0  0  0  0  0  0  0  0  0  0  0
   -0.0583    1.2666    1.5658 H   0  0  0  0  0  0  0  0  0  0  0  0
  1  2  1  0
  2  3  1  0
  3  4  1  0
  4  5  2  0
  4  6  1  0
  6  7  2  0
  7  8  1  0
  8  9  1  0
  9 10  1  0
 10 11  2  0
 11 12  1  0
 12 13  1  0
 12 14  2  0
 14 15  1  0
 14 16  1  0
 16 17  2  0
 17 18  1  0
  9 19  2  0
 19 20  1  0
 20 21  2  0
 21 22  1  0
 22 23  2  0
 23 24  1  0
 24 25  1  0
 23 26  1  0
 26 27  2  0
 19  6  1  0
 27 20  1  0
 17 10  1  0
  1 28  1  0
  1 29  1  0
  1 30  1  0
  2 31  1  0
  2 32  1  0
  3 33  1  0
  8 34  1  0
 11 35  1  0
 15 36  1  0
 16 37  1  0
 18 38  1  0
 21 39  1  0
 22 40  1  0
 25 41  1  0
 25 42  1  0
 25 43  1  0
 26 44  1  0
 27 45  1  0
M  END
$$$$
