
     RDKit          3D

 30 31  0  0  0  0  0  0  0  0999 V2000
    5.2803   -0.6386   -0.7064 C   0  0  0  0  0  0  0  0  0  0  0  0
    4.0153   -1.2878   -0.7405 O   0  0  0  0  0  0  0  0  0  0  0  0
    2.9177   -0.5269   -0.4483 C   0  0  0  0  0  0  0  0  0  0  0  0
    2.9225    0.8220   -0.1157 C   0  0  0  0  0  0  0  0  0  0  0  0
    1.7156    1.4670    0.1586 C   0  0  0  0  0  0  0  0  0  0  0  0
    0.4885    0.7633    0.1016 C   0  0  0  0  0  0  0  0  0  0  0  0
   -0.7729    1.3101    0.3573 C   0  0  0  0  0  0  0  0  0  0  0  0
   -0.9542    2.7533    0.7312 C   0  0  0  0  0  0  0  0  0  0  0  0
   -1.9089    0.5830    0.2858 N   0  0  0  0  0  0  0  0  0  0  0  0
   -1.8057   -0.7125   -0.0472 C   0  0  0  0  0  0  0  0  0  0  0  0
   -2.9373   -1.5111   -0.1345 N   0  0  0  0  0  0  0  0  0  0  0  0
   -4.2216   -1.1005   -0.1501 C   0  0  0  0  0  0  0  0  0  0  0  0
   -4.6974    0.0827    0.0215 N   0  0  0  0  0  0  0  0  0  0  0  0
   -5.1023   -2.1059   -0.3664 N   0  0  0  0  0  0  0  0  0  0  0  0
   -0.6395   -1.3193   -0.3062 N   0  0  0  0  0  0  0  0  0  0  0  0
    0.4841   -0.5940   -0.2335 C   0  0  0  0  0  0  0  0  0  0  0  0
    1.6991   -1.2123   -0.5016 C   0  0  0  0  0  0  0  0  0  0  0  0
    5.5043   -0.2640    0.2979 H   0  0  0  0  0  0  0  0  0  0  0  0
    6.0434   -1.3794   -0.9636 H   0  0  0  0  0  0  0  0  0  0  0  0
    5.3316    0.1646   -1.4489 H   0  0  0  0  0  0  0  0  0  0  0  0
    3.8397    1.3989   -0.0605 H   0  0  0  0  0  0  0  0  0  0  0  0
    1.7391    2.5231    0.4170 H   0  0  0  0  0  0  0  0  0  0  0  0
   -0.4220    2.9772    1.6609 H   0  0  0  0  0  0  0  0  0  0  0  0
   -2.0132    2.9840    0.8890 H   0  0  0  0  0  0  0  0  0  0  0  0
   -0.5866    3.4045   -0.0680 H   0  0  0  0  0  0  0  0  0  0  0  0
   -2.7127   -2.4036   -0.5417 H   0  0  0  0  0  0  0  0  0  0  0  0
   -3.8891    0.7081    0.1777 H   0  0  0  0  0  0  0  0  0  0  0  0
   -4.9761   -2.8860    0.2663 H   0  0  0  0  0  0  0  0  0  0  0  0
   -6.0425   -1.7314   -0.2620 H   0  0  0  0  0  0  0  0  0  0  0  0
    1.7008   -2.2687   -0.7629 H   0  0  0  0  0  0  0  0  0  0  0  0
  1  2  1  0
  2  3  1  0
  3  4  2  0
  4  5  1  0
  5  6  2  0
  6  7  1  0
  7  8  1  0
  7  9  2  0
  9 10  1  0
 10 11  1  0
 11 12  1  0
 12 13  2  3
 12 14  1  0
 10 15  2  0
 15 16  1  0
 16 17  2  0
 17  3  1  0
 16  6  1  0
  1 18  1  0
  1 19  1  0
  1 20  1  0
  4 21  1  0
  5 22  1  0
  8 23  1  0
  8 24  1  0
  8 25  1  0
 11 26  1  0
 13 27  1  0
 14 28  1  0
 14 29  1  0
 17 30  1  0
M  END
$$$$
