
     RDKit          3D

 41 43  0  0  0  0  0  0  0  0999 V2000
   -3.7428   -3.1565    1.9600 C   0  0  0  0  0  0  0  0  0  0  0  0
   -4.3769   -2.2062    1.1167 O   0  0  0  0  0  0  0  0  0  0  0  0
   -3.6057   -1.2058    0.5819 C   0  0  0  0  0  0  0  0  0  0  0  0
   -2.2206   -1.1068    0.7330 C   0  0  0  0  0  0  0  0  0  0  0  0
   -1.5128   -0.0452    0.1413 C   0  0  0  0  0  0  0  0  0  0  0  0
   -0.1245    0.0791    0.2700 C   0  0  0  0  0  0  0  0  0  0  0  0
    0.5346    1.1523   -0.3381 C   0  0  0  0  0  0  0  0  0  0  0  0
    2.0046    1.3069   -0.2032 C   0  0  0  0  0  0  0  0  0  0  0  0
    2.4544    2.4329   -0.0259 O   0  0  0  0  0  0  0  0  0  0  0  0
    2.7252    0.1321   -0.3318 N   0  0  0  0  0  0  0  0  0  0  0  0
    4.1219   -0.0314   -0.2101 C   0  0  0  0  0  0  0  0  0  0  0  0
    4.9985    0.9889    0.1623 C   0  0  0  0  0  0  0  0  0  0  0  0
    6.3715    0.7413    0.2657 C   0  0  0  0  0  0  0  0  0  0  0  0
    6.8787   -0.5281    0.0001 C   0  0  0  0  0  0  0  0  0  0  0  0
    6.0130   -1.5538   -0.3682 C   0  0  0  0  0  0  0  0  0  0  0  0
    4.6414   -1.3067   -0.4713 C   0  0  0  0  0  0  0  0  0  0  0  0
   -0.2221    2.1000   -1.0321 C   0  0  0  0  0  0  0  0  0  0  0  0
    0.3574    3.2037   -1.6775 N   0  0  0  0  0  0  0  0  0  0  0  0
   -1.5574    1.9705   -1.1768 N   0  0  0  0  0  0  0  0  0  0  0  0
   -2.1928    0.9339   -0.6046 C   0  0  0  0  0  0  0  0  0  0  0  0
   -3.5677    0.8205   -0.7491 C   0  0  0  0  0  0  0  0  0  0  0  0
   -4.2865   -0.2325   -0.1707 C   0  0  0  0  0  0  0  0  0  0  0  0
   -5.6455   -0.3966   -0.2809 O   0  0  0  0  0  0  0  0  0  0  0  0
   -6.3705    0.5837   -1.0109 C   0  0  0  0  0  0  0  0  0  0  0  0
   -3.0083   -3.7477    1.4036 H   0  0  0  0  0  0  0  0  0  0  0  0
   -4.5113   -3.8429    2.3283 H   0  0  0  0  0  0  0  0  0  0  0  0
   -3.2852   -2.6723    2.8291 H   0  0  0  0  0  0  0  0  0  0  0  0
   -1.6698   -1.8462    1.3050 H   0  0  0  0  0  0  0  0  0  0  0  0
    0.4312   -0.6401    0.8660 H   0  0  0  0  0  0  0  0  0  0  0  0
    2.2158   -0.6981   -0.6068 H   0  0  0  0  0  0  0  0  0  0  0  0
    4.6481    1.9915    0.3856 H   0  0  0  0  0  0  0  0  0  0  0  0
    7.0426    1.5460    0.5560 H   0  0  0  0  0  0  0  0  0  0  0  0
    7.9462   -0.7158    0.0811 H   0  0  0  0  0  0  0  0  0  0  0  0
    6.4048   -2.5461   -0.5761 H   0  0  0  0  0  0  0  0  0  0  0  0
    3.9901   -2.1265   -0.7621 H   0  0  0  0  0  0  0  0  0  0  0  0
    0.9813    3.6656   -1.0089 H   0  0  0  0  0  0  0  0  0  0  0  0
    0.9645    2.8841   -2.4263 H   0  0  0  0  0  0  0  0  0  0  0  0
   -4.0623    1.5910   -1.3322 H   0  0  0  0  0  0  0  0  0  0  0  0
   -6.0572    0.6064   -2.0598 H   0  0  0  0  0  0  0  0  0  0  0  0
   -7.4281    0.3038   -0.9866 H   0  0  0  0  0  0  0  0  0  0  0  0
   -6.2777    1.5712   -0.5469 H   0  0  0  0  0  0  0  0  0  0  0  0
  1  2  1  0
  2  3  1  0
  3  4  2  0
  4  5  1  0
  5  6  2  0
  6  7  1  0
  7  8  1  0
  8  9  2  0
  8 10  1  0
 10 11  1  0
 11 12  2  0
 12 13  1  0
 13 14  2  0
 14 15  1  0
 15 16  2  0
  7 17  2  0
 17 18  1  0
 17 19  1  0
 19 20  2  0
 20 21  1  0
 21 22  2  0
 22 23  1  0
 23 24  1  0
 22  3  1  0
 20  5  1  0
 16 11  1  0
  1 25  1  0
  1 26  1  0
  1 27  1  0
  4 28  1  0
  6 29  1  0
 10 30  1  0
 12 31  1  0
 13 32  1  0
 14 33  1  0
 15 34  1  0
 16 35  1  0
 18 36  1  0
 18 37  1  0
 21 38  1  0
 24 39  1  0
 24 40  1  0
 24 41  1  0
M  END
$$$$
