
     RDKit          3D

 38 40  0  0  0  0  0  0  0  0999 V2000
    5.3485    1.5750   -2.2275 C   0  0  0  0  0  0  0  0  0  0  0  0
    3.8491    1.3747   -2.1256 C   0  0  0  0  0  0  0  0  0  0  0  0
    3.4858    0.7085   -0.8915 N   0  0  0  0  0  0  0  0  0  0  0  0
    2.1853    0.7313   -0.4298 C   0  0  0  0  0  0  0  0  0  0  0  0
    1.2820    1.3536   -0.9826 O   0  0  0  0  0  0  0  0  0  0  0  0
    1.9395   -0.1274    0.8153 C   0  0  1  0  0  0  0  0  0  0  0  0
    0.8354    0.3739    1.5895 O   0  0  0  0  0  0  0  0  0  0  0  0
   -0.2800   -0.5194    1.4155 C   0  0  1  0  0  0  0  0  0  0  0  0
   -1.4929    0.2385    1.1686 N   0  0  0  0  0  0  0  0  0  0  0  0
   -1.6336    1.5956    1.0638 C   0  0  0  0  0  0  0  0  0  0  0  0
   -2.8912    1.9472    0.8804 N   0  0  0  0  0  0  0  0  0  0  0  0
   -3.5887    0.7584    0.8372 C   0  0  0  0  0  0  0  0  0  0  0  0
   -4.9498    0.4600    0.6607 C   0  0  0  0  0  0  0  0  0  0  0  0
   -5.9229    1.4313    0.4680 N   0  0  0  0  0  0  0  0  0  0  0  0
   -5.3360   -0.8363    0.6988 N   0  0  0  0  0  0  0  0  0  0  0  0
   -4.3898   -1.7841    0.8708 C   0  0  0  0  0  0  0  0  0  0  0  0
   -3.0562   -1.6248    1.0304 N   0  0  0  0  0  0  0  0  0  0  0  0
   -2.7357   -0.3175    1.0165 C   0  0  0  0  0  0  0  0  0  0  0  0
    0.0671   -1.4730    0.2691 C   0  0  2  0  0  0  0  0  0  0  0  0
   -0.4875   -2.7840    0.4074 O   0  0  0  0  0  0  0  0  0  0  0  0
    1.5797   -1.5386    0.3707 C   0  0  2  0  0  0  0  0  0  0  0  0
    1.9612   -2.4895    1.3749 O   0  0  0  0  0  0  0  0  0  0  0  0
    5.6048    2.0756   -3.1660 H   0  0  0  0  0  0  0  0  0  0  0  0
    5.7182    2.1870   -1.3981 H   0  0  0  0  0  0  0  0  0  0  0  0
    5.8757    0.6157   -2.1948 H   0  0  0  0  0  0  0  0  0  0  0  0
    3.4901    0.7535   -2.9531 H   0  0  0  0  0  0  0  0  0  0  0  0
    3.3322    2.3389   -2.1795 H   0  0  0  0  0  0  0  0  0  0  0  0
    4.1335    0.0327   -0.5030 H   0  0  0  0  0  0  0  0  0  0  0  0
    2.8282   -0.1033    1.4551 H   0  0  0  0  0  0  0  0  0  0  0  0
   -0.4340   -1.0560    2.3599 H   0  0  0  0  0  0  0  0  0  0  0  0
   -0.7939    2.2779    1.1289 H   0  0  0  0  0  0  0  0  0  0  0  0
   -5.6356    2.3553    0.7720 H   0  0  0  0  0  0  0  0  0  0  0  0
   -6.8452    1.1118    0.7304 H   0  0  0  0  0  0  0  0  0  0  0  0
   -4.7509   -2.8092    0.8821 H   0  0  0  0  0  0  0  0  0  0  0  0
   -0.2325   -1.0629   -0.7029 H   0  0  0  0  0  0  0  0  0  0  0  0
   -1.4595   -2.6670    0.4966 H   0  0  0  0  0  0  0  0  0  0  0  0
    2.0489   -1.8550   -0.5659 H   0  0  0  0  0  0  0  0  0  0  0  0
    1.3505   -3.2482    1.2524 H   0  0  0  0  0  0  0  0  0  0  0  0
  1  2  1  0
  2  3  1  0
  3  4  1  0
  4  5  2  0
  4  6  1  0
  6  7  1  0
  7  8  1  0
  8  9  1  0
  9 10  1  0
 10 11  2  0
 11 12  1  0
 12 13  2  0
 13 14  1  0
 13 15  1  0
 15 16  2  0
 16 17  1  0
 17 18  2  0
  8 19  1  0
 19 20  1  0
 19 21  1  0
 21 22  1  0
 21  6  1  0
 18  9  1  0
 18 12  1  0
  1 23  1  0
  1 24  1  0
  1 25  1  0
  2 26  1  0
  2 27  1  0
  3 28  1  0
  6 29  1  1
  8 30  1  1
 10 31  1  0
 14 32  1  0
 14 33  1  0
 16 34  1  0
 19 35  1  6
 20 36  1  0
 21 37  1  6
 22 38  1  0
M  END
$$$$
