
     RDKit          3D

104110  0  0  0  0  0  0  0  0999 V2000
   11.2846   -0.2389   -3.9365 C   0  0  0  0  0  0  0  0  0  0  0  0
   10.4462    0.2765   -2.8106 C   0  0  0  0  0  0  0  0  0  0  0  0
   10.3028    1.9584   -2.5765 S   0  0  0  0  0  0  0  0  0  0  0  0
    9.2440    1.7570   -1.2796 C   0  0  0  0  0  0  0  0  0  0  0  0
    9.0552    0.4323   -0.9182 C   0  0  0  0  0  0  0  0  0  0  0  0
    9.7034   -0.4455   -1.8861 C   0  0  0  0  0  0  0  0  0  0  0  0
    9.5975   -1.9426   -1.9006 C   0  0  0  0  0  0  0  0  0  0  0  0
    8.3373    0.0121    0.2969 C   0  0  0  0  0  0  0  0  0  0  0  0
    8.9490   -1.0464    1.1551 C   0  0  0  0  0  0  0  0  0  0  0  0
   10.3338   -1.1079    1.3623 C   0  0  0  0  0  0  0  0  0  0  0  0
   10.8721   -2.1008    2.1857 C   0  0  0  0  0  0  0  0  0  0  0  0
   10.0287   -3.0213    2.8079 C   0  0  0  0  0  0  0  0  0  0  0  0
   10.6979   -4.2443    3.8161 Cl  0  0  0  0  0  0  0  0  0  0  0  0
    8.6488   -2.9548    2.6222 C   0  0  0  0  0  0  0  0  0  0  0  0
    8.1075   -1.9644    1.7990 C   0  0  0  0  0  0  0  0  0  0  0  0
    7.2300    0.5353    0.6959 N   0  0  0  0  0  0  0  0  0  0  0  0
    6.5491    1.5653   -0.0932 C   0  0  1  0  0  0  0  0  0  0  0  0
    5.1799    1.8175    0.5467 C   0  0  0  0  0  0  0  0  0  0  0  0
    4.2187    0.6738    0.3002 C   0  0  0  0  0  0  0  0  0  0  0  0
    4.3687   -0.1726   -0.5749 O   0  0  0  0  0  0  0  0  0  0  0  0
    3.1117    0.7176    1.1275 N   0  0  0  0  0  0  0  0  0  0  0  0
    2.1297   -0.3472    1.1094 C   0  0  0  0  0  0  0  0  0  0  0  0
    0.8945   -0.0092    1.9412 C   0  0  0  0  0  0  0  0  0  0  0  0
    0.0930    1.1986    1.4411 C   0  0  0  0  0  0  0  0  0  0  0  0
   -0.4936    1.0674    0.0319 C   0  0  0  0  0  0  0  0  0  0  0  0
   -1.4049   -0.1420   -0.2016 C   0  0  0  0  0  0  0  0  0  0  0  0
   -2.5750   -0.2959    0.7755 C   0  0  0  0  0  0  0  0  0  0  0  0
   -3.5833    0.8560    0.7196 C   0  0  0  0  0  0  0  0  0  0  0  0
   -4.6879    0.7361    1.7725 C   0  0  0  0  0  0  0  0  0  0  0  0
   -5.5684   -0.3872    1.5400 N   0  0  0  0  0  0  0  0  0  0  0  0
   -5.4239   -1.6039    2.1705 C   0  0  0  0  0  0  0  0  0  0  0  0
   -4.5266   -1.8550    2.9708 O   0  0  0  0  0  0  0  0  0  0  0  0
   -6.4657   -2.6526    1.7775 C   0  0  0  0  0  0  0  0  0  0  0  0
   -7.5043   -2.0639    1.0018 O   0  0  0  0  0  0  0  0  0  0  0  0
   -8.5941   -2.8263    0.7221 C   0  0  0  0  0  0  0  0  0  0  0  0
   -8.6933   -4.2121    0.8975 C   0  0  0  0  0  0  0  0  0  0  0  0
   -9.8810   -4.9039    0.5722 C   0  0  0  0  0  0  0  0  0  0  0  0
  -10.9894   -4.2254    0.0625 C   0  0  0  0  0  0  0  0  0  0  0  0
  -10.8659   -2.8609   -0.1079 C   0  0  0  0  0  0  0  0  0  0  0  0
   -9.7040   -2.1788    0.2063 C   0  0  0  0  0  0  0  0  0  0  0  0
   -9.9350   -0.7643   -0.1035 C   0  0  0  0  0  0  0  0  0  0  0  0
   -9.1070    0.1204    0.0007 O   0  0  0  0  0  0  0  0  0  0  0  0
  -11.2262   -0.6616   -0.5434 N   0  0  0  0  0  0  0  0  0  0  0  0
  -11.8501    0.5556   -1.0449 C   0  0  0  0  0  0  0  0  0  0  0  0
  -11.8715    1.7241   -0.0570 C   0  0  0  0  0  0  0  0  0  0  0  0
  -10.7867    2.7608   -0.2999 C   0  0  0  0  0  0  0  0  0  0  0  0
  -10.6909    3.1601   -1.7518 C   0  0  0  0  0  0  0  0  0  0  0  0
  -10.1855    4.2217   -2.1065 O   0  0  0  0  0  0  0  0  0  0  0  0
  -11.1073    2.2410   -2.6753 N   0  0  0  0  0  0  0  0  0  0  0  0
  -11.2356    0.9040   -2.4042 C   0  0  0  0  0  0  0  0  0  0  0  0
  -10.8999    0.0608   -3.2333 O   0  0  0  0  0  0  0  0  0  0  0  0
  -11.8332   -1.8867   -0.6029 C   0  0  0  0  0  0  0  0  0  0  0  0
  -12.9589   -2.1687   -0.9655 O   0  0  0  0  0  0  0  0  0  0  0  0
    7.3693    2.8175   -0.1007 C   0  0  0  0  0  0  0  0  0  0  0  0
    7.0259    4.0097    0.3361 N   0  0  0  0  0  0  0  0  0  0  0  0
    8.0173    4.8814   -0.0043 N   0  0  0  0  0  0  0  0  0  0  0  0
    8.9614    4.2136   -0.6382 C   0  0  0  0  0  0  0  0  0  0  0  0
   10.2309    4.8225   -1.1006 C   0  0  0  0  0  0  0  0  0  0  0  0
    8.6114    2.8698   -0.7123 N   0  0  0  0  0  0  0  0  0  0  0  0
   11.9894    0.5133   -4.3065 H   0  0  0  0  0  0  0  0  0  0  0  0
   10.6456   -0.5451   -4.7710 H   0  0  0  0  0  0  0  0  0  0  0  0
   11.8714   -1.1056   -3.6131 H   0  0  0  0  0  0  0  0  0  0  0  0
    9.6012   -2.3238   -2.9272 H   0  0  0  0  0  0  0  0  0  0  0  0
    8.6656   -2.2833   -1.4397 H   0  0  0  0  0  0  0  0  0  0  0  0
   10.4433   -2.3897   -1.3694 H   0  0  0  0  0  0  0  0  0  0  0  0
   11.0033   -0.3858    0.9010 H   0  0  0  0  0  0  0  0  0  0  0  0
   11.9465   -2.1468    2.3444 H   0  0  0  0  0  0  0  0  0  0  0  0
    7.9894   -3.6647    3.1151 H   0  0  0  0  0  0  0  0  0  0  0  0
    7.0291   -1.9109    1.6587 H   0  0  0  0  0  0  0  0  0  0  0  0
    6.3995    1.2226   -1.1261 H   0  0  0  0  0  0  0  0  0  0  0  0
    5.2855    1.9783    1.6274 H   0  0  0  0  0  0  0  0  0  0  0  0
    4.7114    2.7129    0.1189 H   0  0  0  0  0  0  0  0  0  0  0  0
    3.1793    1.2871    1.9622 H   0  0  0  0  0  0  0  0  0  0  0  0
    1.8677   -0.5774    0.0714 H   0  0  0  0  0  0  0  0  0  0  0  0
    2.6161   -1.2376    1.5243 H   0  0  0  0  0  0  0  0  0  0  0  0
    1.2083    0.1970    2.9727 H   0  0  0  0  0  0  0  0  0  0  0  0
    0.2460   -0.8911    1.9900 H   0  0  0  0  0  0  0  0  0  0  0  0
   -0.7189    1.3924    2.1523 H   0  0  0  0  0  0  0  0  0  0  0  0
    0.7282    2.0929    1.4681 H   0  0  0  0  0  0  0  0  0  0  0  0
   -1.0477    1.9850   -0.1979 H   0  0  0  0  0  0  0  0  0  0  0  0
    0.3238    1.0309   -0.6978 H   0  0  0  0  0  0  0  0  0  0  0  0
   -1.7990   -0.0842   -1.2241 H   0  0  0  0  0  0  0  0  0  0  0  0
   -0.8006   -1.0561   -0.1628 H   0  0  0  0  0  0  0  0  0  0  0  0
   -3.0876   -1.2323    0.5254 H   0  0  0  0  0  0  0  0  0  0  0  0
   -2.1970   -0.4122    1.7974 H   0  0  0  0  0  0  0  0  0  0  0  0
   -4.0289    0.9021   -0.2817 H   0  0  0  0  0  0  0  0  0  0  0  0
   -3.0680    1.8077    0.8881 H   0  0  0  0  0  0  0  0  0  0  0  0
   -4.2553    0.6650    2.7764 H   0  0  0  0  0  0  0  0  0  0  0  0
   -5.3151    1.6336    1.7420 H   0  0  0  0  0  0  0  0  0  0  0  0
   -6.3731   -0.2702    0.9273 H   0  0  0  0  0  0  0  0  0  0  0  0
   -5.9498   -3.4221    1.1931 H   0  0  0  0  0  0  0  0  0  0  0  0
   -6.8722   -3.0678    2.7072 H   0  0  0  0  0  0  0  0  0  0  0  0
   -7.8608   -4.7968    1.2802 H   0  0  0  0  0  0  0  0  0  0  0  0
   -9.9302   -5.9820    0.7201 H   0  0  0  0  0  0  0  0  0  0  0  0
  -11.9087   -4.7440   -0.1911 H   0  0  0  0  0  0  0  0  0  0  0  0
  -12.8984    0.3084   -1.2613 H   0  0  0  0  0  0  0  0  0  0  0  0
  -12.8388    2.2332   -0.1675 H   0  0  0  0  0  0  0  0  0  0  0  0
  -11.8350    1.3703    0.9795 H   0  0  0  0  0  0  0  0  0  0  0  0
  -11.0164    3.6590    0.2853 H   0  0  0  0  0  0  0  0  0  0  0  0
   -9.8039    2.4065    0.0187 H   0  0  0  0  0  0  0  0  0  0  0  0
  -10.7790    2.4532   -3.6092 H   0  0  0  0  0  0  0  0  0  0  0  0
   10.3393    5.8289   -0.6807 H   0  0  0  0  0  0  0  0  0  0  0  0
   10.2455    4.9246   -2.1892 H   0  0  0  0  0  0  0  0  0  0  0  0
   11.0981    4.2431   -0.7709 H   0  0  0  0  0  0  0  0  0  0  0  0
  1  2  1  0
  2  3  1  0
  3  4  1  0
  4  5  2  0
  5  6  1  0
  6  7  1  0
  5  8  1  0
  8  9  1  0
  9 10  2  0
 10 11  1  0
 11 12  2  0
 12 13  1  0
 12 14  1  0
 14 15  2  0
  8 16  2  0
 16 17  1  0
 17 18  1  0
 18 19  1  0
 19 20  2  0
 19 21  1  0
 21 22  1  0
 22 23  1  0
 23 24  1  0
 24 25  1  0
 25 26  1  0
 26 27  1  0
 27 28  1  0
 28 29  1  0
 29 30  1  0
 30 31  1  0
 31 32  2  0
 31 33  1  0
 33 34  1  0
 34 35  1  0
 35 36  2  0
 36 37  1  0
 37 38  2  0
 38 39  1  0
 39 40  2  0
 40 41  1  0
 41 42  2  0
 41 43  1  0
 43 44  1  0
 44 45  1  0
 45 46  1  0
 46 47  1  0
 47 48  2  0
 47 49  1  0
 49 50  1  0
 50 51  2  0
 43 52  1  0
 52 53  2  0
 17 54  1  0
 54 55  2  0
 55 56  1  0
 56 57  2  0
 57 58  1  0
 57 59  1  0
  6  2  2  0
 15  9  1  0
 40 35  1  0
 50 44  1  0
 59 54  1  0
 59  4  1  0
 52 39  1  0
  1 60  1  0
  1 61  1  0
  1 62  1  0
  7 63  1  0
  7 64  1  0
  7 65  1  0
 10 66  1  0
 11 67  1  0
 14 68  1  0
 15 69  1  0
 17 70  1  6
 18 71  1  0
 18 72  1  0
 21 73  1  0
 22 74  1  0
 22 75  1  0
 23 76  1  0
 23 77  1  0
 24 78  1  0
 24 79  1  0
 25 80  1  0
 25 81  1  0
 26 82  1  0
 26 83  1  0
 27 84  1  0
 27 85  1  0
 28 86  1  0
 28 87  1  0
 29 88  1  0
 29 89  1  0
 30 90  1  0
 33 91  1  0
 33 92  1  0
 36 93  1  0
 37 94  1  0
 38 95  1  0
 44 96  1  0
 45 97  1  0
 45 98  1  0
 46 99  1  0
 46100  1  0
 49101  1  0
 58102  1  0
 58103  1  0
 58104  1  0
M  END
$$$$
