
     RDKit          3D

 29 31  0  0  0  0  0  0  0  0999 V2000
    4.2983   -2.4291   -0.1507 C   0  0  0  0  0  0  0  0  0  0  0  0
    4.6924   -1.1482    0.2030 C   0  0  0  0  0  0  0  0  0  0  0  0
    3.7299   -0.1446    0.3367 C   0  0  0  0  0  0  0  0  0  0  0  0
    2.3797   -0.4363    0.1140 C   0  0  0  0  0  0  0  0  0  0  0  0
    1.2834    0.5728    0.2339 C   0  0  0  0  0  0  0  0  0  0  0  0
    1.4996    1.9054    0.5800 C   0  0  0  0  0  0  0  0  0  0  0  0
    0.4184    2.7759    0.6681 C   0  0  0  0  0  0  0  0  0  0  0  0
   -0.8649    2.3057    0.4100 C   0  0  0  0  0  0  0  0  0  0  0  0
   -1.0512    0.9681    0.0661 C   0  0  0  0  0  0  0  0  0  0  0  0
   -2.3895    0.3711   -0.2289 C   0  0  0  0  0  0  0  0  0  0  0  0
   -3.5867    1.0941   -0.1895 C   0  0  0  0  0  0  0  0  0  0  0  0
   -4.7964    0.4583   -0.4793 C   0  0  0  0  0  0  0  0  0  0  0  0
   -4.7984   -0.8890   -0.8047 C   0  0  0  0  0  0  0  0  0  0  0  0
   -3.5853   -1.5465   -0.8266 C   0  0  0  0  0  0  0  0  0  0  0  0
   -2.4062   -0.9515   -0.5500 N   0  0  0  0  0  0  0  0  0  0  0  0
    0.0197    0.1306   -0.0153 N   0  0  0  0  0  0  0  0  0  0  0  0
    2.0068   -1.6986   -0.2328 N   0  0  0  0  0  0  0  0  0  0  0  0
    2.9522   -2.6533   -0.3566 C   0  0  0  0  0  0  0  0  0  0  0  0
    5.0181   -3.2312   -0.2631 H   0  0  0  0  0  0  0  0  0  0  0  0
    5.7417   -0.9261    0.3749 H   0  0  0  0  0  0  0  0  0  0  0  0
    4.0632    0.8477    0.6138 H   0  0  0  0  0  0  0  0  0  0  0  0
    2.4896    2.2931    0.7851 H   0  0  0  0  0  0  0  0  0  0  0  0
    0.5753    3.8169    0.9371 H   0  0  0  0  0  0  0  0  0  0  0  0
   -1.6916    3.0010    0.4845 H   0  0  0  0  0  0  0  0  0  0  0  0
   -3.6118    2.1471    0.0619 H   0  0  0  0  0  0  0  0  0  0  0  0
   -5.7282    1.0158   -0.4498 H   0  0  0  0  0  0  0  0  0  0  0  0
   -5.7182   -1.4135   -1.0350 H   0  0  0  0  0  0  0  0  0  0  0  0
   -3.5186   -2.6018   -1.0737 H   0  0  0  0  0  0  0  0  0  0  0  0
    2.5787   -3.6341   -0.6355 H   0  0  0  0  0  0  0  0  0  0  0  0
  1  2  2  0
  2  3  1  0
  3  4  2  0
  4  5  1  0
  5  6  2  0
  6  7  1  0
  7  8  2  0
  8  9  1  0
  9 10  1  0
 10 11  2  0
 11 12  1  0
 12 13  2  0
 13 14  1  0
 14 15  2  0
  9 16  2  0
  4 17  1  0
 17 18  2  0
 18  1  1  0
 16  5  1  0
 15 10  1  0
  1 19  1  0
  2 20  1  0
  3 21  1  0
  6 22  1  0
  7 23  1  0
  8 24  1  0
 11 25  1  0
 12 26  1  0
 13 27  1  0
 14 28  1  0
 18 29  1  0
M  END
$$$$
