
     RDKit          3D

 48 51  0  0  0  0  0  0  0  0999 V2000
    0.2727    1.7344   -2.7250 O   0  0  0  0  0  0  0  0  0  0  0  0
    0.1148    1.3859   -1.5575 C   0  0  0  0  0  0  0  0  0  0  0  0
    1.2957    1.4113   -0.6715 C   0  0  0  0  0  0  0  0  0  0  0  0
    1.3074    2.2140    0.4731 C   0  0  0  0  0  0  0  0  0  0  0  0
    2.4306    2.2142    1.3016 C   0  0  0  0  0  0  0  0  0  0  0  0
    3.5411    1.4260    0.9798 C   0  0  0  0  0  0  0  0  0  0  0  0
    4.8656    1.4285    2.0927 Cl  0  0  0  0  0  0  0  0  0  0  0  0
    3.5462    0.6569   -0.2003 C   0  0  0  0  0  0  0  0  0  0  0  0
    4.6097   -0.2290   -0.5688 N   0  0  0  0  0  0  0  0  0  0  0  0
    5.9052    0.3170   -0.7385 C   0  0  0  0  0  0  0  0  0  0  0  0
    6.1480    1.4667   -1.0720 O   0  0  0  0  0  0  0  0  0  0  0  0
    6.9572   -0.7442   -0.5134 C   0  0  0  0  0  0  0  0  0  0  0  0
    6.3556   -1.7179    0.4899 C   0  0  0  0  0  0  0  0  0  0  0  0
    4.6213   -1.7840    0.0980 S   0  0  0  0  0  6  0  0  0  0  0  0
    4.4271   -2.7361   -0.9723 O   0  0  0  0  0  0  0  0  0  0  0  0
    3.8529   -1.8256    1.3213 O   0  0  0  0  0  0  0  0  0  0  0  0
    2.4115    0.6456   -1.0182 C   0  0  0  0  0  0  0  0  0  0  0  0
   -1.1019    0.9755   -1.0311 N   0  0  0  0  0  0  0  0  0  0  0  0
   -2.2851    1.0557   -1.8923 C   0  0  0  0  0  0  0  0  0  0  0  0
   -3.6005    0.9444   -1.1068 C   0  0  0  0  0  0  0  0  0  0  0  0
   -3.6412   -0.3132   -0.3435 N   0  0  0  0  0  0  0  0  0  0  0  0
   -4.8362   -0.5917    0.3103 C   0  0  0  0  0  0  0  0  0  0  0  0
   -5.0569   -1.8300    0.9158 C   0  0  0  0  0  0  0  0  0  0  0  0
   -6.2712   -2.0979    1.5497 C   0  0  0  0  0  0  0  0  0  0  0  0
   -7.2561   -1.1252    1.5630 C   0  0  0  0  0  0  0  0  0  0  0  0
   -6.9796    0.0714    0.9334 C   0  0  0  0  0  0  0  0  0  0  0  0
   -5.8077    0.3477    0.3161 N   0  0  0  0  0  0  0  0  0  0  0  0
   -2.3759   -0.7915    0.2328 C   0  0  0  0  0  0  0  0  0  0  0  0
   -1.2882    0.3025    0.2624 C   0  0  0  0  0  0  0  0  0  0  0  0
    0.4494    2.8352    0.7194 H   0  0  0  0  0  0  0  0  0  0  0  0
    2.4306    2.8230    2.2039 H   0  0  0  0  0  0  0  0  0  0  0  0
    7.1479   -1.2347   -1.4717 H   0  0  0  0  0  0  0  0  0  0  0  0
    7.8825   -0.3004   -0.1410 H   0  0  0  0  0  0  0  0  0  0  0  0
    6.4511   -1.3383    1.5116 H   0  0  0  0  0  0  0  0  0  0  0  0
    6.7907   -2.7161    0.4199 H   0  0  0  0  0  0  0  0  0  0  0  0
    2.3903    0.0428   -1.9249 H   0  0  0  0  0  0  0  0  0  0  0  0
   -2.2078    0.2367   -2.6173 H   0  0  0  0  0  0  0  0  0  0  0  0
   -2.2576    1.9969   -2.4527 H   0  0  0  0  0  0  0  0  0  0  0  0
   -4.4310    0.9852   -1.8222 H   0  0  0  0  0  0  0  0  0  0  0  0
   -3.6874    1.8011   -0.4258 H   0  0  0  0  0  0  0  0  0  0  0  0
   -4.3029   -2.6081    0.8767 H   0  0  0  0  0  0  0  0  0  0  0  0
   -6.4438   -3.0630    2.0154 H   0  0  0  0  0  0  0  0  0  0  0  0
   -8.2141   -1.2956    2.0398 H   0  0  0  0  0  0  0  0  0  0  0  0
   -7.7154    0.8703    0.9010 H   0  0  0  0  0  0  0  0  0  0  0  0
   -2.0235   -1.6317   -0.3767 H   0  0  0  0  0  0  0  0  0  0  0  0
   -2.5001   -1.1571    1.2589 H   0  0  0  0  0  0  0  0  0  0  0  0
   -1.5736    1.0821    0.9791 H   0  0  0  0  0  0  0  0  0  0  0  0
   -0.3474   -0.1399    0.6028 H   0  0  0  0  0  0  0  0  0  0  0  0
  1  2  2  0
  2  3  1  0
  3  4  2  0
  4  5  1  0
  5  6  2  0
  6  7  1  0
  6  8  1  0
  8  9  1  0
  9 10  1  0
 10 11  2  0
 10 12  1  0
 12 13  1  0
 13 14  1  0
 14 15  2  0
 14 16  2  0
  8 17  2  0
  2 18  1  0
 18 19  1  0
 19 20  1  0
 20 21  1  0
 21 22  1  0
 22 23  2  0
 23 24  1  0
 24 25  2  0
 25 26  1  0
 26 27  2  0
 21 28  1  0
 28 29  1  0
 17  3  1  0
 29 18  1  0
 14  9  1  0
 27 22  1  0
  4 30  1  0
  5 31  1  0
 12 32  1  0
 12 33  1  0
 13 34  1  0
 13 35  1  0
 17 36  1  0
 19 37  1  0
 19 38  1  0
 20 39  1  0
 20 40  1  0
 23 41  1  0
 24 42  1  0
 25 43  1  0
 26 44  1  0
 28 45  1  0
 28 46  1  0
 29 47  1  0
 29 48  1  0
M  END
$$$$
