
     RDKit          3D

 65 68  0  0  0  0  0  0  0  0999 V2000
   -4.5176   -0.7548    2.9327 C   0  0  0  0  0  0  0  0  0  0  0  0
   -3.5339   -1.4094    1.9792 C   0  0  0  0  0  0  0  0  0  0  0  0
   -3.2199   -0.5252    0.7978 C   0  0  0  0  0  0  0  0  0  0  0  0
   -3.6365    0.6092    0.6254 O   0  0  0  0  0  0  0  0  0  0  0  0
   -2.3838   -1.1826   -0.0499 O   0  0  0  0  0  0  0  0  0  0  0  0
   -1.9763   -0.5710   -1.3026 C   0  0  2  0  0  0  0  0  0  0  0  0
   -3.1504    0.1538   -2.0467 C   0  0  0  0  0  0  0  0  0  0  0  0
   -3.2124    1.3630   -2.2365 O   0  0  0  0  0  0  0  0  0  0  0  0
   -4.4650   -0.8586   -2.6466 S   0  0  0  0  0  0  0  0  0  0  0  0
   -5.7709   -0.1933   -1.6024 C   0  0  0  0  0  0  0  0  0  0  0  0
   -5.8405   -0.9328   -0.4622 F   0  0  0  0  0  0  0  0  0  0  0  0
   -1.3671   -1.7537   -2.1757 C   0  0  2  0  0  0  0  0  0  0  0  0
   -1.9025   -3.1550   -1.8560 C   0  0  0  0  0  0  0  0  0  0  0  0
    0.1695   -1.7329   -1.9489 C   0  0  0  0  0  0  0  0  0  0  0  0
    0.3764   -0.7382   -0.8146 C   0  0  1  0  0  0  0  0  0  0  0  0
    1.7984   -0.1892   -0.5900 C   0  0  2  0  0  0  0  0  0  0  0  0
    2.7838   -1.3418   -0.3265 C   0  0  0  0  0  0  0  0  0  0  0  0
    4.1854   -0.8449    0.0022 C   0  0  2  0  0  0  0  0  0  0  0  0
    4.9520   -1.9350    0.2929 F   0  0  0  0  0  0  0  0  0  0  0  0
    4.1519    0.1287    1.1512 C   0  0  0  0  0  0  0  0  0  0  0  0
    4.8474   -0.1097    2.2782 C   0  0  0  0  0  0  0  0  0  0  0  0
    4.7847    0.7955    3.4421 C   0  0  0  0  0  0  0  0  0  0  0  0
    5.4370    0.5817    4.4558 O   0  0  0  0  0  0  0  0  0  0  0  0
    3.9036    1.9729    3.3337 C   0  0  0  0  0  0  0  0  0  0  0  0
    3.2095    2.2161    2.2140 C   0  0  0  0  0  0  0  0  0  0  0  0
    3.2358    1.3501    0.9544 C   0  0  1  0  0  0  0  0  0  0  0  0
    3.8571    2.2345   -0.1515 C   0  0  0  0  0  0  0  0  0  0  0  0
    1.7845    0.8160    0.6089 C   0  0  2  0  0  0  0  0  0  0  0  0
    1.3735    0.0762    1.7072 F   0  0  0  0  0  0  0  0  0  0  0  0
    0.6893    1.9101    0.4272 C   0  0  1  0  0  0  0  0  0  0  0  0
    1.0428    2.8672   -0.5639 O   0  0  0  0  0  0  0  0  0  0  0  0
   -0.6956    1.3044    0.1066 C   0  0  0  0  0  0  0  0  0  0  0  0
   -0.6897    0.3457   -1.1031 C   0  0  2  0  0  0  0  0  0  0  0  0
   -0.3702    1.1382   -2.4090 C   0  0  0  0  0  0  0  0  0  0  0  0
   -5.4622   -0.5271    2.4274 H   0  0  0  0  0  0  0  0  0  0  0  0
   -4.7314   -1.4190    3.7756 H   0  0  0  0  0  0  0  0  0  0  0  0
   -4.1158    0.1836    3.3292 H   0  0  0  0  0  0  0  0  0  0  0  0
   -3.9612   -2.3465    1.6068 H   0  0  0  0  0  0  0  0  0  0  0  0
   -2.5997   -1.6251    2.5079 H   0  0  0  0  0  0  0  0  0  0  0  0
   -6.7304   -0.2929   -2.1162 H   0  0  0  0  0  0  0  0  0  0  0  0
   -5.6250    0.8566   -1.3361 H   0  0  0  0  0  0  0  0  0  0  0  0
   -1.5466   -1.5625   -3.2416 H   0  0  0  0  0  0  0  0  0  0  0  0
   -2.9886   -3.2152   -1.9478 H   0  0  0  0  0  0  0  0  0  0  0  0
   -1.6315   -3.4700   -0.8423 H   0  0  0  0  0  0  0  0  0  0  0  0
   -1.4748   -3.8877   -2.5496 H   0  0  0  0  0  0  0  0  0  0  0  0
    0.5726   -2.7198   -1.6966 H   0  0  0  0  0  0  0  0  0  0  0  0
    0.6789   -1.4026   -2.8620 H   0  0  0  0  0  0  0  0  0  0  0  0
    0.1008   -1.2628    0.1139 H   0  0  0  0  0  0  0  0  0  0  0  0
    2.1392    0.3236   -1.4943 H   0  0  0  0  0  0  0  0  0  0  0  0
    2.4216   -1.9752    0.4943 H   0  0  0  0  0  0  0  0  0  0  0  0
    2.8470   -1.9991   -1.2020 H   0  0  0  0  0  0  0  0  0  0  0  0
    4.6384   -0.3736   -0.8761 H   0  0  0  0  0  0  0  0  0  0  0  0
    5.4763   -0.9851    2.4031 H   0  0  0  0  0  0  0  0  0  0  0  0
    3.8630    2.6240    4.1985 H   0  0  0  0  0  0  0  0  0  0  0  0
    2.5991    3.1165    2.1874 H   0  0  0  0  0  0  0  0  0  0  0  0
    4.9303    2.3888    0.0232 H   0  0  0  0  0  0  0  0  0  0  0  0
    3.7568    1.7965   -1.1490 H   0  0  0  0  0  0  0  0  0  0  0  0
    3.4097    3.2337   -0.1865 H   0  0  0  0  0  0  0  0  0  0  0  0
    0.5763    2.4569    1.3701 H   0  0  0  0  0  0  0  0  0  0  0  0
    0.3079    3.5047   -0.6343 H   0  0  0  0  0  0  0  0  0  0  0  0
   -1.4201    2.1088   -0.0677 H   0  0  0  0  0  0  0  0  0  0  0  0
   -1.0134    0.7714    1.0085 H   0  0  0  0  0  0  0  0  0  0  0  0
   -0.9223    2.0832   -2.4437 H   0  0  0  0  0  0  0  0  0  0  0  0
   -0.6308    0.5825   -3.3153 H   0  0  0  0  0  0  0  0  0  0  0  0
    0.6853    1.3981   -2.5085 H   0  0  0  0  0  0  0  0  0  0  0  0
  1  2  1  0
  2  3  1  0
  3  4  2  0
  3  5  1  0
  6  5  1  1
  6  7  1  0
  7  8  2  0
  7  9  1  0
  9 10  1  0
 10 11  1  0
  6 12  1  0
 12 13  1  0
 12 14  1  0
 14 15  1  0
 15 16  1  0
 16 17  1  0
 17 18  1  0
 18 19  1  0
 18 20  1  0
 20 21  2  0
 21 22  1  0
 22 23  2  0
 22 24  1  0
 24 25  2  0
 25 26  1  0
 26 27  1  6
 26 28  1  0
 28 29  1  1
 28 30  1  0
 30 31  1  0
 30 32  1  0
 32 33  1  0
 33 34  1  6
 33  6  1  0
 33 15  1  0
 28 16  1  0
 26 20  1  0
  1 35  1  0
  1 36  1  0
  1 37  1  0
  2 38  1  0
  2 39  1  0
 10 40  1  0
 10 41  1  0
 12 42  1  6
 13 43  1  0
 13 44  1  0
 13 45  1  0
 14 46  1  0
 14 47  1  0
 15 48  1  1
 16 49  1  6
 17 50  1  0
 17 51  1  0
 18 52  1  6
 21 53  1  0
 24 54  1  0
 25 55  1  0
 27 56  1  0
 27 57  1  0
 27 58  1  0
 30 59  1  1
 31 60  1  0
 32 61  1  0
 32 62  1  0
 34 63  1  0
 34 64  1  0
 34 65  1  0
M  END
$$$$
