
     RDKit          3D

 35 37  0  0  0  0  0  0  0  0999 V2000
    2.9861    0.5705    2.2241 O   0  0  0  0  0  0  0  0  0  0  0  0
    3.3691    0.2330    1.1081 C   0  0  0  0  0  0  0  0  0  0  0  0
    2.5230   -0.0488    0.0428 N   0  0  0  0  0  0  0  0  0  0  0  0
    1.1128   -0.0075    0.0223 C   0  0  0  0  0  0  0  0  0  0  0  0
    0.4813   -0.3370   -1.1781 C   0  0  0  0  0  0  0  0  0  0  0  0
   -0.9181   -0.3205   -1.2830 C   0  0  0  0  0  0  0  0  0  0  0  0
   -1.7421    0.0224   -0.2033 C   0  0  0  0  0  0  0  0  0  0  0  0
   -3.1117    0.0368   -0.3079 N   0  0  0  0  0  0  0  0  0  0  0  0
   -4.0180    0.2599    0.8167 C   0  0  0  0  0  0  0  0  0  0  0  0
   -5.3911   -0.1079    0.2599 C   0  0  0  0  0  0  0  0  0  0  0  0
   -5.2748    0.2608   -1.2083 C   0  0  0  0  0  0  0  0  0  0  0  0
   -3.8470   -0.1532   -1.5557 C   0  0  0  0  0  0  0  0  0  0  0  0
   -1.0836    0.3485    0.9905 C   0  0  0  0  0  0  0  0  0  0  0  0
    0.3166    0.3363    1.1079 C   0  0  0  0  0  0  0  0  0  0  0  0
    4.7869    0.0935    0.7915 C   0  0  0  0  0  0  0  0  0  0  0  0
    5.4876   -0.2618   -0.3514 C   0  0  0  0  0  0  0  0  0  0  0  0
    6.8672   -0.2133   -0.0246 C   0  0  0  0  0  0  0  0  0  0  0  0
    6.9347    0.1672    1.2937 C   0  0  0  0  0  0  0  0  0  0  0  0
    8.5375    0.4024    2.2895 Br  0  0  0  0  0  0  0  0  0  0  0  0
    5.6879    0.3542    1.7939 O   0  0  0  0  0  0  0  0  0  0  0  0
    2.9564   -0.3171   -0.8270 H   0  0  0  0  0  0  0  0  0  0  0  0
    1.0568   -0.6152   -2.0564 H   0  0  0  0  0  0  0  0  0  0  0  0
   -1.3526   -0.5951   -2.2399 H   0  0  0  0  0  0  0  0  0  0  0  0
   -3.9947    1.3141    1.1157 H   0  0  0  0  0  0  0  0  0  0  0  0
   -3.7817   -0.3692    1.6816 H   0  0  0  0  0  0  0  0  0  0  0  0
   -5.5618   -1.1865    0.3616 H   0  0  0  0  0  0  0  0  0  0  0  0
   -6.2038    0.4174    0.7691 H   0  0  0  0  0  0  0  0  0  0  0  0
   -6.0196   -0.2384   -1.8343 H   0  0  0  0  0  0  0  0  0  0  0  0
   -5.3928    1.3443   -1.3316 H   0  0  0  0  0  0  0  0  0  0  0  0
   -3.4630    0.4680   -2.3719 H   0  0  0  0  0  0  0  0  0  0  0  0
   -3.8144   -1.2071   -1.8545 H   0  0  0  0  0  0  0  0  0  0  0  0
   -1.6502    0.6338    1.8727 H   0  0  0  0  0  0  0  0  0  0  0  0
    0.7388    0.6055    2.0707 H   0  0  0  0  0  0  0  0  0  0  0  0
    5.0722   -0.5269   -1.3128 H   0  0  0  0  0  0  0  0  0  0  0  0
    7.7060   -0.4292   -0.6715 H   0  0  0  0  0  0  0  0  0  0  0  0
  1  2  2  0
  2  3  1  0
  3  4  1  0
  4  5  2  0
  5  6  1  0
  6  7  2  0
  7  8  1  0
  8  9  1  0
  9 10  1  0
 10 11  1  0
 11 12  1  0
  7 13  1  0
 13 14  2  0
  2 15  1  0
 15 16  2  0
 16 17  1  0
 17 18  2  0
 18 19  1  0
 18 20  1  0
 14  4  1  0
 20 15  1  0
 12  8  1  0
  3 21  1  0
  5 22  1  0
  6 23  1  0
  9 24  1  0
  9 25  1  0
 10 26  1  0
 10 27  1  0
 11 28  1  0
 11 29  1  0
 12 30  1  0
 12 31  1  0
 13 32  1  0
 14 33  1  0
 16 34  1  0
 17 35  1  0
M  END
$$$$
