
     RDKit          3D

 66 70  0  0  0  0  0  0  0  0999 V2000
   -4.6795    1.5131    0.8264 C   0  0  0  0  0  0  0  0  0  0  0  0
   -3.8298    0.4515    0.1232 C   0  0  1  0  0  0  0  0  0  0  0  0
   -4.0247   -0.8262    0.7488 O   0  0  0  0  0  0  0  0  0  0  0  0
   -3.1903   -1.0575    1.7912 C   0  0  0  0  0  0  0  0  0  0  0  0
   -1.7665   -1.1486    1.6960 C   0  0  0  0  0  0  0  0  0  0  0  0
   -1.1861   -1.4216    2.9120 C   0  0  0  0  0  0  0  0  0  0  0  0
    0.1785   -1.5546    3.2508 N   0  0  0  0  0  0  0  0  0  0  0  0
    0.6835   -1.7939    4.5231 C   0  0  0  0  0  0  0  0  0  0  0  0
    1.9902   -1.8606    4.5744 N   0  0  0  0  0  0  0  0  0  0  0  0
    2.3950   -1.6669    3.2883 C   0  0  0  0  0  0  0  0  0  0  0  0
    3.7081   -1.6496    2.7946 C   0  0  0  0  0  0  0  0  0  0  0  0
    3.9205   -1.4384    1.4316 C   0  0  0  0  0  0  0  0  0  0  0  0
    2.8446   -1.2344    0.5595 C   0  0  0  0  0  0  0  0  0  0  0  0
    3.1018   -1.0297   -0.9237 C   0  0  0  0  0  0  0  0  0  0  0  0
    4.0450    0.0586   -1.2050 N   0  0  0  0  0  0  0  0  0  0  0  0
    4.5138    0.0046   -2.6029 C   0  0  0  0  0  0  0  0  0  0  0  0
    5.0451    1.3517   -3.1632 C   0  0  0  0  0  0  0  0  0  0  0  0
    5.5646    2.2964   -2.1601 N   0  0  0  0  0  0  0  0  0  0  0  0
    6.8054    1.7942   -1.5646 C   0  0  0  0  0  0  0  0  0  0  0  0
    4.5371    2.5251   -1.1185 C   0  0  0  0  0  0  0  0  0  0  0  0
    3.4966    1.3895   -0.9073 C   0  0  0  0  0  0  0  0  0  0  0  0
    1.5228   -1.2521    1.0517 C   0  0  0  0  0  0  0  0  0  0  0  0
    1.3102   -1.4700    2.4273 C   0  0  0  0  0  0  0  0  0  0  0  0
   -2.3659   -1.6335    4.1283 S   0  0  0  0  0  0  0  0  0  0  0  0
   -3.6708   -1.3262    3.0580 C   0  0  0  0  0  0  0  0  0  0  0  0
   -5.0520   -1.3411    3.5155 C   0  0  0  0  0  0  0  0  0  0  0  0
   -5.2623   -1.6746    4.8265 N   0  0  0  0  0  0  0  0  0  0  0  0
   -6.0276   -1.0672    2.8217 O   0  0  0  0  0  0  0  0  0  0  0  0
   -4.2360    0.3117   -1.3419 C   0  0  0  0  0  0  0  0  0  0  0  0
   -5.5030   -0.2291   -1.6477 C   0  0  0  0  0  0  0  0  0  0  0  0
   -5.9323   -0.3637   -2.9671 C   0  0  0  0  0  0  0  0  0  0  0  0
   -5.1077    0.0416   -4.0087 C   0  0  0  0  0  0  0  0  0  0  0  0
   -3.8483    0.5744   -3.7322 C   0  0  0  0  0  0  0  0  0  0  0  0
   -3.3938    0.7175   -2.4058 C   0  0  0  0  0  0  0  0  0  0  0  0
   -2.0173    1.2939   -2.1631 C   0  0  0  0  0  0  0  0  0  0  0  0
   -1.1704    0.4010   -1.5753 F   0  0  0  0  0  0  0  0  0  0  0  0
   -2.0420    2.3790   -1.3392 F   0  0  0  0  0  0  0  0  0  0  0  0
   -1.3832    1.7090   -3.2943 F   0  0  0  0  0  0  0  0  0  0  0  0
   -5.7331    1.2183    0.8804 H   0  0  0  0  0  0  0  0  0  0  0  0
   -4.6155    2.4786    0.3149 H   0  0  0  0  0  0  0  0  0  0  0  0
   -4.3444    1.6515    1.8602 H   0  0  0  0  0  0  0  0  0  0  0  0
   -2.7813    0.7525    0.1911 H   0  0  0  0  0  0  0  0  0  0  0  0
   -1.2468   -1.0026    0.7636 H   0  0  0  0  0  0  0  0  0  0  0  0
    0.0489   -1.9059    5.3919 H   0  0  0  0  0  0  0  0  0  0  0  0
    4.5425   -1.7991    3.4723 H   0  0  0  0  0  0  0  0  0  0  0  0
    4.9404   -1.4240    1.0510 H   0  0  0  0  0  0  0  0  0  0  0  0
    3.5059   -1.9810   -1.2966 H   0  0  0  0  0  0  0  0  0  0  0  0
    2.1579   -0.8642   -1.4577 H   0  0  0  0  0  0  0  0  0  0  0  0
    5.3201   -0.7348   -2.6503 H   0  0  0  0  0  0  0  0  0  0  0  0
    3.7185   -0.3415   -3.2747 H   0  0  0  0  0  0  0  0  0  0  0  0
    4.2210    1.8546   -3.6888 H   0  0  0  0  0  0  0  0  0  0  0  0
    5.8026    1.1572   -3.9341 H   0  0  0  0  0  0  0  0  0  0  0  0
    7.5486    1.5843   -2.3439 H   0  0  0  0  0  0  0  0  0  0  0  0
    7.2477    2.5583   -0.9139 H   0  0  0  0  0  0  0  0  0  0  0  0
    6.6647    0.8841   -0.9710 H   0  0  0  0  0  0  0  0  0  0  0  0
    3.9846    3.4319   -1.3939 H   0  0  0  0  0  0  0  0  0  0  0  0
    5.0173    2.7586   -0.1589 H   0  0  0  0  0  0  0  0  0  0  0  0
    3.1530    1.4487    0.1313 H   0  0  0  0  0  0  0  0  0  0  0  0
    2.6225    1.5813   -1.5441 H   0  0  0  0  0  0  0  0  0  0  0  0
    0.7073   -1.1009    0.3581 H   0  0  0  0  0  0  0  0  0  0  0  0
   -6.2154   -1.6985    5.1625 H   0  0  0  0  0  0  0  0  0  0  0  0
   -4.5015   -1.9130    5.4472 H   0  0  0  0  0  0  0  0  0  0  0  0
   -6.1641   -0.5552   -0.8432 H   0  0  0  0  0  0  0  0  0  0  0  0
   -6.9134   -0.7830   -3.1789 H   0  0  0  0  0  0  0  0  0  0  0  0
   -5.4449   -0.0595   -5.0373 H   0  0  0  0  0  0  0  0  0  0  0  0
   -3.2162    0.8830   -4.5653 H   0  0  0  0  0  0  0  0  0  0  0  0
  1  2  1  0
  2  3  1  0
  3  4  1  0
  4  5  1  0
  5  6  2  0
  6  7  1  0
  7  8  1  0
  8  9  2  0
  9 10  1  0
 10 11  2  0
 11 12  1  0
 12 13  2  0
 13 14  1  0
 14 15  1  0
 15 16  1  0
 16 17  1  0
 17 18  1  0
 18 19  1  0
 18 20  1  0
 20 21  1  0
 13 22  1  0
 22 23  2  0
  6 24  1  0
 24 25  1  0
 25 26  1  0
 26 27  1  0
 26 28  2  0
  2 29  1  0
 29 30  2  0
 30 31  1  0
 31 32  2  0
 32 33  1  0
 33 34  2  0
 34 35  1  0
 35 36  1  0
 35 37  1  0
 35 38  1  0
 25  4  2  0
 34 29  1  0
 23  7  1  0
 23 10  1  0
 21 15  1  0
  1 39  1  0
  1 40  1  0
  1 41  1  0
  2 42  1  6
  5 43  1  0
  8 44  1  0
 11 45  1  0
 12 46  1  0
 14 47  1  0
 14 48  1  0
 16 49  1  0
 16 50  1  0
 17 51  1  0
 17 52  1  0
 19 53  1  0
 19 54  1  0
 19 55  1  0
 20 56  1  0
 20 57  1  0
 21 58  1  0
 21 59  1  0
 22 60  1  0
 27 61  1  0
 27 62  1  0
 30 63  1  0
 31 64  1  0
 32 65  1  0
 33 66  1  0
M  END
$$$$
