
     RDKit          3D

 42 43  0  0  0  0  0  0  0  0999 V2000
   -4.8623   -1.0578    0.2526 C   0  0  0  0  0  0  0  0  0  0  0  0
   -4.1003    0.2757    0.0940 C   0  0  0  0  0  0  0  0  0  0  0  0
   -4.3833    1.1167    1.3594 C   0  0  0  0  0  0  0  0  0  0  0  0
   -4.6795    1.0516   -1.1087 C   0  0  0  0  0  0  0  0  0  0  0  0
   -2.6069   -0.0070   -0.1435 C   0  0  0  0  0  0  0  0  0  0  0  0
   -2.1982   -0.7616   -1.2573 C   0  0  0  0  0  0  0  0  0  0  0  0
   -0.8473   -1.0331   -1.4973 C   0  0  0  0  0  0  0  0  0  0  0  0
    0.1402   -0.5630   -0.6344 C   0  0  0  0  0  0  0  0  0  0  0  0
    1.4130   -0.8983   -0.9961 O   0  0  0  0  0  0  0  0  0  0  0  0
    2.5071   -0.5281   -0.1445 C   0  0  0  0  0  0  0  0  0  0  0  0
    3.6309   -1.5427   -0.3993 C   0  0  0  0  0  0  0  0  0  0  0  0
    4.8957   -1.1847    0.3745 C   0  0  0  0  0  0  0  0  0  0  0  0
    5.3635    0.2354    0.0678 C   0  0  0  0  0  0  0  0  0  0  0  0
    4.2499    1.2613    0.2853 C   0  0  0  0  0  0  0  0  0  0  0  0
    2.9800    0.9004   -0.4845 C   0  0  0  0  0  0  0  0  0  0  0  0
    3.2464    1.0166   -1.8869 O   0  0  0  0  0  0  0  0  0  0  0  0
   -0.2422    0.1868    0.4725 C   0  0  0  0  0  0  0  0  0  0  0  0
   -1.5979    0.4599    0.7135 C   0  0  0  0  0  0  0  0  0  0  0  0
   -4.4549   -1.6487    1.0815 H   0  0  0  0  0  0  0  0  0  0  0  0
   -5.9251   -0.8838    0.4578 H   0  0  0  0  0  0  0  0  0  0  0  0
   -4.8078   -1.6763   -0.6500 H   0  0  0  0  0  0  0  0  0  0  0  0
   -5.4587    1.2909    1.4856 H   0  0  0  0  0  0  0  0  0  0  0  0
   -4.0304    0.6123    2.2664 H   0  0  0  0  0  0  0  0  0  0  0  0
   -3.9022    2.1003    1.3061 H   0  0  0  0  0  0  0  0  0  0  0  0
   -4.1394    1.9924   -1.2682 H   0  0  0  0  0  0  0  0  0  0  0  0
   -5.7362    1.2965   -0.9493 H   0  0  0  0  0  0  0  0  0  0  0  0
   -4.6210    0.4771   -2.0396 H   0  0  0  0  0  0  0  0  0  0  0  0
   -2.9293   -1.1533   -1.9611 H   0  0  0  0  0  0  0  0  0  0  0  0
   -0.5675   -1.6211   -2.3683 H   0  0  0  0  0  0  0  0  0  0  0  0
    2.2347   -0.6099    0.9151 H   0  0  0  0  0  0  0  0  0  0  0  0
    3.8514   -1.6018   -1.4731 H   0  0  0  0  0  0  0  0  0  0  0  0
    3.2903   -2.5457   -0.1140 H   0  0  0  0  0  0  0  0  0  0  0  0
    4.7033   -1.2799    1.4503 H   0  0  0  0  0  0  0  0  0  0  0  0
    5.6923   -1.8960    0.1292 H   0  0  0  0  0  0  0  0  0  0  0  0
    6.2213    0.4853    0.7025 H   0  0  0  0  0  0  0  0  0  0  0  0
    5.7132    0.2865   -0.9706 H   0  0  0  0  0  0  0  0  0  0  0  0
    4.0215    1.3265    1.3560 H   0  0  0  0  0  0  0  0  0  0  0  0
    4.6140    2.2445   -0.0352 H   0  0  0  0  0  0  0  0  0  0  0  0
    2.1954    1.6299   -0.2603 H   0  0  0  0  0  0  0  0  0  0  0  0
    2.4826    0.6082   -2.3382 H   0  0  0  0  0  0  0  0  0  0  0  0
    0.4788    0.5866    1.1764 H   0  0  0  0  0  0  0  0  0  0  0  0
   -1.8351    1.0513    1.5940 H   0  0  0  0  0  0  0  0  0  0  0  0
  1  2  1  0
  2  3  1  0
  2  4  1  0
  2  5  1  0
  5  6  2  0
  6  7  1  0
  7  8  2  0
  8  9  1  0
  9 10  1  0
 10 11  1  0
 11 12  1  0
 12 13  1  0
 13 14  1  0
 14 15  1  0
 15 16  1  0
  8 17  1  0
 17 18  2  0
 18  5  1  0
 15 10  1  0
  1 19  1  0
  1 20  1  0
  1 21  1  0
  3 22  1  0
  3 23  1  0
  3 24  1  0
  4 25  1  0
  4 26  1  0
  4 27  1  0
  6 28  1  0
  7 29  1  0
 10 30  1  0
 11 31  1  0
 11 32  1  0
 12 33  1  0
 12 34  1  0
 13 35  1  0
 13 36  1  0
 14 37  1  0
 14 38  1  0
 15 39  1  0
 16 40  1  0
 17 41  1  0
 18 42  1  0
M  END
$$$$
