
     RDKit          3D

 39 41  0  0  0  0  0  0  0  0999 V2000
   -5.7225   -1.9281   -0.3343 C   0  0  0  0  0  0  0  0  0  0  0  0
   -5.2572   -0.5742    0.1923 C   0  0  0  0  0  0  0  0  0  0  0  0
   -6.0326    0.5604   -0.4742 C   0  0  0  0  0  0  0  0  0  0  0  0
   -3.8275   -0.4198   -0.0302 N   0  0  0  0  0  0  0  0  0  0  0  0
   -3.0665    0.4491    0.7402 C   0  0  0  0  0  0  0  0  0  0  0  0
   -3.5407    1.0455    1.7046 O   0  0  0  0  0  0  0  0  0  0  0  0
   -1.6633    0.6051    0.2951 C   0  0  0  0  0  0  0  0  0  0  0  0
   -0.9232   -0.2244   -0.6282 C   0  0  0  0  0  0  0  0  0  0  0  0
    0.3135    0.3514   -0.6901 C   0  0  0  0  0  0  0  0  0  0  0  0
    0.2752    1.3993    0.1574 N   0  0  0  0  0  0  0  0  0  0  0  0
   -0.8874    1.6218    0.7478 N   0  0  0  0  0  0  0  0  0  0  0  0
    1.4970    2.1753    0.2373 C   0  0  0  0  0  0  0  0  0  0  0  0
    2.5038    1.2427   -0.4837 C   0  0  1  0  0  0  0  0  0  0  0  0
    3.2462    0.5426    0.5281 O   0  0  0  0  0  0  0  0  0  0  0  0
    4.4356   -0.0279    0.1830 C   0  0  0  0  0  0  0  0  0  0  0  0
    5.1383   -0.6177    1.2317 C   0  0  0  0  0  0  0  0  0  0  0  0
    6.3638   -1.2342    0.9911 C   0  0  0  0  0  0  0  0  0  0  0  0
    6.8490   -1.2419   -0.3051 C   0  0  0  0  0  0  0  0  0  0  0  0
    6.1985   -0.6861   -1.3494 N   0  0  0  0  0  0  0  0  0  0  0  0
    5.0082   -0.0943   -1.0807 C   0  0  0  0  0  0  0  0  0  0  0  0
    1.6401    0.2411   -1.3232 C   0  0  0  0  0  0  0  0  0  0  0  0
   -6.7910   -2.0754   -0.1459 H   0  0  0  0  0  0  0  0  0  0  0  0
   -5.5497   -2.0172   -1.4126 H   0  0  0  0  0  0  0  0  0  0  0  0
   -5.1764   -2.7420    0.1551 H   0  0  0  0  0  0  0  0  0  0  0  0
   -5.4423   -0.5365    1.2724 H   0  0  0  0  0  0  0  0  0  0  0  0
   -5.7261    1.5339   -0.0771 H   0  0  0  0  0  0  0  0  0  0  0  0
   -5.8578    0.5771   -1.5558 H   0  0  0  0  0  0  0  0  0  0  0  0
   -7.1085    0.4510   -0.3032 H   0  0  0  0  0  0  0  0  0  0  0  0
   -3.4593   -0.6940   -0.9289 H   0  0  0  0  0  0  0  0  0  0  0  0
   -1.2602   -1.1092   -1.1478 H   0  0  0  0  0  0  0  0  0  0  0  0
    1.7332    2.3618    1.2877 H   0  0  0  0  0  0  0  0  0  0  0  0
    1.3216    3.1022   -0.3162 H   0  0  0  0  0  0  0  0  0  0  0  0
    3.1782    1.8487   -1.0996 H   0  0  0  0  0  0  0  0  0  0  0  0
    4.7303   -0.5975    2.2390 H   0  0  0  0  0  0  0  0  0  0  0  0
    6.9237   -1.6968    1.7960 H   0  0  0  0  0  0  0  0  0  0  0  0
    7.7997   -1.7094   -0.5452 H   0  0  0  0  0  0  0  0  0  0  0  0
    4.5335    0.3239   -1.9607 H   0  0  0  0  0  0  0  0  0  0  0  0
    2.0219   -0.7826   -1.2856 H   0  0  0  0  0  0  0  0  0  0  0  0
    1.5806    0.5760   -2.3640 H   0  0  0  0  0  0  0  0  0  0  0  0
  1  2  1  0
  2  3  1  0
  2  4  1  0
  4  5  1  0
  5  6  2  0
  5  7  1  0
  7  8  1  0
  8  9  2  0
  9 10  1  0
 10 11  1  0
 10 12  1  0
 12 13  1  0
 13 14  1  0
 14 15  1  0
 15 16  2  0
 16 17  1  0
 17 18  2  0
 18 19  1  0
 19 20  2  0
 13 21  1  0
 11  7  2  0
 20 15  1  0
 21  9  1  0
  1 22  1  0
  1 23  1  0
  1 24  1  0
  2 25  1  0
  3 26  1  0
  3 27  1  0
  3 28  1  0
  4 29  1  0
  8 30  1  0
 12 31  1  0
 12 32  1  0
 13 33  1  6
 16 34  1  0
 17 35  1  0
 18 36  1  0
 20 37  1  0
 21 38  1  0
 21 39  1  0
M  END
$$$$
