
     RDKit          3D

 56 58  0  0  0  0  0  0  0  0999 V2000
    3.0444   -1.9809   -4.5107 C   0  0  0  0  0  0  0  0  0  0  0  0
    2.3648   -0.6275   -4.3975 C   0  0  0  0  0  0  0  0  0  0  0  0
    2.1686   -0.2654   -3.0327 O   0  0  0  0  0  0  0  0  0  0  0  0
    1.0813   -0.7178   -2.3062 C   0  0  0  0  0  0  0  0  0  0  0  0
    0.1245   -1.4957   -2.8380 C   0  0  0  0  0  0  0  0  0  0  0  0
   -0.9515   -1.9310   -1.9453 C   0  0  0  0  0  0  0  0  0  0  0  0
   -1.9772   -2.4390   -2.3714 O   0  0  0  0  0  0  0  0  0  0  0  0
   -0.7549   -1.7063   -0.4778 C   0  0  0  0  0  0  0  0  0  0  0  0
   -1.6566   -2.3591    0.5354 C   0  0  0  0  0  0  0  0  0  0  0  0
   -1.4519   -3.5406    0.7920 O   0  0  0  0  0  0  0  0  0  0  0  0
   -2.6453   -1.5732    1.1219 N   0  0  0  0  0  0  0  0  0  0  0  0
   -3.4857   -2.1862    2.1426 C   0  0  0  0  0  0  0  0  0  0  0  0
   -4.2342   -1.1556    2.9758 C   0  0  0  0  0  0  0  0  0  0  0  0
   -5.0731   -0.2277    2.0983 C   0  0  0  0  0  0  0  0  0  0  0  0
   -4.3565    0.2079    0.8056 C   0  0  0  0  0  0  0  0  0  0  0  0
   -5.0552   -0.3711   -0.4302 C   0  0  0  0  0  0  0  0  0  0  0  0
   -2.8666   -0.1614    0.8092 C   0  0  0  0  0  0  0  0  0  0  0  0
    0.1954   -0.9396   -0.0260 N   0  0  0  0  0  0  0  0  0  0  0  0
    1.0406   -0.3492   -0.9450 N   0  0  0  0  0  0  0  0  0  0  0  0
    1.8933    0.6505   -0.3617 C   0  0  0  0  0  0  0  0  0  0  0  0
    2.2783    1.8050   -1.0631 C   0  0  0  0  0  0  0  0  0  0  0  0
    3.0907    2.7827   -0.4798 C   0  0  0  0  0  0  0  0  0  0  0  0
    3.3785    3.8458   -1.2929 O   0  0  0  0  0  0  0  0  0  0  0  0
    4.2246    4.8544   -0.7543 C   0  0  0  0  0  0  0  0  0  0  0  0
    3.5241    2.6159    0.8333 C   0  0  0  0  0  0  0  0  0  0  0  0
    3.1475    1.4869    1.5651 C   0  0  0  0  0  0  0  0  0  0  0  0
    3.6361    1.4495    2.8441 O   0  0  0  0  0  0  0  0  0  0  0  0
    3.3099    0.3043    3.6229 C   0  0  0  0  0  0  0  0  0  0  0  0
    2.3348    0.5191    0.9706 C   0  0  0  0  0  0  0  0  0  0  0  0
    3.2561   -2.2201   -5.5568 H   0  0  0  0  0  0  0  0  0  0  0  0
    3.9863   -1.9838   -3.9523 H   0  0  0  0  0  0  0  0  0  0  0  0
    2.4245   -2.7786   -4.0914 H   0  0  0  0  0  0  0  0  0  0  0  0
    3.0324    0.1291   -4.8252 H   0  0  0  0  0  0  0  0  0  0  0  0
    1.4369   -0.5735   -4.9766 H   0  0  0  0  0  0  0  0  0  0  0  0
    0.0598   -1.8191   -3.8636 H   0  0  0  0  0  0  0  0  0  0  0  0
   -2.8642   -2.8145    2.7910 H   0  0  0  0  0  0  0  0  0  0  0  0
   -4.1926   -2.8485    1.6283 H   0  0  0  0  0  0  0  0  0  0  0  0
   -4.8771   -1.6555    3.7088 H   0  0  0  0  0  0  0  0  0  0  0  0
   -3.5131   -0.5562    3.5463 H   0  0  0  0  0  0  0  0  0  0  0  0
   -6.0256   -0.7185    1.8627 H   0  0  0  0  0  0  0  0  0  0  0  0
   -5.3335    0.6614    2.6862 H   0  0  0  0  0  0  0  0  0  0  0  0
   -4.4315    1.3006    0.7255 H   0  0  0  0  0  0  0  0  0  0  0  0
   -5.0525   -1.4659   -0.4219 H   0  0  0  0  0  0  0  0  0  0  0  0
   -4.5590   -0.0382   -1.3482 H   0  0  0  0  0  0  0  0  0  0  0  0
   -6.0971   -0.0367   -0.4764 H   0  0  0  0  0  0  0  0  0  0  0  0
   -2.3385    0.4182    1.5764 H   0  0  0  0  0  0  0  0  0  0  0  0
   -2.4163    0.1010   -0.1524 H   0  0  0  0  0  0  0  0  0  0  0  0
    1.9269    1.9730   -2.0776 H   0  0  0  0  0  0  0  0  0  0  0  0
    3.7551    5.3448    0.1044 H   0  0  0  0  0  0  0  0  0  0  0  0
    5.2066    4.4483   -0.4911 H   0  0  0  0  0  0  0  0  0  0  0  0
    4.3759    5.6122   -1.5289 H   0  0  0  0  0  0  0  0  0  0  0  0
    4.1541    3.3503    1.3236 H   0  0  0  0  0  0  0  0  0  0  0  0
    3.7869    0.4195    4.6010 H   0  0  0  0  0  0  0  0  0  0  0  0
    3.7044   -0.6097    3.1663 H   0  0  0  0  0  0  0  0  0  0  0  0
    2.2292    0.2331    3.7856 H   0  0  0  0  0  0  0  0  0  0  0  0
    2.0373   -0.3676    1.5208 H   0  0  0  0  0  0  0  0  0  0  0  0
  1  2  1  0
  2  3  1  0
  3  4  1  0
  4  5  2  0
  5  6  1  0
  6  7  2  0
  6  8  1  0
  8  9  1  0
  9 10  2  0
  9 11  1  0
 11 12  1  0
 12 13  1  0
 13 14  1  0
 14 15  1  0
 15 16  1  0
 15 17  1  0
  8 18  2  0
 18 19  1  0
 19 20  1  0
 20 21  2  0
 21 22  1  0
 22 23  1  0
 23 24  1  0
 22 25  2  0
 25 26  1  0
 26 27  1  0
 27 28  1  0
 26 29  2  0
 19  4  1  0
 29 20  1  0
 17 11  1  0
  1 30  1  0
  1 31  1  0
  1 32  1  0
  2 33  1  0
  2 34  1  0
  5 35  1  0
 12 36  1  0
 12 37  1  0
 13 38  1  0
 13 39  1  0
 14 40  1  0
 14 41  1  0
 15 42  1  0
 16 43  1  0
 16 44  1  0
 16 45  1  0
 17 46  1  0
 17 47  1  0
 21 48  1  0
 24 49  1  0
 24 50  1  0
 24 51  1  0
 25 52  1  0
 28 53  1  0
 28 54  1  0
 28 55  1  0
 29 56  1  0
M  END
$$$$
