
     RDKit          3D

 53 55  0  0  0  0  0  0  0  0999 V2000
    9.3278   -0.3732   -1.0700 C   0  0  0  0  0  0  0  0  0  0  0  0
    8.4862    0.3248   -0.1613 O   0  0  0  0  0  0  0  0  0  0  0  0
    7.1340    0.1874   -0.3359 C   0  0  0  0  0  0  0  0  0  0  0  0
    6.5139   -0.5893   -1.3148 C   0  0  0  0  0  0  0  0  0  0  0  0
    5.1142   -0.6556   -1.4017 C   0  0  0  0  0  0  0  0  0  0  0  0
    4.3285    0.0667   -0.4851 C   0  0  0  0  0  0  0  0  0  0  0  0
    2.9301    0.2316   -0.2894 C   0  0  0  0  0  0  0  0  0  0  0  0
    2.7329    1.0567    0.8057 C   0  0  0  0  0  0  0  0  0  0  0  0
    1.5351    1.5785    1.4323 C   0  0  0  0  0  0  0  0  0  0  0  0
    1.5617    2.6735    1.9948 O   0  0  0  0  0  0  0  0  0  0  0  0
    0.3582    0.8299    1.3679 N   0  0  0  0  0  0  0  0  0  0  0  0
    0.3175   -0.6261    1.3733 C   0  0  0  0  0  0  0  0  0  0  0  0
   -0.7629   -1.1479    0.4250 C   0  0  0  0  0  0  0  0  0  0  0  0
   -2.0134   -0.2413    0.3624 C   0  0  0  0  0  0  0  0  0  0  0  0
   -3.2753   -1.0838    0.1249 C   0  0  0  0  0  0  0  0  0  0  0  0
   -4.4828   -0.2666   -0.3043 C   0  0  0  0  0  0  0  0  0  0  0  0
   -4.4388    0.9291   -0.5669 O   0  0  0  0  0  0  0  0  0  0  0  0
   -5.6364   -1.0221   -0.3767 N   0  0  0  0  0  0  0  0  0  0  0  0
   -6.8847   -0.4625   -0.8766 C   0  0  0  0  0  0  0  0  0  0  0  0
   -8.0686   -1.2441   -0.3166 C   0  0  0  0  0  0  0  0  0  0  0  0
   -6.9040   -0.4697   -2.4035 C   0  0  0  0  0  0  0  0  0  0  0  0
   -2.1142    0.6140    1.6347 C   0  0  0  0  0  0  0  0  0  0  0  0
   -0.8700    1.4916    1.8006 C   0  0  0  0  0  0  0  0  0  0  0  0
    3.9874    1.4502    1.2208 N   0  0  0  0  0  0  0  0  0  0  0  0
    4.9685    0.8369    0.4805 C   0  0  0  0  0  0  0  0  0  0  0  0
    6.3627    0.9165    0.5785 C   0  0  0  0  0  0  0  0  0  0  0  0
    9.1711   -0.0292   -2.0978 H   0  0  0  0  0  0  0  0  0  0  0  0
    9.1852   -1.4557   -0.9880 H   0  0  0  0  0  0  0  0  0  0  0  0
   10.3654   -0.1533   -0.8006 H   0  0  0  0  0  0  0  0  0  0  0  0
    7.0880   -1.1608   -2.0366 H   0  0  0  0  0  0  0  0  0  0  0  0
    4.6447   -1.2604   -2.1717 H   0  0  0  0  0  0  0  0  0  0  0  0
    2.1487   -0.2043   -0.8976 H   0  0  0  0  0  0  0  0  0  0  0  0
    1.2809   -1.0856    1.1486 H   0  0  0  0  0  0  0  0  0  0  0  0
    0.0886   -0.9303    2.4033 H   0  0  0  0  0  0  0  0  0  0  0  0
   -1.0260   -2.1687    0.7285 H   0  0  0  0  0  0  0  0  0  0  0  0
   -0.3494   -1.2277   -0.5885 H   0  0  0  0  0  0  0  0  0  0  0  0
   -1.8838    0.4414   -0.4892 H   0  0  0  0  0  0  0  0  0  0  0  0
   -3.0845   -1.8085   -0.6770 H   0  0  0  0  0  0  0  0  0  0  0  0
   -3.5320   -1.6450    1.0316 H   0  0  0  0  0  0  0  0  0  0  0  0
   -5.5480   -2.0296   -0.3447 H   0  0  0  0  0  0  0  0  0  0  0  0
   -6.9548    0.5762   -0.5319 H   0  0  0  0  0  0  0  0  0  0  0  0
   -9.0170   -0.8156   -0.6567 H   0  0  0  0  0  0  0  0  0  0  0  0
   -8.0363   -2.2941   -0.6283 H   0  0  0  0  0  0  0  0  0  0  0  0
   -8.0614   -1.2253    0.7788 H   0  0  0  0  0  0  0  0  0  0  0  0
   -6.0737    0.1173   -2.8104 H   0  0  0  0  0  0  0  0  0  0  0  0
   -7.8371   -0.0418   -2.7843 H   0  0  0  0  0  0  0  0  0  0  0  0
   -6.8092   -1.4884   -2.7958 H   0  0  0  0  0  0  0  0  0  0  0  0
   -2.2138   -0.0447    2.5075 H   0  0  0  0  0  0  0  0  0  0  0  0
   -3.0040    1.2523    1.6278 H   0  0  0  0  0  0  0  0  0  0  0  0
   -0.7618    1.7867    2.8512 H   0  0  0  0  0  0  0  0  0  0  0  0
   -0.9750    2.4113    1.2122 H   0  0  0  0  0  0  0  0  0  0  0  0
    4.1466    2.1068    1.9737 H   0  0  0  0  0  0  0  0  0  0  0  0
    6.8409    1.5276    1.3375 H   0  0  0  0  0  0  0  0  0  0  0  0
  1  2  1  0
  2  3  1  0
  3  4  2  0
  4  5  1  0
  5  6  2  0
  6  7  1  0
  7  8  2  0
  8  9  1  0
  9 10  2  0
  9 11  1  0
 11 12  1  0
 12 13  1  0
 13 14  1  0
 14 15  1  0
 15 16  1  0
 16 17  2  0
 16 18  1  0
 18 19  1  0
 19 20  1  0
 19 21  1  0
 14 22  1  0
 22 23  1  0
  8 24  1  0
 24 25  1  0
 25 26  2  0
 26  3  1  0
 25  6  1  0
 23 11  1  0
  1 27  1  0
  1 28  1  0
  1 29  1  0
  4 30  1  0
  5 31  1  0
  7 32  1  0
 12 33  1  0
 12 34  1  0
 13 35  1  0
 13 36  1  0
 14 37  1  0
 15 38  1  0
 15 39  1  0
 18 40  1  0
 19 41  1  0
 20 42  1  0
 20 43  1  0
 20 44  1  0
 21 45  1  0
 21 46  1  0
 21 47  1  0
 22 48  1  0
 22 49  1  0
 23 50  1  0
 23 51  1  0
 24 52  1  0
 26 53  1  0
M  END
$$$$
