
     RDKit          3D

 62 67  0  0  0  0  0  0  0  0999 V2000
   -5.1864    0.1385   -2.1128 O   0  0  0  0  0  0  0  0  0  0  0  0
   -4.6760    0.4409   -1.0340 C   0  0  0  0  0  0  0  0  0  0  0  0
   -3.2444    0.0229   -0.6866 C   0  0  0  0  0  0  0  0  0  0  0  0
   -3.2303   -1.1295    0.3230 C   0  0  0  0  0  0  0  0  0  0  0  0
   -3.6257   -2.4609   -0.3049 C   0  0  0  0  0  0  0  0  0  0  0  0
   -2.8020   -2.7552   -1.4847 N   0  0  0  0  0  0  0  0  0  0  0  0
   -1.5987   -3.9308   -1.4321 S   0  0  0  0  0  6  0  0  0  0  0  0
   -2.0098   -4.9721   -0.5140 O   0  0  0  0  0  0  0  0  0  0  0  0
   -1.1989   -4.2486   -2.7866 O   0  0  0  0  0  0  0  0  0  0  0  0
   -0.2356   -3.0719   -0.6729 C   0  0  0  0  0  0  0  0  0  0  0  0
    0.6997   -2.4135   -1.4747 C   0  0  0  0  0  0  0  0  0  0  0  0
    1.7807   -1.7588   -0.8777 C   0  0  0  0  0  0  0  0  0  0  0  0
    1.9448   -1.7681    0.5172 C   0  0  0  0  0  0  0  0  0  0  0  0
    3.0744   -1.0724    1.1268 C   0  0  0  0  0  0  0  0  0  0  0  0
    3.2641   -0.9652    2.4521 N   0  0  0  0  0  0  0  0  0  0  0  0
    4.4430   -0.2300    2.5585 O   0  0  0  0  0  0  0  0  0  0  0  0
    4.8541    0.0405    1.2853 C   0  0  0  0  0  0  0  0  0  0  0  0
    6.0877    0.8024    1.1270 C   0  0  0  0  0  0  0  0  0  0  0  0
    6.8082    1.2968    2.2410 C   0  0  0  0  0  0  0  0  0  0  0  0
    7.9941    2.0236    2.0750 C   0  0  0  0  0  0  0  0  0  0  0  0
    8.4373    2.2408    0.7905 C   0  0  0  0  0  0  0  0  0  0  0  0
    7.7480    1.7684   -0.2994 C   0  0  0  0  0  0  0  0  0  0  0  0
    6.5767    1.0518   -0.1665 C   0  0  0  0  0  0  0  0  0  0  0  0
    8.3531    2.0892   -1.4733 O   0  0  0  0  0  0  0  0  0  0  0  0
    9.5097    2.8093   -0.9965 C   0  0  0  0  0  0  0  0  0  0  0  0
    9.5623    2.9187    0.4410 O   0  0  0  0  0  0  0  0  0  0  0  0
    4.0457   -0.4499    0.3724 N   0  0  0  0  0  0  0  0  0  0  0  0
    1.0098   -2.4604    1.3045 C   0  0  0  0  0  0  0  0  0  0  0  0
   -0.0725   -3.1195    0.7136 C   0  0  0  0  0  0  0  0  0  0  0  0
   -2.7936   -1.7132   -2.5233 C   0  0  0  0  0  0  0  0  0  0  0  0
   -2.4349   -0.3498   -1.9381 C   0  0  0  0  0  0  0  0  0  0  0  0
   -5.3885    1.1347   -0.0797 N   0  0  0  0  0  0  0  0  0  0  0  0
   -6.7745    1.5022   -0.3194 C   0  0  0  0  0  0  0  0  0  0  0  0
   -7.2450    2.0836    1.0042 C   0  0  0  0  0  0  0  0  0  0  0  0
   -5.9825    2.7388    1.5456 C   0  0  0  0  0  0  0  0  0  0  0  0
   -4.8865    1.7616    1.1357 C   0  0  0  0  0  0  0  0  0  0  0  0
   -2.7495    0.8937   -0.2420 H   0  0  0  0  0  0  0  0  0  0  0  0
   -2.2225   -1.2095    0.7444 H   0  0  0  0  0  0  0  0  0  0  0  0
   -3.9007   -0.9319    1.1643 H   0  0  0  0  0  0  0  0  0  0  0  0
   -3.5431   -3.2531    0.4463 H   0  0  0  0  0  0  0  0  0  0  0  0
   -4.6790   -2.4454   -0.6113 H   0  0  0  0  0  0  0  0  0  0  0  0
    0.5967   -2.4060   -2.5580 H   0  0  0  0  0  0  0  0  0  0  0  0
    2.5007   -1.2436   -1.5123 H   0  0  0  0  0  0  0  0  0  0  0  0
    6.4496    1.1183    3.2532 H   0  0  0  0  0  0  0  0  0  0  0  0
    8.5473    2.4019    2.9272 H   0  0  0  0  0  0  0  0  0  0  0  0
    6.0550    0.6906   -1.0477 H   0  0  0  0  0  0  0  0  0  0  0  0
   10.4122    2.2913   -1.3416 H   0  0  0  0  0  0  0  0  0  0  0  0
    9.4969    3.8179   -1.4254 H   0  0  0  0  0  0  0  0  0  0  0  0
    1.1209   -2.5007    2.3870 H   0  0  0  0  0  0  0  0  0  0  0  0
   -0.7780   -3.6643    1.3375 H   0  0  0  0  0  0  0  0  0  0  0  0
   -3.7796   -1.6970   -2.9989 H   0  0  0  0  0  0  0  0  0  0  0  0
   -2.0855   -1.9547   -3.3226 H   0  0  0  0  0  0  0  0  0  0  0  0
   -1.3720   -0.3491   -1.6681 H   0  0  0  0  0  0  0  0  0  0  0  0
   -2.5558    0.4176   -2.7127 H   0  0  0  0  0  0  0  0  0  0  0  0
   -6.7935    2.2545   -1.1157 H   0  0  0  0  0  0  0  0  0  0  0  0
   -7.3585    0.6331   -0.6368 H   0  0  0  0  0  0  0  0  0  0  0  0
   -7.5629    1.2786    1.6772 H   0  0  0  0  0  0  0  0  0  0  0  0
   -8.0761    2.7839    0.8874 H   0  0  0  0  0  0  0  0  0  0  0  0
   -6.0150    2.9079    2.6247 H   0  0  0  0  0  0  0  0  0  0  0  0
   -5.8262    3.7055    1.0524 H   0  0  0  0  0  0  0  0  0  0  0  0
   -4.7562    0.9855    1.8939 H   0  0  0  0  0  0  0  0  0  0  0  0
   -3.9333    2.2649    0.9615 H   0  0  0  0  0  0  0  0  0  0  0  0
  1  2  2  0
  2  3  1  0
  3  4  1  0
  4  5  1  0
  5  6  1  0
  6  7  1  0
  7  8  2  0
  7  9  2  0
  7 10  1  0
 10 11  2  0
 11 12  1  0
 12 13  2  0
 13 14  1  0
 14 15  2  0
 15 16  1  0
 16 17  1  0
 17 18  1  0
 18 19  2  0
 19 20  1  0
 20 21  2  0
 21 22  1  0
 22 23  2  0
 22 24  1  0
 24 25  1  0
 25 26  1  0
 17 27  2  0
 13 28  1  0
 28 29  2  0
  6 30  1  0
 30 31  1  0
  2 32  1  0
 32 33  1  0
 33 34  1  0
 34 35  1  0
 35 36  1  0
 31  3  1  0
 36 32  1  0
 29 10  1  0
 27 14  1  0
 23 18  1  0
 26 21  1  0
  3 37  1  0
  4 38  1  0
  4 39  1  0
  5 40  1  0
  5 41  1  0
 11 42  1  0
 12 43  1  0
 19 44  1  0
 20 45  1  0
 23 46  1  0
 25 47  1  0
 25 48  1  0
 28 49  1  0
 29 50  1  0
 30 51  1  0
 30 52  1  0
 31 53  1  0
 31 54  1  0
 33 55  1  0
 33 56  1  0
 34 57  1  0
 34 58  1  0
 35 59  1  0
 35 60  1  0
 36 61  1  0
 36 62  1  0
M  END
$$$$
