
     RDKit          3D

 56 58  0  0  0  0  0  0  0  0999 V2000
   -7.2890   -1.2855    0.4724 C   0  0  0  0  0  0  0  0  0  0  0  0
   -6.6891   -0.8087   -0.8523 C   0  0  0  0  0  0  0  0  0  0  0  0
   -7.8017   -0.6235   -1.8857 C   0  0  0  0  0  0  0  0  0  0  0  0
   -5.9061    0.5005   -0.6841 C   0  0  0  0  0  0  0  0  0  0  0  0
   -4.6724    0.3176    0.0575 N   0  0  0  0  0  0  0  0  0  0  0  0
   -3.7134    1.3122    0.0712 C   0  0  0  0  0  0  0  0  0  0  0  0
   -3.7943    2.3329   -0.6030 O   0  0  0  0  0  0  0  0  0  0  0  0
   -2.5309    1.0031    0.9878 C   0  0  0  0  0  0  0  0  0  0  0  0
   -1.6295    2.2334    1.1713 C   0  0  0  0  0  0  0  0  0  0  0  0
   -0.5335    2.2843    0.1136 C   0  0  0  0  0  0  0  0  0  0  0  0
    0.3292    1.1006    0.1693 N   0  0  0  0  0  0  0  0  0  0  0  0
    1.6075    1.2099   -0.3667 C   0  0  0  0  0  0  0  0  0  0  0  0
    1.9745    2.2319   -0.9491 O   0  0  0  0  0  0  0  0  0  0  0  0
    2.5477    0.0250   -0.2241 C   0  0  0  0  0  0  0  0  0  0  0  0
    2.9107   -0.2857    1.2187 C   0  0  0  0  0  0  0  0  0  0  0  0
    4.3037   -0.8579    1.1288 C   0  0  0  0  0  0  0  0  0  0  0  0
    4.8132   -1.4773    2.0504 O   0  0  0  0  0  0  0  0  0  0  0  0
    4.8344   -0.5172   -0.1196 N   0  0  0  0  0  0  0  0  0  0  0  0
    6.1514   -0.7898   -0.5838 C   0  0  0  0  0  0  0  0  0  0  0  0
    7.0171   -1.6464    0.1086 C   0  0  0  0  0  0  0  0  0  0  0  0
    8.3088   -1.9116   -0.3628 C   0  0  0  0  0  0  0  0  0  0  0  0
    8.7603   -1.3235   -1.5387 C   0  0  0  0  0  0  0  0  0  0  0  0
    7.9193   -0.4701   -2.2430 C   0  0  0  0  0  0  0  0  0  0  0  0
    6.6284   -0.2070   -1.7699 C   0  0  0  0  0  0  0  0  0  0  0  0
    3.9051    0.3097   -0.8554 C   0  0  0  0  0  0  0  0  0  0  0  0
   -0.2616   -0.1239    0.7110 C   0  0  0  0  0  0  0  0  0  0  0  0
   -1.7590   -0.2075    0.4361 C   0  0  0  0  0  0  0  0  0  0  0  0
   -7.9640   -0.5338    0.8958 H   0  0  0  0  0  0  0  0  0  0  0  0
   -6.5105   -1.4963    1.2118 H   0  0  0  0  0  0  0  0  0  0  0  0
   -7.8612   -2.2083    0.3281 H   0  0  0  0  0  0  0  0  0  0  0  0
   -6.0089   -1.5876   -1.2202 H   0  0  0  0  0  0  0  0  0  0  0  0
   -8.5120    0.1487   -1.5713 H   0  0  0  0  0  0  0  0  0  0  0  0
   -8.3569   -1.5562   -2.0315 H   0  0  0  0  0  0  0  0  0  0  0  0
   -7.3869   -0.3284   -2.8553 H   0  0  0  0  0  0  0  0  0  0  0  0
   -5.6467    0.9155   -1.6655 H   0  0  0  0  0  0  0  0  0  0  0  0
   -6.5028    1.2549   -0.1578 H   0  0  0  0  0  0  0  0  0  0  0  0
   -4.6736   -0.3363    0.8288 H   0  0  0  0  0  0  0  0  0  0  0  0
   -2.9487    0.7543    1.9727 H   0  0  0  0  0  0  0  0  0  0  0  0
   -1.1591    2.1799    2.1622 H   0  0  0  0  0  0  0  0  0  0  0  0
   -2.2096    3.1631    1.1565 H   0  0  0  0  0  0  0  0  0  0  0  0
   -0.9603    2.3333   -0.8951 H   0  0  0  0  0  0  0  0  0  0  0  0
    0.0744    3.1847    0.2574 H   0  0  0  0  0  0  0  0  0  0  0  0
    2.1148   -0.8534   -0.7173 H   0  0  0  0  0  0  0  0  0  0  0  0
    2.9284    0.6067    1.8528 H   0  0  0  0  0  0  0  0  0  0  0  0
    2.2411   -1.0322    1.6542 H   0  0  0  0  0  0  0  0  0  0  0  0
    6.7151   -2.1406    1.0265 H   0  0  0  0  0  0  0  0  0  0  0  0
    8.9577   -2.5812    0.1962 H   0  0  0  0  0  0  0  0  0  0  0  0
    9.7632   -1.5288   -1.9025 H   0  0  0  0  0  0  0  0  0  0  0  0
    8.2655   -0.0015   -3.1607 H   0  0  0  0  0  0  0  0  0  0  0  0
    6.0192    0.4787   -2.3509 H   0  0  0  0  0  0  0  0  0  0  0  0
    3.8856    0.0376   -1.9161 H   0  0  0  0  0  0  0  0  0  0  0  0
    4.2253    1.3526   -0.7481 H   0  0  0  0  0  0  0  0  0  0  0  0
   -0.0752   -0.1242    1.7912 H   0  0  0  0  0  0  0  0  0  0  0  0
    0.2260   -1.0053    0.2884 H   0  0  0  0  0  0  0  0  0  0  0  0
   -2.1618   -1.1291    0.8737 H   0  0  0  0  0  0  0  0  0  0  0  0
   -1.9091   -0.2922   -0.6487 H   0  0  0  0  0  0  0  0  0  0  0  0
  1  2  1  0
  2  3  1  0
  2  4  1  0
  4  5  1  0
  5  6  1  0
  6  7  2  0
  6  8  1  0
  8  9  1  0
  9 10  1  0
 10 11  1  0
 11 12  1  0
 12 13  2  0
 12 14  1  0
 14 15  1  0
 15 16  1  0
 16 17  2  0
 16 18  1  0
 18 19  1  0
 19 20  2  0
 20 21  1  0
 21 22  2  0
 22 23  1  0
 23 24  2  0
 18 25  1  0
 11 26  1  0
 26 27  1  0
 27  8  1  0
 25 14  1  0
 24 19  1  0
  1 28  1  0
  1 29  1  0
  1 30  1  0
  2 31  1  0
  3 32  1  0
  3 33  1  0
  3 34  1  0
  4 35  1  0
  4 36  1  0
  5 37  1  0
  8 38  1  0
  9 39  1  0
  9 40  1  0
 10 41  1  0
 10 42  1  0
 14 43  1  0
 15 44  1  0
 15 45  1  0
 20 46  1  0
 21 47  1  0
 22 48  1  0
 23 49  1  0
 24 50  1  0
 25 51  1  0
 25 52  1  0
 26 53  1  0
 26 54  1  0
 27 55  1  0
 27 56  1  0
M  END
$$$$
