
     RDKit          3D

 41 43  0  0  0  0  0  0  0  0999 V2000
    5.8753   -0.4740    1.1160 C   0  0  0  0  0  0  0  0  0  0  0  0
    4.9496    0.2753    0.2032 C   0  0  0  0  0  0  0  0  0  0  0  0
    5.4521    1.0076   -0.8714 C   0  0  0  0  0  0  0  0  0  0  0  0
    4.5813    1.6758   -1.7299 C   0  0  0  0  0  0  0  0  0  0  0  0
    3.1898    1.6174   -1.5382 C   0  0  0  0  0  0  0  0  0  0  0  0
    2.3097    2.3664   -2.5032 C   0  0  0  0  0  0  0  0  0  0  0  0
    2.6695    0.8651   -0.4619 C   0  0  0  0  0  0  0  0  0  0  0  0
    1.2653    0.8081   -0.2881 N   0  0  0  0  0  0  0  0  0  0  0  0
    0.5501    0.1478    0.6986 C   0  0  0  0  0  0  0  0  0  0  0  0
    1.0057   -0.5271    1.6139 O   0  0  0  0  0  0  0  0  0  0  0  0
   -0.9441    0.3212    0.5069 C   0  0  0  0  0  0  0  0  0  0  0  0
   -1.7242   -0.2332    1.6935 C   0  0  0  0  0  0  0  0  0  0  0  0
   -3.1495   -0.1354    1.4861 N   0  0  0  0  0  0  0  0  0  0  0  0
   -3.9157    0.9980    1.6746 C   0  0  0  0  0  0  0  0  0  0  0  0
   -3.5086    2.0800    2.0759 O   0  0  0  0  0  0  0  0  0  0  0  0
   -5.2518    0.7681    1.3180 O   0  0  0  0  0  0  0  0  0  0  0  0
   -5.2210   -0.5442    0.8748 C   0  0  0  0  0  0  0  0  0  0  0  0
   -6.3009   -1.2461    0.3834 C   0  0  0  0  0  0  0  0  0  0  0  0
   -6.0764   -2.5621   -0.0318 C   0  0  0  0  0  0  0  0  0  0  0  0
   -4.7917   -3.1351    0.0529 C   0  0  0  0  0  0  0  0  0  0  0  0
   -3.7111   -2.4026    0.5549 C   0  0  0  0  0  0  0  0  0  0  0  0
   -3.9641   -1.1095    0.9589 C   0  0  0  0  0  0  0  0  0  0  0  0
    3.5606    0.2001    0.3908 C   0  0  0  0  0  0  0  0  0  0  0  0
    5.9948   -1.5034    0.7644 H   0  0  0  0  0  0  0  0  0  0  0  0
    6.8606    0.0024    1.1531 H   0  0  0  0  0  0  0  0  0  0  0  0
    5.4846   -0.4902    2.1389 H   0  0  0  0  0  0  0  0  0  0  0  0
    6.5239    1.0650   -1.0466 H   0  0  0  0  0  0  0  0  0  0  0  0
    5.0002    2.2459   -2.5567 H   0  0  0  0  0  0  0  0  0  0  0  0
    1.6442    1.6728   -3.0272 H   0  0  0  0  0  0  0  0  0  0  0  0
    1.7161    3.1174   -1.9719 H   0  0  0  0  0  0  0  0  0  0  0  0
    2.8973    2.8928   -3.2631 H   0  0  0  0  0  0  0  0  0  0  0  0
    0.7165    1.3280   -0.9591 H   0  0  0  0  0  0  0  0  0  0  0  0
   -1.2325   -0.1998   -0.4139 H   0  0  0  0  0  0  0  0  0  0  0  0
   -1.1686    1.3865    0.3756 H   0  0  0  0  0  0  0  0  0  0  0  0
   -1.4579   -1.2754    1.9023 H   0  0  0  0  0  0  0  0  0  0  0  0
   -1.4753    0.3461    2.5914 H   0  0  0  0  0  0  0  0  0  0  0  0
   -7.2844   -0.7945    0.3210 H   0  0  0  0  0  0  0  0  0  0  0  0
   -6.9022   -3.1519   -0.4246 H   0  0  0  0  0  0  0  0  0  0  0  0
   -4.6414   -4.1619   -0.2750 H   0  0  0  0  0  0  0  0  0  0  0  0
   -2.7255   -2.8476    0.6216 H   0  0  0  0  0  0  0  0  0  0  0  0
    3.1995   -0.3938    1.2248 H   0  0  0  0  0  0  0  0  0  0  0  0
  1  2  1  0
  2  3  2  0
  3  4  1  0
  4  5  2  0
  5  6  1  0
  5  7  1  0
  7  8  1  0
  8  9  1  0
  9 10  2  0
  9 11  1  0
 11 12  1  0
 12 13  1  0
 13 14  1  0
 14 15  2  0
 14 16  1  0
 16 17  1  0
 17 18  2  0
 18 19  1  0
 19 20  2  0
 20 21  1  0
 21 22  2  0
  7 23  2  0
 23  2  1  0
 22 13  1  0
 22 17  1  0
  1 24  1  0
  1 25  1  0
  1 26  1  0
  3 27  1  0
  4 28  1  0
  6 29  1  0
  6 30  1  0
  6 31  1  0
  8 32  1  0
 11 33  1  0
 11 34  1  0
 12 35  1  0
 12 36  1  0
 18 37  1  0
 19 38  1  0
 20 39  1  0
 21 40  1  0
 23 41  1  0
M  END
$$$$
