
     RDKit          3D

 51 54  0  0  0  0  0  0  0  0999 V2000
    9.1154   -0.5949    1.7834 C   0  0  0  0  0  0  0  0  0  0  0  0
    7.9714   -0.0793    1.0723 N   0  0  0  0  0  0  0  0  0  0  0  0
    6.8354   -0.8506    0.9264 C   0  0  0  0  0  0  0  0  0  0  0  0
    6.7502   -2.0084    1.3186 O   0  0  0  0  0  0  0  0  0  0  0  0
    5.6674   -0.2004    0.2863 C   0  0  0  0  0  0  0  0  0  0  0  0
    5.7721    0.8875   -0.5834 C   0  0  0  0  0  0  0  0  0  0  0  0
    4.6132    1.4290   -1.1405 C   0  0  0  0  0  0  0  0  0  0  0  0
    3.3896    0.8559   -0.8199 C   0  0  0  0  0  0  0  0  0  0  0  0
    2.2694    1.4604   -1.3800 O   0  0  0  0  0  0  0  0  0  0  0  0
    1.0952    0.7484   -1.3652 C   0  0  0  0  0  0  0  0  0  0  0  0
    0.9632   -0.4686   -2.0223 C   0  0  0  0  0  0  0  0  0  0  0  0
   -0.2703   -1.1187   -2.0195 C   0  0  0  0  0  0  0  0  0  0  0  0
   -1.3929   -0.5613   -1.3734 C   0  0  0  0  0  0  0  0  0  0  0  0
   -1.2716    0.7020   -0.7632 C   0  0  0  0  0  0  0  0  0  0  0  0
   -0.0128    1.3369   -0.7576 C   0  0  0  0  0  0  0  0  0  0  0  0
   -2.4083    1.4182   -0.0664 C   0  0  0  0  0  0  0  0  0  0  0  0
   -3.8122    1.1690   -0.6407 C   0  0  0  0  0  0  0  0  0  0  0  0
   -4.5021   -0.0655   -0.2049 N   0  0  0  0  0  0  0  0  0  0  0  0
   -5.1074    0.1334    1.1356 C   0  0  0  0  0  0  0  0  0  0  0  0
   -6.4018    0.9920    1.0045 C   0  0  0  0  0  0  0  0  0  0  0  0
   -7.2028   -0.3083    0.8138 C   0  0  0  0  0  0  0  0  0  0  0  0
   -6.0509   -1.0429    1.5200 C   0  0  0  0  0  0  0  0  0  0  0  0
   -3.5825   -1.2222   -0.1795 C   0  0  0  0  0  0  0  0  0  0  0  0
   -2.6808   -1.3560   -1.4168 C   0  0  0  0  0  0  0  0  0  0  0  0
    3.2572   -0.1968    0.0175 N   0  0  0  0  0  0  0  0  0  0  0  0
    4.3989   -0.7090    0.5408 C   0  0  0  0  0  0  0  0  0  0  0  0
    8.9086   -0.5533    2.8561 H   0  0  0  0  0  0  0  0  0  0  0  0
    9.3105   -1.6297    1.4896 H   0  0  0  0  0  0  0  0  0  0  0  0
    9.9806    0.0293    1.5483 H   0  0  0  0  0  0  0  0  0  0  0  0
    7.9010    0.9237    0.9715 H   0  0  0  0  0  0  0  0  0  0  0  0
    6.7352    1.3061   -0.8567 H   0  0  0  0  0  0  0  0  0  0  0  0
    4.6617    2.2742   -1.8187 H   0  0  0  0  0  0  0  0  0  0  0  0
    1.8126   -0.9208   -2.5246 H   0  0  0  0  0  0  0  0  0  0  0  0
   -0.3506   -2.0801   -2.5236 H   0  0  0  0  0  0  0  0  0  0  0  0
    0.1099    2.3032   -0.2735 H   0  0  0  0  0  0  0  0  0  0  0  0
   -2.3707    1.1877    1.0049 H   0  0  0  0  0  0  0  0  0  0  0  0
   -2.2279    2.4988   -0.1509 H   0  0  0  0  0  0  0  0  0  0  0  0
   -4.4280    2.0424   -0.3971 H   0  0  0  0  0  0  0  0  0  0  0  0
   -3.7683    1.1718   -1.7378 H   0  0  0  0  0  0  0  0  0  0  0  0
   -4.4156    0.4429    1.9253 H   0  0  0  0  0  0  0  0  0  0  0  0
   -6.4883    1.7061    0.1815 H   0  0  0  0  0  0  0  0  0  0  0  0
   -6.6566    1.5189    1.9330 H   0  0  0  0  0  0  0  0  0  0  0  0
   -8.1716   -0.3478    1.3181 H   0  0  0  0  0  0  0  0  0  0  0  0
   -7.3372   -0.5975   -0.2346 H   0  0  0  0  0  0  0  0  0  0  0  0
   -6.2018   -1.1215    2.6050 H   0  0  0  0  0  0  0  0  0  0  0  0
   -5.8446   -2.0488    1.1499 H   0  0  0  0  0  0  0  0  0  0  0  0
   -2.9715   -1.2328    0.7332 H   0  0  0  0  0  0  0  0  0  0  0  0
   -4.1942   -2.1307   -0.1563 H   0  0  0  0  0  0  0  0  0  0  0  0
   -3.2302   -1.1074   -2.3334 H   0  0  0  0  0  0  0  0  0  0  0  0
   -2.4205   -2.4204   -1.4983 H   0  0  0  0  0  0  0  0  0  0  0  0
    4.2551   -1.5639    1.1979 H   0  0  0  0  0  0  0  0  0  0  0  0
  1  2  1  0
  2  3  1  0
  3  4  2  0
  3  5  1  0
  5  6  2  0
  6  7  1  0
  7  8  2  0
  8  9  1  0
  9 10  1  0
 10 11  2  0
 11 12  1  0
 12 13  2  0
 13 14  1  0
 14 15  2  0
 14 16  1  0
 16 17  1  0
 17 18  1  0
 18 19  1  0
 19 20  1  0
 20 21  1  0
 21 22  1  0
 18 23  1  0
 23 24  1  0
  8 25  1  0
 25 26  2  0
 26  5  1  0
 15 10  1  0
 22 19  1  0
 24 13  1  0
  1 27  1  0
  1 28  1  0
  1 29  1  0
  2 30  1  0
  6 31  1  0
  7 32  1  0
 11 33  1  0
 12 34  1  0
 15 35  1  0
 16 36  1  0
 16 37  1  0
 17 38  1  0
 17 39  1  0
 19 40  1  0
 20 41  1  0
 20 42  1  0
 21 43  1  0
 21 44  1  0
 22 45  1  0
 22 46  1  0
 23 47  1  0
 23 48  1  0
 24 49  1  0
 24 50  1  0
 26 51  1  0
M  END
$$$$
