
     RDKit          3D

 54 56  0  0  0  0  0  0  0  0999 V2000
    0.6923    0.0000    0.0000 Cl  0  0  0  0  0  0  0  0  0  0  0  0
   -0.0020    0.3783   -0.0000 O   0  0  0  0  0  0  0  0  0  0  0  0
   -8.7680    1.2419    1.1168 O   0  0  0  0  0  0  0  0  0  0  0  0
   -7.6450    0.9345    0.6323 C   0  0  0  0  0  0  0  0  0  0  0  0
   -6.3875    0.9037    1.3957 C   0  0  0  0  0  0  0  0  0  0  0  0
   -5.3694    0.4927    0.4157 C   0  0  0  0  0  0  0  0  0  0  0  0
   -3.9879    0.2926    0.5713 C   0  0  0  0  0  0  0  0  0  0  0  0
   -3.2119   -0.0961   -0.4929 C   0  0  0  0  0  0  0  0  0  0  0  0
   -1.7358   -0.3178   -0.3606 C   0  0  0  0  0  0  0  0  0  0  0  0
   -0.9641    0.8628   -0.9671 C   0  0  0  0  0  0  0  0  0  0  0  0
    0.4073    0.6039   -0.8201 N   0  0  0  0  0  0  0  0  0  0  0  0
    0.9659    0.6059    0.4845 C   0  0  0  0  0  0  0  0  0  0  0  0
    1.8038   -0.6809    0.5715 C   0  0  0  0  0  0  0  0  0  0  0  0
    2.6017   -0.7715   -0.6007 N   0  0  0  0  0  0  0  0  0  0  0  0
    3.9170   -1.4296   -0.4386 C   0  0  0  0  0  0  0  0  0  0  0  0
    4.0990   -2.6418   -1.1055 N   0  0  0  0  0  0  0  0  0  0  0  0
    5.7990   -3.0576   -0.6015 S   0  0  0  0  0  0  0  0  0  0  0  0
    6.0850   -1.7133    0.3555 C   0  0  0  0  0  0  0  0  0  0  0  0
    7.2112   -1.2991    1.1105 C   0  0  0  0  0  0  0  0  0  0  0  0
    7.2028   -0.1259    1.8258 C   0  0  0  0  0  0  0  0  0  0  0  0
    6.0419    0.6040    1.7563 C   0  0  0  0  0  0  0  0  0  0  0  0
    4.9358    0.2377    1.0394 C   0  0  0  0  0  0  0  0  0  0  0  0
    4.9363   -0.9738    0.2979 C   0  0  0  0  0  0  0  0  0  0  0  0
    2.3011   -0.3088   -1.9078 C   0  0  0  0  0  0  0  0  0  0  0  0
    1.2801    0.8330   -1.9040 C   0  0  0  0  0  0  0  0  0  0  0  0
   -3.8335   -0.2820   -1.7133 C   0  0  0  0  0  0  0  0  0  0  0  0
   -2.8491   -0.7770   -3.0712 Cl  0  0  0  0  0  0  0  0  0  0  0  0
   -5.1894   -0.0863   -1.8682 C   0  0  0  0  0  0  0  0  0  0  0  0
   -5.9891    0.3090   -0.7934 C   0  0  0  0  0  0  0  0  0  0  0  0
   -7.3864    0.5681   -0.7110 N   0  0  0  0  0  0  0  0  0  0  0  0
   -0.6923    0.0000    0.0000 H   0  0  0  0  0  0  0  0  0  0  0  0
    0.8203   -0.1885    0.0000 H   0  0  0  0  0  0  0  0  0  0  0  0
   -0.8183   -0.1899   -0.0000 H   0  0  0  0  0  0  0  0  0  0  0  0
   -6.1502    1.8771    1.8743 H   0  0  0  0  0  0  0  0  0  0  0  0
   -6.4183    0.1046    2.1901 H   0  0  0  0  0  0  0  0  0  0  0  0
   -3.4952    0.4359    1.5226 H   0  0  0  0  0  0  0  0  0  0  0  0
   -1.5112   -0.4333    0.7025 H   0  0  0  0  0  0  0  0  0  0  0  0
   -1.4800   -1.2612   -0.8636 H   0  0  0  0  0  0  0  0  0  0  0  0
   -1.2335    1.0166   -2.0117 H   0  0  0  0  0  0  0  0  0  0  0  0
   -1.2747    1.7716   -0.4004 H   0  0  0  0  0  0  0  0  0  0  0  0
    1.6409    1.4774    0.6952 H   0  0  0  0  0  0  0  0  0  0  0  0
    0.1667    0.6165    1.2452 H   0  0  0  0  0  0  0  0  0  0  0  0
    2.3496   -0.6442    1.5106 H   0  0  0  0  0  0  0  0  0  0  0  0
    1.0355   -1.4913    0.6268 H   0  0  0  0  0  0  0  0  0  0  0  0
    8.0546   -1.9587    1.0815 H   0  0  0  0  0  0  0  0  0  0  0  0
    8.0639    0.1961    2.4067 H   0  0  0  0  0  0  0  0  0  0  0  0
    6.0178    1.5299    2.3135 H   0  0  0  0  0  0  0  0  0  0  0  0
    4.0797    0.9008    1.0569 H   0  0  0  0  0  0  0  0  0  0  0  0
    3.2266    0.0955   -2.3924 H   0  0  0  0  0  0  0  0  0  0  0  0
    1.9105   -1.0861   -2.5972 H   0  0  0  0  0  0  0  0  0  0  0  0
    0.7303    0.8250   -2.8428 H   0  0  0  0  0  0  0  0  0  0  0  0
    1.8263    1.8159   -1.8482 H   0  0  0  0  0  0  0  0  0  0  0  0
   -5.6985   -0.2261   -2.8159 H   0  0  0  0  0  0  0  0  0  0  0  0
   -8.1115    0.5099   -1.4716 H   0  0  0  0  0  0  0  0  0  0  0  0
  3  4  2  0
  4  5  1  0
  5  6  1  0
  6  7  2  0
  7  8  1  0
  8  9  1  0
  9 10  1  0
 10 11  1  0
 11 12  1  0
 12 13  1  0
 13 14  1  0
 14 15  1  0
 15 16  2  0
 16 17  1  0
 17 18  1  0
 18 19  2  0
 19 20  1  0
 20 21  2  0
 21 22  1  0
 22 23  2  0
 14 24  1  0
 24 25  1  0
  8 26  2  0
 26 27  1  0
 26 28  1  0
 28 29  2  0
 29 30  1  0
 30  4  1  0
 29  6  1  0
 25 11  1  0
 23 15  1  0
 23 18  1  0
  1 31  1  0
  2 32  1  0
  2 33  1  0
  5 34  1  0
  5 35  1  0
  7 36  1  0
  9 37  1  0
  9 38  1  0
 10 39  1  0
 10 40  1  0
 12 41  1  0
 12 42  1  0
 13 43  1  0
 13 44  1  0
 19 45  1  0
 20 46  1  0
 21 47  1  0
 22 48  1  0
 24 49  1  0
 24 50  1  0
 25 51  1  0
 25 52  1  0
 28 53  1  0
 30 54  1  0
M  END
$$$$
