
     RDKit          3D

 33 35  0  0  0  0  0  0  0  0999 V2000
    7.0058    0.7151    0.3527 O   0  0  0  0  0  0  0  0  0  0  0  0
    6.1014    0.3005   -0.3549 C   0  0  0  0  0  0  0  0  0  0  0  0
    6.3528   -0.2629   -1.5526 O   0  0  0  0  0  0  0  0  0  0  0  0
    4.6989    0.3332   -0.0639 C   0  0  0  0  0  0  0  0  0  0  0  0
    3.6076   -0.1060   -0.7931 C   0  0  0  0  0  0  0  0  0  0  0  0
    2.4285    0.1662   -0.0459 C   0  0  0  0  0  0  0  0  0  0  0  0
    1.0524   -0.0507   -0.2732 C   0  0  0  0  0  0  0  0  0  0  0  0
    0.1248    0.3491    0.6963 C   0  0  0  0  0  0  0  0  0  0  0  0
   -1.2343    0.2029    0.6124 O   0  0  0  0  0  0  0  0  0  0  0  0
   -1.7507   -0.4093   -0.5673 C   0  0  0  0  0  0  0  0  0  0  0  0
   -3.2522   -0.4997   -0.4399 C   0  0  0  0  0  0  0  0  0  0  0  0
   -4.0915    0.2710   -1.2565 C   0  0  0  0  0  0  0  0  0  0  0  0
   -5.4791    0.1765   -1.1339 C   0  0  0  0  0  0  0  0  0  0  0  0
   -6.0407   -0.6849   -0.1929 C   0  0  0  0  0  0  0  0  0  0  0  0
   -5.2163   -1.4506    0.6294 C   0  0  0  0  0  0  0  0  0  0  0  0
   -3.8291   -1.3580    0.5080 C   0  0  0  0  0  0  0  0  0  0  0  0
    0.5657    0.9563    1.8742 C   0  0  0  0  0  0  0  0  0  0  0  0
    1.9238    1.1821    2.1229 C   0  0  0  0  0  0  0  0  0  0  0  0
    2.8300    0.7743    1.1408 C   0  0  0  0  0  0  0  0  0  0  0  0
    4.2015    0.8632    1.1053 N   0  0  0  0  0  0  0  0  0  0  0  0
    7.3275   -0.2219   -1.6237 H   0  0  0  0  0  0  0  0  0  0  0  0
    3.6575   -0.5760   -1.7674 H   0  0  0  0  0  0  0  0  0  0  0  0
    0.7544   -0.5245   -1.2002 H   0  0  0  0  0  0  0  0  0  0  0  0
   -1.4867    0.1879   -1.4489 H   0  0  0  0  0  0  0  0  0  0  0  0
   -1.3509   -1.4243   -0.6874 H   0  0  0  0  0  0  0  0  0  0  0  0
   -3.6706    0.9542   -1.9906 H   0  0  0  0  0  0  0  0  0  0  0  0
   -6.1223    0.7788   -1.7702 H   0  0  0  0  0  0  0  0  0  0  0  0
   -7.1209   -0.7551   -0.0964 H   0  0  0  0  0  0  0  0  0  0  0  0
   -5.6527   -2.1167    1.3689 H   0  0  0  0  0  0  0  0  0  0  0  0
   -3.1941   -1.9522    1.1620 H   0  0  0  0  0  0  0  0  0  0  0  0
   -0.1664    1.2630    2.6191 H   0  0  0  0  0  0  0  0  0  0  0  0
    2.2497    1.6555    3.0430 H   0  0  0  0  0  0  0  0  0  0  0  0
    4.7763    1.2630    1.8356 H   0  0  0  0  0  0  0  0  0  0  0  0
  1  2  2  0
  2  3  1  0
  2  4  1  0
  4  5  2  0
  5  6  1  0
  6  7  2  0
  7  8  1  0
  8  9  1  0
  9 10  1  0
 10 11  1  0
 11 12  2  0
 12 13  1  0
 13 14  2  0
 14 15  1  0
 15 16  2  0
  8 17  2  0
 17 18  1  0
 18 19  2  0
 19 20  1  0
 20  4  1  0
 19  6  1  0
 16 11  1  0
  3 21  1  0
  5 22  1  0
  7 23  1  0
 10 24  1  0
 10 25  1  0
 12 26  1  0
 13 27  1  0
 14 28  1  0
 15 29  1  0
 16 30  1  0
 17 31  1  0
 18 32  1  0
 20 33  1  0
M  END
$$$$
