
     RDKit          3D

 39 40  0  0  0  0  0  0  0  0999 V2000
    5.3438   -2.0623   -0.9461 C   0  0  0  0  0  0  0  0  0  0  0  0
    5.4531   -1.1940    0.2996 C   0  0  0  0  0  0  0  0  0  0  0  0
    4.8372    0.1903    0.1052 C   0  0  0  0  0  0  0  0  0  0  0  0
    3.3135    0.1911    0.0955 C   0  0  0  0  0  0  0  0  0  0  0  0
    2.6555   -0.8078    0.3606 O   0  0  0  0  0  0  0  0  0  0  0  0
    2.8145    1.4450   -0.2239 N   0  0  0  0  0  0  0  0  0  0  0  0
    1.4618    1.8352   -0.3226 C   0  0  0  0  0  0  0  0  0  0  0  0
    1.2064    3.1655   -0.6708 C   0  0  0  0  0  0  0  0  0  0  0  0
   -0.1050    3.6260   -0.7886 C   0  0  0  0  0  0  0  0  0  0  0  0
   -1.1765    2.7616   -0.5594 C   0  0  0  0  0  0  0  0  0  0  0  0
   -0.9431    1.4323   -0.2112 C   0  0  0  0  0  0  0  0  0  0  0  0
   -1.9654    0.4933    0.0411 N   0  0  0  0  0  0  0  0  0  0  0  0
   -3.3297    0.6981   -0.0058 C   0  0  0  0  0  0  0  0  0  0  0  0
   -3.9153    1.7258   -0.3255 O   0  0  0  0  0  0  0  0  0  0  0  0
   -4.1520   -0.5019    0.2977 C   0  0  0  0  0  0  0  0  0  0  0  0
   -5.1564   -0.8181   -0.6317 C   0  0  0  0  0  0  0  0  0  0  0  0
   -5.9705   -1.9352   -0.4423 C   0  0  0  0  0  0  0  0  0  0  0  0
   -5.7938   -2.7393    0.6808 C   0  0  0  0  0  0  0  0  0  0  0  0
   -4.8110   -2.4216    1.6204 C   0  0  0  0  0  0  0  0  0  0  0  0
   -3.9909   -1.3009    1.4372 C   0  0  0  0  0  0  0  0  0  0  0  0
   -2.7374   -0.9218    2.8126 Br  0  0  0  0  0  0  0  0  0  0  0  0
    0.3809    0.9785   -0.0947 C   0  0  0  0  0  0  0  0  0  0  0  0
    4.3005   -2.2502   -1.2161 H   0  0  0  0  0  0  0  0  0  0  0  0
    5.8382   -1.5865   -1.7992 H   0  0  0  0  0  0  0  0  0  0  0  0
    5.8259   -3.0298   -0.7736 H   0  0  0  0  0  0  0  0  0  0  0  0
    6.5152   -1.0745    0.5442 H   0  0  0  0  0  0  0  0  0  0  0  0
    4.9860   -1.7092    1.1467 H   0  0  0  0  0  0  0  0  0  0  0  0
    5.1526    0.8339    0.9357 H   0  0  0  0  0  0  0  0  0  0  0  0
    5.2042    0.6381   -0.8257 H   0  0  0  0  0  0  0  0  0  0  0  0
    3.4961    2.1697   -0.4105 H   0  0  0  0  0  0  0  0  0  0  0  0
    2.0189    3.8629   -0.8553 H   0  0  0  0  0  0  0  0  0  0  0  0
   -0.2985    4.6612   -1.0586 H   0  0  0  0  0  0  0  0  0  0  0  0
   -2.1821    3.1579   -0.6584 H   0  0  0  0  0  0  0  0  0  0  0  0
   -1.6504   -0.4344    0.3019 H   0  0  0  0  0  0  0  0  0  0  0  0
   -5.3031   -0.1892   -1.5087 H   0  0  0  0  0  0  0  0  0  0  0  0
   -6.7438   -2.1735   -1.1691 H   0  0  0  0  0  0  0  0  0  0  0  0
   -6.4298   -3.6085    0.8325 H   0  0  0  0  0  0  0  0  0  0  0  0
   -4.7009   -3.0508    2.5012 H   0  0  0  0  0  0  0  0  0  0  0  0
    0.5513   -0.0569    0.1793 H   0  0  0  0  0  0  0  0  0  0  0  0
  1  2  1  0
  2  3  1  0
  3  4  1  0
  4  5  2  0
  4  6  1  0
  6  7  1  0
  7  8  2  0
  8  9  1  0
  9 10  2  0
 10 11  1  0
 11 12  1  0
 12 13  1  0
 13 14  2  0
 13 15  1  0
 15 16  2  0
 16 17  1  0
 17 18  2  0
 18 19  1  0
 19 20  2  0
 20 21  1  0
 11 22  2  0
 22  7  1  0
 20 15  1  0
  1 23  1  0
  1 24  1  0
  1 25  1  0
  2 26  1  0
  2 27  1  0
  3 28  1  0
  3 29  1  0
  6 30  1  0
  8 31  1  0
  9 32  1  0
 10 33  1  0
 12 34  1  0
 16 35  1  0
 17 36  1  0
 18 37  1  0
 19 38  1  0
 22 39  1  0
M  END
$$$$
