
     RDKit          3D

 83 86  0  0  0  0  0  0  0  0999 V2000
   -8.2551    2.2687   -2.1807 C   0  0  0  0  0  0  0  0  0  0  0  0
   -9.0293    1.0415   -1.7069 C   0  0  0  0  0  0  0  0  0  0  0  0
   -8.2531    0.2464   -0.7487 N   0  0  0  0  0  0  0  0  0  0  0  0
   -7.5246   -0.9310   -1.2595 C   0  0  0  0  0  0  0  0  0  0  0  0
   -8.4503   -2.1558   -1.4400 C   0  0  0  0  0  0  0  0  0  0  0  0
   -6.8730   -0.6899   -2.6507 C   0  0  0  0  0  0  0  0  0  0  0  0
   -6.3349   -1.2647   -0.3123 C   0  0  0  0  0  0  0  0  0  0  0  0
   -6.5586   -1.0213    1.1865 C   0  0  0  0  0  0  0  0  0  0  0  0
   -5.8676    0.1532    1.6412 O   0  0  0  0  0  0  0  0  0  0  0  0
   -4.5079    0.1368    1.7271 C   0  0  0  0  0  0  0  0  0  0  0  0
   -3.6899   -0.9887    1.7448 C   0  0  0  0  0  0  0  0  0  0  0  0
   -2.3042   -0.8303    1.8048 C   0  0  0  0  0  0  0  0  0  0  0  0
   -1.7825    0.4597    1.8442 C   0  0  0  0  0  0  0  0  0  0  0  0
   -0.2989    0.6689    1.8390 C   0  0  0  0  0  0  0  0  0  0  0  0
    0.2101    1.4004    2.6783 O   0  0  0  0  0  0  0  0  0  0  0  0
    0.3567   -0.0302    0.8332 N   0  0  0  0  0  0  0  0  0  0  0  0
    1.7406   -0.0602    0.5693 C   0  0  0  0  0  0  0  0  0  0  0  0
    2.6966    0.6312    1.3106 C   0  0  0  0  0  0  0  0  0  0  0  0
    4.0584    0.5427    0.9830 C   0  0  0  0  0  0  0  0  0  0  0  0
    4.4838   -0.2401   -0.0890 C   0  0  0  0  0  0  0  0  0  0  0  0
    5.8339   -0.4075   -0.4579 N   0  0  0  0  0  0  0  0  0  0  0  0
    6.9325    0.3067    0.0093 C   0  0  0  0  0  0  0  0  0  0  0  0
    6.8700    1.3012    0.7168 O   0  0  0  0  0  0  0  0  0  0  0  0
    8.1003   -0.2896   -0.4369 N   0  0  0  0  0  0  0  0  0  0  0  0
    9.3693    0.2199   -0.2380 C   0  0  0  0  0  0  0  0  0  0  0  0
   10.5507   -0.5101   -0.5169 C   0  0  0  0  0  0  0  0  0  0  0  0
   11.5823    0.3424   -0.1959 C   0  0  0  0  0  0  0  0  0  0  0  0
   13.0828    0.2580   -0.2178 C   0  0  0  0  0  0  0  0  0  0  0  0
   13.6477    1.2983   -1.2012 C   0  0  0  0  0  0  0  0  0  0  0  0
   13.5460   -1.1410   -0.6632 C   0  0  0  0  0  0  0  0  0  0  0  0
   13.6413    0.5300    1.1908 C   0  0  0  0  0  0  0  0  0  0  0  0
   11.0472    1.5195    0.2325 O   0  0  0  0  0  0  0  0  0  0  0  0
    9.6715    1.4427    0.2019 N   0  0  0  0  0  0  0  0  0  0  0  0
    3.5255   -0.9382   -0.8310 C   0  0  0  0  0  0  0  0  0  0  0  0
    2.1672   -0.8437   -0.5083 C   0  0  0  0  0  0  0  0  0  0  0  0
   -2.5499    1.5731    1.8503 N   0  0  0  0  0  0  0  0  0  0  0  0
   -3.8892    1.3813    1.8020 C   0  0  0  0  0  0  0  0  0  0  0  0
   -8.0343   -0.8523    1.5198 C   0  0  0  0  0  0  0  0  0  0  0  0
   -8.7720    0.1959    0.6413 C   0  0  0  0  0  0  0  0  0  0  0  0
  -10.2819   -0.1527    0.7291 C   0  0  0  0  0  0  0  0  0  0  0  0
   -8.5874    1.5981    1.2734 C   0  0  0  0  0  0  0  0  0  0  0  0
   -7.9170    2.8782   -1.3342 H   0  0  0  0  0  0  0  0  0  0  0  0
   -7.3793    2.0076   -2.7805 H   0  0  0  0  0  0  0  0  0  0  0  0
   -8.9011    2.8989   -2.8031 H   0  0  0  0  0  0  0  0  0  0  0  0
   -9.3592    0.4458   -2.5643 H   0  0  0  0  0  0  0  0  0  0  0  0
   -9.9571    1.4214   -1.2729 H   0  0  0  0  0  0  0  0  0  0  0  0
   -9.2939   -1.9251   -2.1000 H   0  0  0  0  0  0  0  0  0  0  0  0
   -8.8594   -2.5337   -0.5026 H   0  0  0  0  0  0  0  0  0  0  0  0
   -7.9059   -2.9928   -1.8943 H   0  0  0  0  0  0  0  0  0  0  0  0
   -6.2741   -1.5581   -2.9517 H   0  0  0  0  0  0  0  0  0  0  0  0
   -7.6122   -0.5320   -3.4422 H   0  0  0  0  0  0  0  0  0  0  0  0
   -6.1924    0.1679   -2.6358 H   0  0  0  0  0  0  0  0  0  0  0  0
   -6.0724   -2.3234   -0.4469 H   0  0  0  0  0  0  0  0  0  0  0  0
   -5.4500   -0.7003   -0.6339 H   0  0  0  0  0  0  0  0  0  0  0  0
   -6.2088   -1.8846    1.7651 H   0  0  0  0  0  0  0  0  0  0  0  0
   -4.0926   -1.9944    1.7181 H   0  0  0  0  0  0  0  0  0  0  0  0
   -1.6530   -1.6970    1.8353 H   0  0  0  0  0  0  0  0  0  0  0  0
   -0.2265   -0.5266    0.1729 H   0  0  0  0  0  0  0  0  0  0  0  0
    2.4216    1.2606    2.1534 H   0  0  0  0  0  0  0  0  0  0  0  0
    4.7602    1.1019    1.5983 H   0  0  0  0  0  0  0  0  0  0  0  0
    6.0029   -0.9938   -1.2605 H   0  0  0  0  0  0  0  0  0  0  0  0
    8.0496   -1.2438   -0.7468 H   0  0  0  0  0  0  0  0  0  0  0  0
   10.6386   -1.5181   -0.8902 H   0  0  0  0  0  0  0  0  0  0  0  0
   14.7408    1.2422   -1.2531 H   0  0  0  0  0  0  0  0  0  0  0  0
   13.2559    1.1429   -2.2138 H   0  0  0  0  0  0  0  0  0  0  0  0
   13.3846    2.3193   -0.9021 H   0  0  0  0  0  0  0  0  0  0  0  0
   13.1718   -1.9215    0.0105 H   0  0  0  0  0  0  0  0  0  0  0  0
   14.6395   -1.2120   -0.6763 H   0  0  0  0  0  0  0  0  0  0  0  0
   13.1894   -1.3791   -1.6721 H   0  0  0  0  0  0  0  0  0  0  0  0
   13.3868    1.5386    1.5379 H   0  0  0  0  0  0  0  0  0  0  0  0
   13.2362   -0.1795    1.9236 H   0  0  0  0  0  0  0  0  0  0  0  0
   14.7341    0.4441    1.2066 H   0  0  0  0  0  0  0  0  0  0  0  0
    3.8161   -1.5623   -1.6720 H   0  0  0  0  0  0  0  0  0  0  0  0
    1.4513   -1.3982   -1.1101 H   0  0  0  0  0  0  0  0  0  0  0  0
   -4.4826    2.2921    1.8063 H   0  0  0  0  0  0  0  0  0  0  0  0
   -8.5159   -1.8322    1.4299 H   0  0  0  0  0  0  0  0  0  0  0  0
   -8.1325   -0.5763    2.5785 H   0  0  0  0  0  0  0  0  0  0  0  0
  -10.5275   -1.0445    0.1457 H   0  0  0  0  0  0  0  0  0  0  0  0
  -10.5733   -0.3537    1.7668 H   0  0  0  0  0  0  0  0  0  0  0  0
  -10.9288    0.6587    0.3831 H   0  0  0  0  0  0  0  0  0  0  0  0
   -7.5548    1.9517    1.1923 H   0  0  0  0  0  0  0  0  0  0  0  0
   -9.2238    2.3493    0.7932 H   0  0  0  0  0  0  0  0  0  0  0  0
   -8.8549    1.5923    2.3363 H   0  0  0  0  0  0  0  0  0  0  0  0
  1  2  1  0
  2  3  1  0
  3  4  1  0
  4  5  1  0
  4  6  1  0
  4  7  1  0
  7  8  1  0
  8  9  1  0
  9 10  1  0
 10 11  2  0
 11 12  1  0
 12 13  2  0
 13 14  1  0
 14 15  2  0
 14 16  1  0
 16 17  1  0
 17 18  2  0
 18 19  1  0
 19 20  2  0
 20 21  1  0
 21 22  1  0
 22 23  2  0
 22 24  1  0
 24 25  1  0
 25 26  1  0
 26 27  2  0
 27 28  1  0
 28 29  1  0
 28 30  1  0
 28 31  1  0
 27 32  1  0
 32 33  1  0
 20 34  1  0
 34 35  2  0
 13 36  1  0
 36 37  2  0
  8 38  1  0
 38 39  1  0
 39 40  1  0
 39 41  1  0
 39  3  1  0
 37 10  1  0
 35 17  1  0
 33 25  2  0
  1 42  1  0
  1 43  1  0
  1 44  1  0
  2 45  1  0
  2 46  1  0
  5 47  1  0
  5 48  1  0
  5 49  1  0
  6 50  1  0
  6 51  1  0
  6 52  1  0
  7 53  1  0
  7 54  1  0
  8 55  1  0
 11 56  1  0
 12 57  1  0
 16 58  1  0
 18 59  1  0
 19 60  1  0
 21 61  1  0
 24 62  1  0
 26 63  1  0
 29 64  1  0
 29 65  1  0
 29 66  1  0
 30 67  1  0
 30 68  1  0
 30 69  1  0
 31 70  1  0
 31 71  1  0
 31 72  1  0
 34 73  1  0
 35 74  1  0
 37 75  1  0
 38 76  1  0
 38 77  1  0
 40 78  1  0
 40 79  1  0
 40 80  1  0
 41 81  1  0
 41 82  1  0
 41 83  1  0
M  END
$$$$
