
     RDKit          3D

 16 17  0  0  0  0  0  0  0  0999 V2000
    2.6774   -0.9605   -0.0721 N   0  0  0  0  0  0  0  0  0  0  0  0
    1.6343   -0.2007    0.4917 N   0  0  0  0  0  0  0  0  0  0  0  0
    1.7834    0.5441    1.5964 N   0  0  0  0  0  0  0  0  0  0  0  0
    0.6179    1.1258    1.8551 N   0  0  0  0  0  0  0  0  0  0  0  0
   -0.2708    0.7334    0.8911 C   0  0  0  0  0  0  0  0  0  0  0  0
   -1.6221    1.0565    0.7029 C   0  0  0  0  0  0  0  0  0  0  0  0
   -2.2964    0.4976   -0.3914 C   0  0  0  0  0  0  0  0  0  0  0  0
   -1.6403   -0.3625   -1.2767 C   0  0  0  0  0  0  0  0  0  0  0  0
   -0.2918   -0.6947   -1.1025 C   0  0  0  0  0  0  0  0  0  0  0  0
    0.3586   -0.1235   -0.0024 C   0  0  0  0  0  0  0  0  0  0  0  0
    3.0293   -1.5964    0.6397 H   0  0  0  0  0  0  0  0  0  0  0  0
    3.4568   -0.3366   -0.2673 H   0  0  0  0  0  0  0  0  0  0  0  0
   -2.1281    1.7242    1.3917 H   0  0  0  0  0  0  0  0  0  0  0  0
   -3.3453    0.7377   -0.5524 H   0  0  0  0  0  0  0  0  0  0  0  0
   -2.1877   -0.7828   -2.1186 H   0  0  0  0  0  0  0  0  0  0  0  0
    0.2249   -1.3615   -1.7852 H   0  0  0  0  0  0  0  0  0  0  0  0
  1  2  1  0
  2  3  1  0
  3  4  2  0
  4  5  1  0
  5  6  2  0
  6  7  1  0
  7  8  2  0
  8  9  1  0
  9 10  2  0
 10  2  1  0
 10  5  1  0
  1 11  1  0
  1 12  1  0
  6 13  1  0
  7 14  1  0
  8 15  1  0
  9 16  1  0
M  END
$$$$
