
     RDKit          3D

 42 45  0  0  0  0  0  0  0  0999 V2000
    5.7768    1.4726    2.9420 C   0  0  0  0  0  0  0  0  0  0  0  0
    5.9141    1.1409    1.5671 O   0  0  0  0  0  0  0  0  0  0  0  0
    4.9935    0.2779    1.0370 C   0  0  0  0  0  0  0  0  0  0  0  0
    3.9219   -0.2920    1.7268 C   0  0  0  0  0  0  0  0  0  0  0  0
    3.0437   -1.1643    1.0704 C   0  0  0  0  0  0  0  0  0  0  0  0
    3.2255   -1.4871   -0.2823 C   0  0  0  0  0  0  0  0  0  0  0  0
    2.2609   -2.4099   -0.9900 C   0  0  0  0  0  0  0  0  0  0  0  0
    1.1245   -1.6839   -1.5476 N   0  0  0  0  0  0  0  0  0  0  0  0
    0.0786   -1.4171   -0.6799 N   0  0  0  0  0  0  0  0  0  0  0  0
   -0.9247   -0.7195   -1.1233 C   0  0  0  0  0  0  0  0  0  0  0  0
   -2.0275   -0.4209   -0.2388 C   0  0  0  0  0  0  0  0  0  0  0  0
   -3.1151    0.2632   -0.5289 N   0  0  0  0  0  0  0  0  0  0  0  0
   -3.8099    0.2399    0.6636 C   0  0  0  0  0  0  0  0  0  0  0  0
   -5.1062    0.8879    0.8204 C   0  0  0  0  0  0  0  0  0  0  0  0
   -5.7925    0.8445    2.0373 C   0  0  0  0  0  0  0  0  0  0  0  0
   -7.0202    1.4780    2.1270 C   0  0  0  0  0  0  0  0  0  0  0  0
   -7.5983    2.1396    1.1030 N   0  0  0  0  0  0  0  0  0  0  0  0
   -6.9209    2.1707   -0.0631 C   0  0  0  0  0  0  0  0  0  0  0  0
   -5.6888    1.5686   -0.2522 C   0  0  0  0  0  0  0  0  0  0  0  0
   -3.1826   -0.4277    1.6456 N   0  0  0  0  0  0  0  0  0  0  0  0
   -2.0017   -0.8662    1.0499 O   0  0  0  0  0  0  0  0  0  0  0  0
   -1.0070   -0.2017   -2.5094 C   0  0  0  0  0  0  0  0  0  0  0  0
    0.0113   -0.4667   -3.3284 C   0  0  0  0  0  0  0  0  0  0  0  0
    1.1767   -1.2457   -2.8636 C   0  0  0  0  0  0  0  0  0  0  0  0
    2.0978   -1.4592   -3.6465 O   0  0  0  0  0  0  0  0  0  0  0  0
    4.2934   -0.9049   -0.9745 C   0  0  0  0  0  0  0  0  0  0  0  0
    5.1625   -0.0379   -0.3148 C   0  0  0  0  0  0  0  0  0  0  0  0
    6.1779    0.4989   -1.0093 F   0  0  0  0  0  0  0  0  0  0  0  0
    5.8739    0.5841    3.5746 H   0  0  0  0  0  0  0  0  0  0  0  0
    4.8309    1.9911    3.1303 H   0  0  0  0  0  0  0  0  0  0  0  0
    6.5891    2.1575    3.2037 H   0  0  0  0  0  0  0  0  0  0  0  0
    3.7353   -0.0769    2.7737 H   0  0  0  0  0  0  0  0  0  0  0  0
    2.2047   -1.5870    1.6215 H   0  0  0  0  0  0  0  0  0  0  0  0
    1.8822   -3.1693   -0.2945 H   0  0  0  0  0  0  0  0  0  0  0  0
    2.7835   -2.9545   -1.7856 H   0  0  0  0  0  0  0  0  0  0  0  0
   -5.3882    0.3306    2.9038 H   0  0  0  0  0  0  0  0  0  0  0  0
   -7.5884    1.4697    3.0531 H   0  0  0  0  0  0  0  0  0  0  0  0
   -7.4107    2.7105   -0.8688 H   0  0  0  0  0  0  0  0  0  0  0  0
   -5.1993    1.6334   -1.2184 H   0  0  0  0  0  0  0  0  0  0  0  0
   -1.8718    0.3697   -2.8205 H   0  0  0  0  0  0  0  0  0  0  0  0
    0.0373   -0.1256   -4.3556 H   0  0  0  0  0  0  0  0  0  0  0  0
    4.4579   -1.1113   -2.0292 H   0  0  0  0  0  0  0  0  0  0  0  0
  1  2  1  0
  2  3  1  0
  3  4  2  0
  4  5  1  0
  5  6  2  0
  6  7  1  0
  7  8  1  0
  8  9  1  0
  9 10  2  0
 10 11  1  0
 11 12  2  0
 12 13  1  0
 13 14  1  0
 14 15  2  0
 15 16  1  0
 16 17  2  0
 17 18  1  0
 18 19  2  0
 13 20  2  0
 20 21  1  0
 10 22  1  0
 22 23  2  0
 23 24  1  0
 24 25  2  0
  6 26  1  0
 26 27  2  0
 27 28  1  0
 27  3  1  0
 24  8  1  0
 21 11  1  0
 19 14  1  0
  1 29  1  0
  1 30  1  0
  1 31  1  0
  4 32  1  0
  5 33  1  0
  7 34  1  0
  7 35  1  0
 15 36  1  0
 16 37  1  0
 18 38  1  0
 19 39  1  0
 22 40  1  0
 23 41  1  0
 26 42  1  0
M  END
$$$$
