
     RDKit          3D

 20 20  0  0  0  0  0  0  0  0999 V2000
    2.9479    0.9378    0.6629 O   0  0  0  0  0  0  0  0  0  0  0  0
    2.5956    0.1651   -0.4825 C   0  0  0  0  0  0  0  0  0  0  0  0
    1.5836   -0.9305   -0.1355 C   0  0  0  0  0  0  0  0  0  0  0  0
    0.1506   -0.4489   -0.0697 C   0  0  0  0  0  0  0  0  0  0  0  0
   -0.2315    0.5808    0.8031 C   0  0  0  0  0  0  0  0  0  0  0  0
   -1.5608    1.0071    0.8674 C   0  0  0  0  0  0  0  0  0  0  0  0
   -2.5149    0.3964    0.0620 C   0  0  0  0  0  0  0  0  0  0  0  0
   -3.8227    0.7809    0.0926 O   0  0  0  0  0  0  0  0  0  0  0  0
   -2.1613   -0.6315   -0.8018 C   0  0  0  0  0  0  0  0  0  0  0  0
   -0.8326   -1.0556   -0.8664 C   0  0  0  0  0  0  0  0  0  0  0  0
    3.3456    0.3328    1.3121 H   0  0  0  0  0  0  0  0  0  0  0  0
    3.5189   -0.2878   -0.8589 H   0  0  0  0  0  0  0  0  0  0  0  0
    2.2135    0.8424   -1.2532 H   0  0  0  0  0  0  0  0  0  0  0  0
    1.6583   -1.7122   -0.9015 H   0  0  0  0  0  0  0  0  0  0  0  0
    1.8323   -1.3960    0.8259 H   0  0  0  0  0  0  0  0  0  0  0  0
    0.5065    1.0649    1.4394 H   0  0  0  0  0  0  0  0  0  0  0  0
   -1.8259    1.8100    1.5474 H   0  0  0  0  0  0  0  0  0  0  0  0
   -3.9121    1.5112    0.7264 H   0  0  0  0  0  0  0  0  0  0  0  0
   -2.9172   -1.1025   -1.4234 H   0  0  0  0  0  0  0  0  0  0  0  0
   -0.5739   -1.8641   -1.5462 H   0  0  0  0  0  0  0  0  0  0  0  0
  1  2  1  0
  2  3  1  0
  3  4  1  0
  4  5  2  0
  5  6  1  0
  6  7  2  0
  7  8  1  0
  7  9  1  0
  9 10  2  0
 10  4  1  0
  1 11  1  0
  2 12  1  0
  2 13  1  0
  3 14  1  0
  3 15  1  0
  5 16  1  0
  6 17  1  0
  8 18  1  0
  9 19  1  0
 10 20  1  0
M  END
$$$$
