
     RDKit          3D

 60 62  0  0  0  0  0  0  0  0999 V2000
   12.8179   -1.6968   -1.2999 C   0  0  0  0  0  0  0  0  0  0  0  0
   12.2352   -0.4463   -0.9560 O   0  0  0  0  0  0  0  0  0  0  0  0
   10.8705   -0.3918   -0.9092 C   0  0  0  0  0  0  0  0  0  0  0  0
    9.9961   -1.4451   -1.1653 C   0  0  0  0  0  0  0  0  0  0  0  0
    8.6118   -1.2458   -1.0795 C   0  0  0  0  0  0  0  0  0  0  0  0
    8.0830    0.0049   -0.7375 C   0  0  0  0  0  0  0  0  0  0  0  0
    6.6818    0.1115   -0.6745 N   0  0  0  0  0  0  0  0  0  0  0  0
    5.9106    1.2240   -0.3619 C   0  0  0  0  0  0  0  0  0  0  0  0
    6.3600    2.3325   -0.0825 O   0  0  0  0  0  0  0  0  0  0  0  0
    4.4845    0.9277   -0.4008 C   0  0  0  0  0  0  0  0  0  0  0  0
    4.0080   -0.2674   -0.6949 N   0  0  0  0  0  0  0  0  0  0  0  0
    2.6286   -0.2914   -0.6634 N   0  0  0  0  0  0  0  0  0  0  0  0
    2.1161    0.8812   -0.3482 C   0  0  0  0  0  0  0  0  0  0  0  0
    0.6532    1.1715   -0.2282 C   0  0  0  0  0  0  0  0  0  0  0  0
    0.1078    0.7067    1.1264 C   0  0  0  0  0  0  0  0  0  0  0  0
   -1.3317    1.1579    1.3742 C   0  0  0  0  0  0  0  0  0  0  0  0
   -2.3559    0.4404    0.5151 C   0  0  0  0  0  0  0  0  0  0  0  0
   -2.0701   -0.4145   -0.3140 O   0  0  0  0  0  0  0  0  0  0  0  0
   -3.6488    0.8514    0.7697 N   0  0  0  0  0  0  0  0  0  0  0  0
   -4.7499    0.3694   -0.0409 C   0  0  0  0  0  0  0  0  0  0  0  0
   -6.0912    0.6061    0.6452 C   0  0  0  0  0  0  0  0  0  0  0  0
   -7.2453    0.0834   -0.2186 C   0  0  0  0  0  0  0  0  0  0  0  0
   -8.5603    0.4276    0.3443 N   0  0  0  0  0  0  0  0  0  0  0  0
   -9.6427    0.2162   -0.6467 C   0  0  0  0  0  0  0  0  0  0  0  0
   -9.9908   -1.2624   -0.8883 C   0  0  0  0  0  0  0  0  0  0  0  0
  -10.3383   -1.9217    0.3350 O   0  0  0  0  0  0  0  0  0  0  0  0
   -9.2742   -1.8166    1.2883 C   0  0  0  0  0  0  0  0  0  0  0  0
   -8.9051   -0.3472    1.5590 C   0  0  0  0  0  0  0  0  0  0  0  0
    3.2911    2.1064   -0.0650 S   0  0  0  0  0  0  0  0  0  0  0  0
    8.9620    1.0556   -0.4826 C   0  0  0  0  0  0  0  0  0  0  0  0
   10.3450    0.8551   -0.5687 C   0  0  0  0  0  0  0  0  0  0  0  0
   12.5658   -2.4661   -0.5625 H   0  0  0  0  0  0  0  0  0  0  0  0
   13.9051   -1.5724   -1.2925 H   0  0  0  0  0  0  0  0  0  0  0  0
   12.5249   -2.0047   -2.3091 H   0  0  0  0  0  0  0  0  0  0  0  0
   10.3533   -2.4334   -1.4339 H   0  0  0  0  0  0  0  0  0  0  0  0
    7.9552   -2.0881   -1.2852 H   0  0  0  0  0  0  0  0  0  0  0  0
    6.1471   -0.7286   -0.8818 H   0  0  0  0  0  0  0  0  0  0  0  0
    0.4669    2.2445   -0.3587 H   0  0  0  0  0  0  0  0  0  0  0  0
    0.1321    0.6637   -1.0472 H   0  0  0  0  0  0  0  0  0  0  0  0
    0.1811   -0.3858    1.2017 H   0  0  0  0  0  0  0  0  0  0  0  0
    0.7340    1.1165    1.9295 H   0  0  0  0  0  0  0  0  0  0  0  0
   -1.5860    0.9575    2.4222 H   0  0  0  0  0  0  0  0  0  0  0  0
   -1.4237    2.2373    1.2071 H   0  0  0  0  0  0  0  0  0  0  0  0
   -3.7782    1.7165    1.2795 H   0  0  0  0  0  0  0  0  0  0  0  0
   -4.6029   -0.6979   -0.2417 H   0  0  0  0  0  0  0  0  0  0  0  0
   -4.7037    0.8995   -0.9989 H   0  0  0  0  0  0  0  0  0  0  0  0
   -6.0799    0.1111    1.6228 H   0  0  0  0  0  0  0  0  0  0  0  0
   -6.2210    1.6794    0.8340 H   0  0  0  0  0  0  0  0  0  0  0  0
   -7.1343   -0.9952   -0.3781 H   0  0  0  0  0  0  0  0  0  0  0  0
   -7.1511    0.5567   -1.2048 H   0  0  0  0  0  0  0  0  0  0  0  0
  -10.5377    0.7246   -0.2647 H   0  0  0  0  0  0  0  0  0  0  0  0
   -9.3985    0.7073   -1.5960 H   0  0  0  0  0  0  0  0  0  0  0  0
   -9.1645   -1.8006   -1.3663 H   0  0  0  0  0  0  0  0  0  0  0  0
  -10.8564   -1.3314   -1.5550 H   0  0  0  0  0  0  0  0  0  0  0  0
   -8.4133   -2.3933    0.9328 H   0  0  0  0  0  0  0  0  0  0  0  0
   -9.6196   -2.2840    2.2162 H   0  0  0  0  0  0  0  0  0  0  0  0
   -8.1099   -0.2922    2.3086 H   0  0  0  0  0  0  0  0  0  0  0  0
   -9.7748    0.1438    2.0156 H   0  0  0  0  0  0  0  0  0  0  0  0
    8.6133    2.0472   -0.2134 H   0  0  0  0  0  0  0  0  0  0  0  0
   11.0177    1.6856   -0.3666 H   0  0  0  0  0  0  0  0  0  0  0  0
  1  2  1  0
  2  3  1  0
  3  4  2  0
  4  5  1  0
  5  6  2  0
  6  7  1  0
  7  8  1  0
  8  9  2  0
  8 10  1  0
 10 11  2  0
 11 12  1  0
 12 13  2  0
 13 14  1  0
 14 15  1  0
 15 16  1  0
 16 17  1  0
 17 18  2  0
 17 19  1  0
 19 20  1  0
 20 21  1  0
 21 22  1  0
 22 23  1  0
 23 24  1  0
 24 25  1  0
 25 26  1  0
 26 27  1  0
 27 28  1  0
 13 29  1  0
  6 30  1  0
 30 31  2  0
 31  3  1  0
 29 10  1  0
 28 23  1  0
  1 32  1  0
  1 33  1  0
  1 34  1  0
  4 35  1  0
  5 36  1  0
  7 37  1  0
 14 38  1  0
 14 39  1  0
 15 40  1  0
 15 41  1  0
 16 42  1  0
 16 43  1  0
 19 44  1  0
 20 45  1  0
 20 46  1  0
 21 47  1  0
 21 48  1  0
 22 49  1  0
 22 50  1  0
 24 51  1  0
 24 52  1  0
 25 53  1  0
 25 54  1  0
 27 55  1  0
 27 56  1  0
 28 57  1  0
 28 58  1  0
 30 59  1  0
 31 60  1  0
M  END
$$$$
