
     RDKit          3D

 51 54  0  0  0  0  0  0  0  0999 V2000
    6.8640    5.3497    0.1643 C   0  0  0  0  0  0  0  0  0  0  0  0
    7.1154    4.1972    0.9591 O   0  0  0  0  0  0  0  0  0  0  0  0
    6.3933    3.0746    0.6632 C   0  0  0  0  0  0  0  0  0  0  0  0
    6.7242    1.9511    1.4243 C   0  0  0  0  0  0  0  0  0  0  0  0
    6.0634    0.7360    1.2297 C   0  0  0  0  0  0  0  0  0  0  0  0
    5.0540    0.6285    0.2645 C   0  0  0  0  0  0  0  0  0  0  0  0
    4.3128   -0.6746    0.0654 C   0  0  0  0  0  0  0  0  0  0  0  0
    2.9090   -0.6436    0.5624 C   0  0  0  0  0  0  0  0  0  0  0  0
    1.8400   -1.1790    0.0069 N   0  0  0  0  0  0  0  0  0  0  0  0
    0.8328   -0.8733    0.8837 C   0  0  0  0  0  0  0  0  0  0  0  0
   -0.4226   -1.3034    0.5658 N   0  0  0  0  0  0  0  0  0  0  0  0
   -1.5531   -1.1011    1.3253 C   0  0  0  0  0  0  0  0  0  0  0  0
   -1.6205   -0.5410    2.4115 O   0  0  0  0  0  0  0  0  0  0  0  0
   -2.7742   -1.7126    0.6607 C   0  0  0  0  0  0  0  0  0  0  0  0
   -4.0773   -1.3271    1.3679 C   0  0  2  0  0  0  0  0  0  0  0  0
   -5.1122   -2.3425    1.2282 N   0  0  0  0  0  0  0  0  0  0  0  0
   -5.6165   -2.8720    0.0812 C   0  0  0  0  0  0  0  0  0  0  0  0
   -6.1981   -3.9526    0.1428 O   0  0  0  0  0  0  0  0  0  0  0  0
   -5.4799   -2.1695   -1.2181 C   0  0  0  0  0  0  0  0  0  0  0  0
   -5.6620   -2.9791   -2.3596 C   0  0  0  0  0  0  0  0  0  0  0  0
   -5.6946   -2.4314   -3.6413 C   0  0  0  0  0  0  0  0  0  0  0  0
   -5.5684   -1.0594   -3.8010 C   0  0  0  0  0  0  0  0  0  0  0  0
   -5.3925   -0.2452   -2.6811 C   0  0  0  0  0  0  0  0  0  0  0  0
   -5.3194   -0.7861   -1.3828 C   0  0  0  0  0  0  0  0  0  0  0  0
   -5.1035    0.1605   -0.3697 N   0  0  0  0  0  0  0  0  0  0  0  0
   -4.6139    0.0195    0.8943 C   0  0  0  0  0  0  0  0  0  0  0  0
   -4.5046    1.0386    1.5794 O   0  0  0  0  0  0  0  0  0  0  0  0
    1.2236   -0.1798    1.9489 N   0  0  0  0  0  0  0  0  0  0  0  0
    2.5349   -0.0358    1.7279 N   0  0  0  0  0  0  0  0  0  0  0  0
    4.7213    1.7599   -0.4942 C   0  0  0  0  0  0  0  0  0  0  0  0
    5.3855    2.9756   -0.2955 C   0  0  0  0  0  0  0  0  0  0  0  0
    5.8359    5.7025    0.2968 H   0  0  0  0  0  0  0  0  0  0  0  0
    7.5350    6.1447    0.5033 H   0  0  0  0  0  0  0  0  0  0  0  0
    7.0834    5.1565   -0.8909 H   0  0  0  0  0  0  0  0  0  0  0  0
    7.5094    2.0232    2.1736 H   0  0  0  0  0  0  0  0  0  0  0  0
    6.3494   -0.1203    1.8371 H   0  0  0  0  0  0  0  0  0  0  0  0
    4.8461   -1.4906    0.5689 H   0  0  0  0  0  0  0  0  0  0  0  0
    4.3203   -0.9216   -1.0048 H   0  0  0  0  0  0  0  0  0  0  0  0
   -0.4567   -1.8061   -0.3079 H   0  0  0  0  0  0  0  0  0  0  0  0
   -2.6369   -2.8015    0.6953 H   0  0  0  0  0  0  0  0  0  0  0  0
   -2.7756   -1.4097   -0.3923 H   0  0  0  0  0  0  0  0  0  0  0  0
   -3.9302   -1.2458    2.4516 H   0  0  0  0  0  0  0  0  0  0  0  0
   -5.2686   -2.9423    2.0302 H   0  0  0  0  0  0  0  0  0  0  0  0
   -5.8076   -4.0541   -2.2490 H   0  0  0  0  0  0  0  0  0  0  0  0
   -5.8437   -3.0736   -4.5070 H   0  0  0  0  0  0  0  0  0  0  0  0
   -5.6110   -0.6201   -4.7943 H   0  0  0  0  0  0  0  0  0  0  0  0
   -5.2911    0.8270   -2.8408 H   0  0  0  0  0  0  0  0  0  0  0  0
   -5.2443    1.1382   -0.5996 H   0  0  0  0  0  0  0  0  0  0  0  0
    3.0996    0.4879    2.3880 H   0  0  0  0  0  0  0  0  0  0  0  0
    3.9364    1.7005   -1.2479 H   0  0  0  0  0  0  0  0  0  0  0  0
    5.0893    3.8233   -0.9033 H   0  0  0  0  0  0  0  0  0  0  0  0
  1  2  1  0
  2  3  1  0
  3  4  2  0
  4  5  1  0
  5  6  2  0
  6  7  1  0
  7  8  1  0
  8  9  2  0
  9 10  1  0
 10 11  1  0
 11 12  1  0
 12 13  2  0
 12 14  1  0
 14 15  1  0
 15 16  1  0
 16 17  1  0
 17 18  2  0
 17 19  1  0
 19 20  2  0
 20 21  1  0
 21 22  2  0
 22 23  1  0
 23 24  2  0
 24 25  1  0
 25 26  1  0
 26 27  2  0
 10 28  2  0
 28 29  1  0
  6 30  1  0
 30 31  2  0
 31  3  1  0
 29  8  1  0
 26 15  1  0
 24 19  1  0
  1 32  1  0
  1 33  1  0
  1 34  1  0
  4 35  1  0
  5 36  1  0
  7 37  1  0
  7 38  1  0
 11 39  1  0
 14 40  1  0
 14 41  1  0
 15 42  1  1
 16 43  1  0
 20 44  1  0
 21 45  1  0
 22 46  1  0
 23 47  1  0
 25 48  1  0
 29 49  1  0
 30 50  1  0
 31 51  1  0
M  END
$$$$
