
     RDKit          3D

 44 46  0  0  0  0  0  0  0  0999 V2000
   -6.0849    1.9703   -0.3110 C   0  0  0  0  0  0  0  0  0  0  0  0
   -5.1616    1.5509    0.8155 C   0  0  0  0  0  0  0  0  0  0  0  0
   -4.0304    0.8771    0.2508 O   0  0  0  0  0  0  0  0  0  0  0  0
   -3.1671    0.3662    1.1716 C   0  0  0  0  0  0  0  0  0  0  0  0
   -3.3308    0.4086    2.3848 O   0  0  0  0  0  0  0  0  0  0  0  0
   -1.9734   -0.2838    0.5107 C   0  0  0  0  0  0  0  0  0  0  0  0
   -2.3714   -1.5514   -0.2589 C   0  0  0  0  0  0  0  0  0  0  0  0
   -1.6016   -1.7208   -1.5683 C   0  0  0  0  0  0  0  0  0  0  0  0
   -0.1558   -1.2512   -1.4400 C   0  0  0  0  0  0  0  0  0  0  0  0
   -0.0712    0.1449   -1.0103 N   0  0  0  0  0  0  0  0  0  0  0  0
    1.0361    0.9569   -1.2593 C   0  0  0  0  0  0  0  0  0  0  0  0
    1.0961    2.1480   -0.9746 O   0  0  0  0  0  0  0  0  0  0  0  0
    2.2524    0.2975   -1.9017 C   0  0  0  0  0  0  0  0  0  0  0  0
    2.2248    0.1416   -3.1227 O   0  0  0  0  0  0  0  0  0  0  0  0
    3.3681   -0.1629   -1.0792 C   0  0  0  0  0  0  0  0  0  0  0  0
    4.4755   -0.8125   -1.6017 C   0  0  0  0  0  0  0  0  0  0  0  0
    5.3286   -1.1140   -0.5804 N   0  0  0  0  0  0  0  0  0  0  0  0
    4.8104   -0.6723    0.6138 C   0  0  0  0  0  0  0  0  0  0  0  0
    5.3519   -0.7577    1.9036 C   0  0  0  0  0  0  0  0  0  0  0  0
    4.6178   -0.2114    2.9571 C   0  0  0  0  0  0  0  0  0  0  0  0
    3.3864    0.3903    2.7263 C   0  0  0  0  0  0  0  0  0  0  0  0
    2.8529    0.4603    1.4310 C   0  0  0  0  0  0  0  0  0  0  0  0
    3.5757   -0.0740    0.3401 C   0  0  0  0  0  0  0  0  0  0  0  0
   -1.2400    0.7325   -0.3597 C   0  0  0  0  0  0  0  0  0  0  0  0
   -6.9531    2.5050    0.0836 H   0  0  0  0  0  0  0  0  0  0  0  0
   -5.5616    2.6185   -1.0204 H   0  0  0  0  0  0  0  0  0  0  0  0
   -6.4302    1.0952   -0.8745 H   0  0  0  0  0  0  0  0  0  0  0  0
   -4.8157    2.4403    1.3518 H   0  0  0  0  0  0  0  0  0  0  0  0
   -5.6934    0.8823    1.5007 H   0  0  0  0  0  0  0  0  0  0  0  0
   -1.2914   -0.5850    1.3190 H   0  0  0  0  0  0  0  0  0  0  0  0
   -3.4457   -1.5835   -0.4710 H   0  0  0  0  0  0  0  0  0  0  0  0
   -2.1740   -2.4166    0.3834 H   0  0  0  0  0  0  0  0  0  0  0  0
   -2.0983   -1.1408   -2.3534 H   0  0  0  0  0  0  0  0  0  0  0  0
   -1.6331   -2.7696   -1.8859 H   0  0  0  0  0  0  0  0  0  0  0  0
    0.3547   -1.3816   -2.4005 H   0  0  0  0  0  0  0  0  0  0  0  0
    0.3785   -1.8519   -0.6934 H   0  0  0  0  0  0  0  0  0  0  0  0
    4.7199   -1.0756   -2.6232 H   0  0  0  0  0  0  0  0  0  0  0  0
    6.2200   -1.5816   -0.6787 H   0  0  0  0  0  0  0  0  0  0  0  0
    6.3186   -1.2176    2.0809 H   0  0  0  0  0  0  0  0  0  0  0  0
    5.0159   -0.2518    3.9675 H   0  0  0  0  0  0  0  0  0  0  0  0
    2.8320    0.8170    3.5590 H   0  0  0  0  0  0  0  0  0  0  0  0
    1.8939    0.9495    1.2929 H   0  0  0  0  0  0  0  0  0  0  0  0
   -0.9405    1.5996    0.2387 H   0  0  0  0  0  0  0  0  0  0  0  0
   -1.8851    1.1154   -1.1590 H   0  0  0  0  0  0  0  0  0  0  0  0
  1  2  1  0
  2  3  1  0
  3  4  1  0
  4  5  2  0
  4  6  1  0
  6  7  1  0
  7  8  1  0
  8  9  1  0
  9 10  1  0
 10 11  1  0
 11 12  2  0
 11 13  1  0
 13 14  2  0
 13 15  1  0
 15 16  2  0
 16 17  1  0
 17 18  1  0
 18 19  2  0
 19 20  1  0
 20 21  2  0
 21 22  1  0
 22 23  2  0
 10 24  1  0
 24  6  1  0
 23 15  1  0
 23 18  1  0
  1 25  1  0
  1 26  1  0
  1 27  1  0
  2 28  1  0
  2 29  1  0
  6 30  1  0
  7 31  1  0
  7 32  1  0
  8 33  1  0
  8 34  1  0
  9 35  1  0
  9 36  1  0
 16 37  1  0
 17 38  1  0
 19 39  1  0
 20 40  1  0
 21 41  1  0
 22 42  1  0
 24 43  1  0
 24 44  1  0
M  END
$$$$
