
     RDKit          3D

 58 63  0  0  0  0  0  0  0  0999 V2000
    8.3132   -2.5259    2.8396 C   0  0  0  0  0  0  0  0  0  0  0  0
    7.4142   -1.3620    2.5928 C   0  0  0  0  0  0  0  0  0  0  0  0
    7.4486   -0.1701    3.2901 C   0  0  0  0  0  0  0  0  0  0  0  0
    6.2598    0.9406    2.7644 S   0  0  0  0  0  0  0  0  0  0  0  0
    5.6868   -0.1436    1.5688 C   0  0  0  0  0  0  0  0  0  0  0  0
    4.5662    0.2400    0.7124 C   0  0  0  0  0  0  0  0  0  0  0  0
    3.4167   -0.3880    1.0376 N   0  0  0  0  0  0  0  0  0  0  0  0
    2.2745   -0.1159    0.3407 N   0  0  0  0  0  0  0  0  0  0  0  0
    2.2736    0.7708   -0.6789 C   0  0  0  0  0  0  0  0  0  0  0  0
    1.0599    1.0822   -1.3532 N   0  0  0  0  0  0  0  0  0  0  0  0
   -0.1755    0.4016   -1.2711 C   0  0  0  0  0  0  0  0  0  0  0  0
   -0.2646   -0.9794   -1.0697 C   0  0  0  0  0  0  0  0  0  0  0  0
   -1.5055   -1.6252   -1.0509 C   0  0  0  0  0  0  0  0  0  0  0  0
   -2.6820   -0.9064   -1.2627 C   0  0  0  0  0  0  0  0  0  0  0  0
   -3.8448   -1.6366   -1.1662 O   0  0  0  0  0  0  0  0  0  0  0  0
   -5.0011   -1.0892   -1.6883 C   0  0  0  0  0  0  0  0  0  0  0  0
   -5.0180   -0.9083   -3.0356 N   0  0  0  0  0  0  0  0  0  0  0  0
   -6.1425   -0.3925   -3.5681 C   0  0  0  0  0  0  0  0  0  0  0  0
   -7.2550   -0.0548   -2.8219 C   0  0  0  0  0  0  0  0  0  0  0  0
   -7.2146   -0.2693   -1.4452 C   0  0  0  0  0  0  0  0  0  0  0  0
   -6.0741   -0.8155   -0.8310 C   0  0  0  0  0  0  0  0  0  0  0  0
   -6.0468   -1.0358    0.6252 C   0  0  0  0  0  0  0  0  0  0  0  0
   -5.4950   -2.1544    1.2182 C   0  0  0  0  0  0  0  0  0  0  0  0
   -5.5465   -2.2016    2.5903 C   0  0  0  0  0  0  0  0  0  0  0  0
   -6.1069   -1.2433    3.3449 N   0  0  0  0  0  0  0  0  0  0  0  0
   -6.6458   -0.2160    2.6883 C   0  0  0  0  0  0  0  0  0  0  0  0
   -7.2236    0.7859    3.4398 N   0  0  0  0  0  0  0  0  0  0  0  0
   -6.6333   -0.0634    1.3618 N   0  0  0  0  0  0  0  0  0  0  0  0
   -2.6079    0.4664   -1.4945 C   0  0  0  0  0  0  0  0  0  0  0  0
   -1.3628    1.1076   -1.5165 C   0  0  0  0  0  0  0  0  0  0  0  0
    3.4706    1.4160   -1.0785 C   0  0  0  0  0  0  0  0  0  0  0  0
    3.5430    2.3116   -2.1768 C   0  0  0  0  0  0  0  0  0  0  0  0
    4.7383    2.9291   -2.5476 C   0  0  0  0  0  0  0  0  0  0  0  0
    5.8986    2.6626   -1.8377 C   0  0  0  0  0  0  0  0  0  0  0  0
    5.8612    1.7784   -0.7602 C   0  0  0  0  0  0  0  0  0  0  0  0
    4.6571    1.1443   -0.3586 C   0  0  0  0  0  0  0  0  0  0  0  0
    6.3792   -1.3389    1.6000 C   0  0  0  0  0  0  0  0  0  0  0  0
    7.7270   -3.4034    3.1326 H   0  0  0  0  0  0  0  0  0  0  0  0
    9.0318   -2.3155    3.6395 H   0  0  0  0  0  0  0  0  0  0  0  0
    8.8762   -2.7695    1.9332 H   0  0  0  0  0  0  0  0  0  0  0  0
    8.1108    0.1032    4.1008 H   0  0  0  0  0  0  0  0  0  0  0  0
    0.9306    2.0883   -1.3264 H   0  0  0  0  0  0  0  0  0  0  0  0
    0.6314   -1.5776   -0.9265 H   0  0  0  0  0  0  0  0  0  0  0  0
   -1.5457   -2.6959   -0.8748 H   0  0  0  0  0  0  0  0  0  0  0  0
   -6.1242   -0.2515   -4.6447 H   0  0  0  0  0  0  0  0  0  0  0  0
   -8.1367    0.3626   -3.2953 H   0  0  0  0  0  0  0  0  0  0  0  0
   -8.0842   -0.0109   -0.8425 H   0  0  0  0  0  0  0  0  0  0  0  0
   -5.0480   -2.9604    0.6536 H   0  0  0  0  0  0  0  0  0  0  0  0
   -5.1291   -3.0398    3.1393 H   0  0  0  0  0  0  0  0  0  0  0  0
   -6.8185    0.7838    4.3654 H   0  0  0  0  0  0  0  0  0  0  0  0
   -7.2001    1.6533    2.9229 H   0  0  0  0  0  0  0  0  0  0  0  0
   -3.5009    1.0603   -1.6635 H   0  0  0  0  0  0  0  0  0  0  0  0
   -1.3371    2.1753   -1.7182 H   0  0  0  0  0  0  0  0  0  0  0  0
    2.6594    2.5204   -2.7776 H   0  0  0  0  0  0  0  0  0  0  0  0
    4.7614    3.6068   -3.3977 H   0  0  0  0  0  0  0  0  0  0  0  0
    6.8358    3.1323   -2.1249 H   0  0  0  0  0  0  0  0  0  0  0  0
    6.7940    1.5794   -0.2348 H   0  0  0  0  0  0  0  0  0  0  0  0
    6.1507   -2.1663    0.9380 H   0  0  0  0  0  0  0  0  0  0  0  0
  1  2  1  0
  2  3  2  0
  3  4  1  0
  4  5  1  0
  5  6  1  0
  6  7  2  0
  7  8  1  0
  8  9  2  0
  9 10  1  0
 10 11  1  0
 11 12  2  0
 12 13  1  0
 13 14  2  0
 14 15  1  0
 15 16  1  0
 16 17  2  0
 17 18  1  0
 18 19  2  0
 19 20  1  0
 20 21  2  0
 21 22  1  0
 22 23  2  0
 23 24  1  0
 24 25  2  0
 25 26  1  0
 26 27  1  0
 26 28  2  0
 14 29  1  0
 29 30  2  0
  9 31  1  0
 31 32  2  0
 32 33  1  0
 33 34  2  0
 34 35  1  0
 35 36  2  0
  5 37  2  0
 37  2  1  0
 36  6  1  0
 30 11  1  0
 36 31  1  0
 21 16  1  0
 28 22  1  0
  1 38  1  0
  1 39  1  0
  1 40  1  0
  3 41  1  0
 10 42  1  0
 12 43  1  0
 13 44  1  0
 18 45  1  0
 19 46  1  0
 20 47  1  0
 23 48  1  0
 24 49  1  0
 27 50  1  0
 27 51  1  0
 29 52  1  0
 30 53  1  0
 32 54  1  0
 33 55  1  0
 34 56  1  0
 35 57  1  0
 37 58  1  0
M  END
$$$$
