
     RDKit          3D

 54 57  0  0  0  0  0  0  0  0999 V2000
   -0.7567   -5.2453    0.1774 C   0  0  0  0  0  0  0  0  0  0  0  0
   -1.4380   -4.0322    0.6465 N   0  0  0  0  0  0  0  0  0  0  0  0
   -2.1139   -4.3084    1.9208 C   0  0  0  0  0  0  0  0  0  0  0  0
   -0.4868   -2.9131    0.7591 C   0  0  0  0  0  0  0  0  0  0  0  0
   -1.1996   -1.5599    0.8017 C   0  0  0  0  0  0  0  0  0  0  0  0
   -1.9703   -1.2476   -0.4782 C   0  0  0  0  0  0  0  0  0  0  0  0
   -2.0442    0.2064   -0.5204 N   0  0  0  0  0  0  0  0  0  0  0  0
   -2.5656    0.8212   -1.6442 C   0  0  0  0  0  0  0  0  0  0  0  0
   -2.9223    0.1921   -2.6393 O   0  0  0  0  0  0  0  0  0  0  0  0
   -2.6653    2.3037   -1.6835 C   0  0  0  0  0  0  0  0  0  0  0  0
   -2.2933    2.9767   -2.8528 C   0  0  0  0  0  0  0  0  0  0  0  0
   -2.3952    4.3683   -2.9328 C   0  0  0  0  0  0  0  0  0  0  0  0
   -2.8697    5.0891   -1.8377 C   0  0  0  0  0  0  0  0  0  0  0  0
   -3.2638    4.4196   -0.6824 C   0  0  0  0  0  0  0  0  0  0  0  0
   -3.1748    3.0265   -0.6066 C   0  0  0  0  0  0  0  0  0  0  0  0
   -1.1538    0.8402    0.4483 C   0  0  0  0  0  0  0  0  0  0  0  0
   -0.2741   -0.3423    0.8934 C   0  0  0  0  0  0  0  0  0  0  0  0
    0.4900   -0.0954    2.2153 C   0  0  0  0  0  0  0  0  0  0  0  0
    1.5788    0.3748    1.3763 N   0  0  0  0  0  0  0  0  0  0  0  0
    2.8117    0.8183    1.7797 C   0  0  0  0  0  0  0  0  0  0  0  0
    3.0363    1.1278    2.9396 O   0  0  0  0  0  0  0  0  0  0  0  0
    3.8528    0.9737    0.7275 C   0  0  0  0  0  0  0  0  0  0  0  0
    3.4542    1.4721   -0.4795 N   0  0  0  0  0  0  0  0  0  0  0  0
    4.4163    1.6820   -1.4038 C   0  0  0  0  0  0  0  0  0  0  0  0
    5.7605    1.4190   -1.1813 C   0  0  0  0  0  0  0  0  0  0  0  0
    6.1436    0.9055    0.0597 C   0  0  0  0  0  0  0  0  0  0  0  0
    5.1734    0.6826    1.0287 C   0  0  0  0  0  0  0  0  0  0  0  0
    5.5409    0.1626    2.2090 F   0  0  0  0  0  0  0  0  0  0  0  0
    1.1179   -0.3378    0.1937 C   0  0  0  0  0  0  0  0  0  0  0  0
    0.0400   -5.5597    0.8598 H   0  0  0  0  0  0  0  0  0  0  0  0
   -1.4659   -6.0734    0.0685 H   0  0  0  0  0  0  0  0  0  0  0  0
   -0.3218   -5.0804   -0.8137 H   0  0  0  0  0  0  0  0  0  0  0  0
   -2.6962   -3.4457    2.2661 H   0  0  0  0  0  0  0  0  0  0  0  0
   -2.8293   -5.1261    1.7965 H   0  0  0  0  0  0  0  0  0  0  0  0
   -1.4072   -4.5901    2.7128 H   0  0  0  0  0  0  0  0  0  0  0  0
    0.1680   -2.9235   -0.1197 H   0  0  0  0  0  0  0  0  0  0  0  0
    0.1713   -3.0389    1.6282 H   0  0  0  0  0  0  0  0  0  0  0  0
   -1.8898   -1.5167    1.6538 H   0  0  0  0  0  0  0  0  0  0  0  0
   -1.4337   -1.5837   -1.3756 H   0  0  0  0  0  0  0  0  0  0  0  0
   -2.9773   -1.6762   -0.4896 H   0  0  0  0  0  0  0  0  0  0  0  0
   -1.9322    2.4148   -3.7029 H   0  0  0  0  0  0  0  0  0  0  0  0
   -2.1206    4.8903   -3.8543 H   0  0  0  0  0  0  0  0  0  0  0  0
   -2.9460    6.1749   -1.8913 H   0  0  0  0  0  0  0  0  0  0  0  0
   -3.6505    4.9838    0.1607 H   0  0  0  0  0  0  0  0  0  0  0  0
   -3.5207    2.5147    0.2857 H   0  0  0  0  0  0  0  0  0  0  0  0
   -0.5971    1.6713    0.0057 H   0  0  0  0  0  0  0  0  0  0  0  0
   -1.7777    1.1919    1.2812 H   0  0  0  0  0  0  0  0  0  0  0  0
    0.7633   -0.9897    2.7890 H   0  0  0  0  0  0  0  0  0  0  0  0
    0.0724    0.6674    2.8728 H   0  0  0  0  0  0  0  0  0  0  0  0
    4.0718    2.0873   -2.3542 H   0  0  0  0  0  0  0  0  0  0  0  0
    6.4999    1.6136   -1.9503 H   0  0  0  0  0  0  0  0  0  0  0  0
    7.1919    0.6874    0.2792 H   0  0  0  0  0  0  0  0  0  0  0  0
    1.1656    0.2224   -0.7429 H   0  0  0  0  0  0  0  0  0  0  0  0
    1.6328   -1.2960    0.0781 H   0  0  0  0  0  0  0  0  0  0  0  0
  1  2  1  0
  2  3  1  0
  2  4  1  0
  4  5  1  0
  5  6  1  0
  6  7  1  0
  7  8  1  0
  8  9  2  0
  8 10  1  0
 10 11  2  0
 11 12  1  0
 12 13  2  0
 13 14  1  0
 14 15  2  0
  7 16  1  0
 16 17  1  0
 17 18  1  0
 18 19  1  0
 19 20  1  0
 20 21  2  0
 20 22  1  0
 22 23  2  0
 23 24  1  0
 24 25  2  0
 25 26  1  0
 26 27  2  0
 27 28  1  0
 19 29  1  0
 17  5  1  0
 27 22  1  0
 15 10  1  0
 29 17  1  0
  1 30  1  0
  1 31  1  0
  1 32  1  0
  3 33  1  0
  3 34  1  0
  3 35  1  0
  4 36  1  0
  4 37  1  0
  5 38  1  0
  6 39  1  0
  6 40  1  0
 11 41  1  0
 12 42  1  0
 13 43  1  0
 14 44  1  0
 15 45  1  0
 16 46  1  0
 16 47  1  0
 18 48  1  0
 18 49  1  0
 24 50  1  0
 25 51  1  0
 26 52  1  0
 29 53  1  0
 29 54  1  0
M  END
$$$$
