
     RDKit          3D

 39 41  0  0  0  0  0  0  0  0999 V2000
   -1.3442   -2.8573   -0.6168 C   0  0  0  0  0  0  0  0  0  0  0  0
   -0.8056   -2.2022    0.6681 C   0  0  0  0  0  0  0  0  0  0  0  0
   -0.5780   -3.3200    1.7011 C   0  0  0  0  0  0  0  0  0  0  0  0
   -1.8374   -1.3685    1.2242 O   0  0  0  0  0  0  0  0  0  0  0  0
   -1.9617   -0.1053    0.7203 C   0  0  0  0  0  0  0  0  0  0  0  0
   -3.1434    0.5557    1.0654 C   0  0  0  0  0  0  0  0  0  0  0  0
   -3.3974    1.8441    0.5945 C   0  0  0  0  0  0  0  0  0  0  0  0
   -2.4652    2.4771   -0.2284 C   0  0  0  0  0  0  0  0  0  0  0  0
   -2.7202    3.7963   -0.7282 C   0  0  0  0  0  0  0  0  0  0  0  0
   -2.9245    4.8592   -1.1476 N   0  0  0  0  0  0  0  0  0  0  0  0
   -1.2777    1.8168   -0.5662 C   0  0  0  0  0  0  0  0  0  0  0  0
   -1.0014    0.5262   -0.0750 C   0  0  0  0  0  0  0  0  0  0  0  0
    0.2856   -0.1814   -0.4282 C   0  0  1  0  0  0  0  0  0  0  0  0
    1.4570    0.7037   -0.4154 N   0  0  0  0  0  0  0  0  0  0  0  0
    2.3345    0.8405   -1.5502 C   0  0  0  0  0  0  0  0  0  0  0  0
    3.6230    1.3671   -0.9502 C   0  0  0  0  0  0  0  0  0  0  0  0
    3.1704    2.1314    0.2861 C   0  0  0  0  0  0  0  0  0  0  0  0
    1.9224    1.3923    0.6964 C   0  0  0  0  0  0  0  0  0  0  0  0
    1.4052    1.4408    1.7991 O   0  0  0  0  0  0  0  0  0  0  0  0
    0.5153   -1.4241    0.4622 C   0  0  2  0  0  0  0  0  0  0  0  0
    1.5437   -2.2655   -0.0934 O   0  0  0  0  0  0  0  0  0  0  0  0
   -2.2926   -3.3704   -0.4173 H   0  0  0  0  0  0  0  0  0  0  0  0
   -1.5622   -2.1170   -1.3930 H   0  0  0  0  0  0  0  0  0  0  0  0
   -0.6423   -3.5892   -1.0285 H   0  0  0  0  0  0  0  0  0  0  0  0
   -0.2410   -2.9023    2.6569 H   0  0  0  0  0  0  0  0  0  0  0  0
    0.1637   -4.0498    1.3608 H   0  0  0  0  0  0  0  0  0  0  0  0
   -1.5129   -3.8521    1.9132 H   0  0  0  0  0  0  0  0  0  0  0  0
   -3.8714    0.0595    1.7034 H   0  0  0  0  0  0  0  0  0  0  0  0
   -4.3230    2.3431    0.8738 H   0  0  0  0  0  0  0  0  0  0  0  0
   -0.5510    2.3197   -1.2023 H   0  0  0  0  0  0  0  0  0  0  0  0
    0.1791   -0.5146   -1.4697 H   0  0  0  0  0  0  0  0  0  0  0  0
    2.4840   -0.1231   -2.0460 H   0  0  0  0  0  0  0  0  0  0  0  0
    1.8839    1.5518   -2.2494 H   0  0  0  0  0  0  0  0  0  0  0  0
    4.1966    1.9833   -1.6481 H   0  0  0  0  0  0  0  0  0  0  0  0
    4.2586    0.5262   -0.6451 H   0  0  0  0  0  0  0  0  0  0  0  0
    2.9082    3.1668    0.0486 H   0  0  0  0  0  0  0  0  0  0  0  0
    3.9235    2.1015    1.0771 H   0  0  0  0  0  0  0  0  0  0  0  0
    0.8777   -1.1002    1.4458 H   0  0  0  0  0  0  0  0  0  0  0  0
    1.3208   -2.4599   -1.0186 H   0  0  0  0  0  0  0  0  0  0  0  0
  1  2  1  0
  2  3  1  0
  2  4  1  0
  4  5  1  0
  5  6  2  0
  6  7  1  0
  7  8  2  0
  8  9  1  0
  9 10  3  0
  8 11  1  0
 11 12  2  0
 12 13  1  0
 13 14  1  0
 14 15  1  0
 15 16  1  0
 16 17  1  0
 17 18  1  0
 18 19  2  0
 13 20  1  0
 20 21  1  0
 20  2  1  0
 12  5  1  0
 18 14  1  0
  1 22  1  0
  1 23  1  0
  1 24  1  0
  3 25  1  0
  3 26  1  0
  3 27  1  0
  6 28  1  0
  7 29  1  0
 11 30  1  0
 13 31  1  6
 15 32  1  0
 15 33  1  0
 16 34  1  0
 16 35  1  0
 17 36  1  0
 17 37  1  0
 20 38  1  1
 21 39  1  0
M  END
$$$$
