
     RDKit          3D

 47 47  0  0  0  0  0  0  0  0999 V2000
    6.0394   -0.5054    0.0360 C   0  0  0  0  0  0  0  0  0  0  0  0
    5.1737    0.3192    0.7928 O   0  0  0  0  0  0  0  0  0  0  0  0
    3.8049    0.1969    0.7222 C   0  0  0  0  0  0  0  0  0  0  0  0
    3.0059    1.0113    1.4670 C   0  0  0  0  0  0  0  0  0  0  0  0
    1.6265    0.9407    1.4403 C   0  0  0  0  0  0  0  0  0  0  0  0
    1.0002    0.0095    0.6286 C   0  0  0  0  0  0  0  0  0  0  0  0
   -0.4434   -0.0791    0.5433 C   0  0  0  0  0  0  0  0  0  0  0  0
   -1.1881    0.9525    0.2875 C   0  0  0  0  0  0  0  0  0  0  0  0
   -0.7321    2.3329    0.0463 C   0  0  0  0  0  0  0  0  0  0  0  0
   -1.3398    3.2447    1.0700 C   0  0  0  0  0  0  0  0  0  0  0  0
   -2.6819    2.8370    1.5379 C   0  0  0  0  0  0  0  0  0  0  0  0
   -3.3100    1.7262    0.8780 N   0  0  0  0  0  0  0  0  0  0  0  0
   -2.6628    0.7779    0.2538 C   0  0  0  0  0  0  0  0  0  0  0  0
   -3.3001   -0.3727   -0.3544 C   0  0  0  0  0  0  0  0  0  0  0  0
   -2.6844   -1.3522   -1.0791 C   0  0  0  0  0  0  0  0  0  0  0  0
   -3.4252   -2.4422   -1.5630 C   0  0  0  0  0  0  0  0  0  0  0  0
   -4.7755   -2.5755   -1.3392 C   0  0  0  0  0  0  0  0  0  0  0  0
   -5.3607   -1.6029   -0.6271 N   0  0  0  0  0  0  0  0  0  0  0  0
   -4.6808   -0.5514   -0.1517 C   0  0  0  0  0  0  0  0  0  0  0  0
    1.8220   -0.8306   -0.1384 C   0  0  0  0  0  0  0  0  0  0  0  0
    1.1795   -1.7460   -0.9336 O   0  0  0  0  0  0  0  0  0  0  0  0
    1.7658   -2.6819   -1.7812 C   0  0  0  0  0  0  0  0  0  0  0  0
    3.2073   -0.7327   -0.0881 C   0  0  0  0  0  0  0  0  0  0  0  0
    0.6890    0.0000    0.0000 Cl  0  0  0  0  0  0  0  0  0  0  0  0
    0.6881    0.0000    0.0000 Cl  0  0  0  0  0  0  0  0  0  0  0  0
    7.1065   -0.3422    0.3161 H   0  0  0  0  0  0  0  0  0  0  0  0
    5.8359   -1.5844    0.1885 H   0  0  0  0  0  0  0  0  0  0  0  0
    5.8735   -0.3100   -1.0437 H   0  0  0  0  0  0  0  0  0  0  0  0
    3.4414    1.7625    2.1217 H   0  0  0  0  0  0  0  0  0  0  0  0
    1.0017    1.5767    2.0470 H   0  0  0  0  0  0  0  0  0  0  0  0
   -0.9129   -1.0611    0.7289 H   0  0  0  0  0  0  0  0  0  0  0  0
    0.3535    2.4687    0.0403 H   0  0  0  0  0  0  0  0  0  0  0  0
   -1.0541    2.6836   -0.9768 H   0  0  0  0  0  0  0  0  0  0  0  0
   -0.6267    3.3791    1.9168 H   0  0  0  0  0  0  0  0  0  0  0  0
   -1.4262    4.2612    0.6057 H   0  0  0  0  0  0  0  0  0  0  0  0
   -3.4268    3.6914    1.4470 H   0  0  0  0  0  0  0  0  0  0  0  0
   -2.6058    2.5979    2.6484 H   0  0  0  0  0  0  0  0  0  0  0  0
   -1.6350   -1.2698   -1.3092 H   0  0  0  0  0  0  0  0  0  0  0  0
   -2.9227   -3.2021   -2.1304 H   0  0  0  0  0  0  0  0  0  0  0  0
   -5.3036   -3.4323   -1.7311 H   0  0  0  0  0  0  0  0  0  0  0  0
   -5.1722    0.2250    0.4219 H   0  0  0  0  0  0  0  0  0  0  0  0
    1.7104   -3.7380   -1.4024 H   0  0  0  0  0  0  0  0  0  0  0  0
    1.1490   -2.7067   -2.7280 H   0  0  0  0  0  0  0  0  0  0  0  0
    2.7863   -2.4708   -2.1086 H   0  0  0  0  0  0  0  0  0  0  0  0
    3.7876   -1.4050   -0.7000 H   0  0  0  0  0  0  0  0  0  0  0  0
   -0.6890    0.0000    0.0000 H   0  0  0  0  0  0  0  0  0  0  0  0
   -0.6881    0.0000    0.0000 H   0  0  0  0  0  0  0  0  0  0  0  0
  1  2  1  0
  2  3  1  0
  3  4  2  0
  4  5  1  0
  5  6  2  0
  6  7  1  0
  7  8  2  0
  8  9  1  0
  9 10  1  0
 10 11  1  0
 11 12  1  0
 12 13  2  0
 13 14  1  0
 14 15  2  0
 15 16  1  0
 16 17  2  0
 17 18  1  0
 18 19  2  0
  6 20  1  0
 20 21  1  0
 21 22  1  0
 20 23  2  0
 23  3  1  0
 13  8  1  0
 19 14  1  0
  1 26  1  0
  1 27  1  0
  1 28  1  0
  4 29  1  0
  5 30  1  0
  7 31  1  0
  9 32  1  0
  9 33  1  0
 10 34  1  0
 10 35  1  0
 11 36  1  0
 11 37  1  0
 15 38  1  0
 16 39  1  0
 17 40  1  0
 19 41  1  0
 22 42  1  0
 22 43  1  0
 22 44  1  0
 23 45  1  0
 24 46  1  0
 25 47  1  0
M  END
$$$$
