
     RDKit          3D

 32 34  0  0  0  0  0  0  0  0999 V2000
   -0.8600    2.4513    1.5411 O   0  0  0  0  0  0  0  0  0  0  0  0
   -1.2723    1.3409    1.2357 C   0  0  0  0  0  0  0  0  0  0  0  0
   -0.6078    0.1561    1.4503 N   0  0  0  0  0  0  0  0  0  0  0  0
    0.7403    0.1292    1.9685 C   0  0  0  0  0  0  0  0  0  0  0  0
    1.7257   -0.1306    0.8576 C   0  0  0  0  0  0  0  0  0  0  0  0
    2.1039    0.9222   -0.0091 C   0  0  0  0  0  0  0  0  0  0  0  0
    2.9943    0.7036   -1.0646 C   0  0  0  0  0  0  0  0  0  0  0  0
    3.4862   -0.5716   -1.2320 C   0  0  0  0  0  0  0  0  0  0  0  0
    3.1208   -1.6031   -0.3996 C   0  0  0  0  0  0  0  0  0  0  0  0
    2.2438   -1.4189    0.6491 C   0  0  0  0  0  0  0  0  0  0  0  0
    3.7133   -2.7793   -0.7395 O   0  0  0  0  0  0  0  0  0  0  0  0
    4.5001   -2.3666   -1.8767 C   0  0  0  0  0  0  0  0  0  0  0  0
    4.3555   -0.9685   -2.1994 O   0  0  0  0  0  0  0  0  0  0  0  0
   -2.5733    1.2089    0.5644 C   0  0  0  0  0  0  0  0  0  0  0  0
   -3.7115    0.8534    1.2969 C   0  0  0  0  0  0  0  0  0  0  0  0
   -3.6579    0.5203    2.9915 Cl  0  0  0  0  0  0  0  0  0  0  0  0
   -4.9501    0.7524    0.6550 C   0  0  0  0  0  0  0  0  0  0  0  0
   -5.0548    1.0083   -0.7124 C   0  0  0  0  0  0  0  0  0  0  0  0
   -3.9204    1.3642   -1.4421 C   0  0  0  0  0  0  0  0  0  0  0  0
   -2.6785    1.4673   -0.8071 C   0  0  0  0  0  0  0  0  0  0  0  0
   -1.3136    1.8848   -1.7807 Cl  0  0  0  0  0  0  0  0  0  0  0  0
   -0.9791   -0.7043    1.0716 H   0  0  0  0  0  0  0  0  0  0  0  0
    0.9846    1.0674    2.4791 H   0  0  0  0  0  0  0  0  0  0  0  0
    0.7847   -0.6701    2.7164 H   0  0  0  0  0  0  0  0  0  0  0  0
    1.6901    1.9197    0.1407 H   0  0  0  0  0  0  0  0  0  0  0  0
    3.2831    1.5089   -1.7302 H   0  0  0  0  0  0  0  0  0  0  0  0
    1.9717   -2.2534    1.2861 H   0  0  0  0  0  0  0  0  0  0  0  0
    5.5561   -2.5703   -1.6645 H   0  0  0  0  0  0  0  0  0  0  0  0
    4.1960   -2.9602   -2.7465 H   0  0  0  0  0  0  0  0  0  0  0  0
   -5.8405    0.4788    1.2176 H   0  0  0  0  0  0  0  0  0  0  0  0
   -6.0201    0.9327   -1.2087 H   0  0  0  0  0  0  0  0  0  0  0  0
   -4.0101    1.5620   -2.5085 H   0  0  0  0  0  0  0  0  0  0  0  0
  1  2  2  0
  2  3  1  0
  3  4  1  0
  4  5  1  0
  5  6  2  0
  6  7  1  0
  7  8  2  0
  8  9  1  0
  9 10  2  0
  9 11  1  0
 11 12  1  0
 12 13  1  0
  2 14  1  0
 14 15  2  0
 15 16  1  0
 15 17  1  0
 17 18  2  0
 18 19  1  0
 19 20  2  0
 20 21  1  0
 10  5  1  0
 20 14  1  0
 13  8  1  0
  3 22  1  0
  4 23  1  0
  4 24  1  0
  6 25  1  0
  7 26  1  0
 10 27  1  0
 12 28  1  0
 12 29  1  0
 17 30  1  0
 18 31  1  0
 19 32  1  0
M  END
$$$$
