
     RDKit          3D

 35 37  0  0  0  0  0  0  0  0999 V2000
   -5.1800   -1.6286    1.2625 C   0  0  0  0  0  0  0  0  0  0  0  0
   -4.8412   -0.3528    0.6336 N   0  0  0  0  0  0  0  0  0  0  0  0
   -5.7978    0.7313    0.8520 C   0  0  0  0  0  0  0  0  0  0  0  0
   -3.4963   -0.0392    0.4105 C   0  0  0  0  0  0  0  0  0  0  0  0
   -3.0779    1.2568    0.0624 C   0  0  0  0  0  0  0  0  0  0  0  0
   -1.7311    1.5754   -0.1805 C   0  0  0  0  0  0  0  0  0  0  0  0
   -0.7377    0.5982   -0.0943 C   0  0  0  0  0  0  0  0  0  0  0  0
    0.6688    0.8899   -0.3391 C   0  0  0  0  0  0  0  0  0  0  0  0
    1.7144    0.0926   -0.3019 N   0  0  0  0  0  0  0  0  0  0  0  0
    2.7539    0.9403   -0.6183 C   0  0  0  0  0  0  0  0  0  0  0  0
    4.0994    0.4266   -0.6815 C   0  0  0  0  0  0  0  0  0  0  0  0
    5.2217    1.3069   -1.0125 C   0  0  0  0  0  0  0  0  0  0  0  0
    6.4843    0.8579   -1.0786 C   0  0  0  0  0  0  0  0  0  0  0  0
    6.7719   -0.5715   -0.8112 C   0  0  0  0  0  0  0  0  0  0  0  0
    7.9119   -1.0146   -0.8625 O   0  0  0  0  0  0  0  0  0  0  0  0
    5.6799   -1.3452   -0.5071 N   0  0  0  0  0  0  0  0  0  0  0  0
    4.3912   -0.8690   -0.4434 C   0  0  0  0  0  0  0  0  0  0  0  0
    2.3753    2.2090   -0.8416 N   0  0  0  0  0  0  0  0  0  0  0  0
    0.9945    2.1776   -0.6573 O   0  0  0  0  0  0  0  0  0  0  0  0
   -1.1317   -0.7003    0.2346 C   0  0  0  0  0  0  0  0  0  0  0  0
   -2.4807   -1.0080    0.4752 C   0  0  0  0  0  0  0  0  0  0  0  0
   -4.7329   -1.7068    2.2597 H   0  0  0  0  0  0  0  0  0  0  0  0
   -4.8556   -2.4734    0.6455 H   0  0  0  0  0  0  0  0  0  0  0  0
   -6.2641   -1.7406    1.3767 H   0  0  0  0  0  0  0  0  0  0  0  0
   -6.8079    0.3425    1.0238 H   0  0  0  0  0  0  0  0  0  0  0  0
   -5.5213    1.3298    1.7270 H   0  0  0  0  0  0  0  0  0  0  0  0
   -5.8721    1.3779   -0.0288 H   0  0  0  0  0  0  0  0  0  0  0  0
   -3.7948    2.0667   -0.0362 H   0  0  0  0  0  0  0  0  0  0  0  0
   -1.4839    2.6023   -0.4421 H   0  0  0  0  0  0  0  0  0  0  0  0
    5.0131    2.3550   -1.2091 H   0  0  0  0  0  0  0  0  0  0  0  0
    7.3262    1.4923   -1.3215 H   0  0  0  0  0  0  0  0  0  0  0  0
    5.8708   -2.3230   -0.3237 H   0  0  0  0  0  0  0  0  0  0  0  0
    3.6302   -1.6021   -0.1903 H   0  0  0  0  0  0  0  0  0  0  0  0
   -0.3920   -1.4964    0.3043 H   0  0  0  0  0  0  0  0  0  0  0  0
   -2.7087   -2.0426    0.7136 H   0  0  0  0  0  0  0  0  0  0  0  0
  1  2  1  0
  2  3  1  0
  2  4  1  0
  4  5  2  0
  5  6  1  0
  6  7  2  0
  7  8  1  0
  8  9  2  0
  9 10  1  0
 10 11  1  0
 11 12  1  0
 12 13  2  0
 13 14  1  0
 14 15  2  0
 14 16  1  0
 16 17  1  0
 10 18  2  0
 18 19  1  0
  7 20  1  0
 20 21  2  0
 21  4  1  0
 19  8  1  0
 17 11  2  0
  1 22  1  0
  1 23  1  0
  1 24  1  0
  3 25  1  0
  3 26  1  0
  3 27  1  0
  5 28  1  0
  6 29  1  0
 12 30  1  0
 13 31  1  0
 16 32  1  0
 17 33  1  0
 20 34  1  0
 21 35  1  0
M  END
$$$$
