
     RDKit          3D

 32 33  0  0  0  0  0  0  0  0999 V2000
    4.4398    0.2475   -1.0732 O   0  0  0  0  0  0  0  0  0  0  0  0
    3.2910    0.2164   -0.6429 C   0  0  0  0  0  0  0  0  0  0  0  0
    2.2743    0.8703   -1.2750 N   0  0  0  0  0  0  0  0  0  0  0  0
    0.9505    0.8432   -0.9302 C   0  0  0  0  0  0  0  0  0  0  0  0
    0.1340    1.4330   -1.6331 O   0  0  0  0  0  0  0  0  0  0  0  0
    0.6433    0.1376    0.2236 N   0  0  0  0  0  0  0  0  0  0  0  0
   -0.7505   -0.0111    0.6462 C   0  0  1  0  0  0  0  0  0  0  0  0
   -1.5916    1.2625    0.7136 C   0  0  0  0  0  0  0  0  0  0  0  0
   -2.6058    1.0927   -0.3958 C   0  0  2  0  0  0  0  0  0  0  0  0
   -3.8474    1.6901   -0.0550 O   0  0  0  0  0  0  0  0  0  0  0  0
   -2.7133   -0.4201   -0.5118 C   0  0  1  0  0  0  0  0  0  0  0  0
   -3.1536   -0.8855   -1.8960 C   0  0  0  0  0  0  0  0  0  0  0  0
   -3.1943   -2.3137   -1.9316 O   0  0  0  0  0  0  0  0  0  0  0  0
   -1.3969   -0.9417   -0.2327 O   0  0  0  0  0  0  0  0  0  0  0  0
    1.6228   -0.5478    0.9269 C   0  0  0  0  0  0  0  0  0  0  0  0
    2.9223   -0.5358    0.5919 C   0  0  0  0  0  0  0  0  0  0  0  0
    3.9533   -1.2763    1.2990 C   0  0  0  0  0  0  0  0  0  0  0  0
    4.0144   -1.4519    2.6248 C   0  0  0  0  0  0  0  0  0  0  0  0
    5.3682   -2.3899    3.4807 Br  0  0  0  0  0  0  0  0  0  0  0  0
    2.5088    1.3633   -2.1224 H   0  0  0  0  0  0  0  0  0  0  0  0
   -0.7616   -0.4628    1.6464 H   0  0  0  0  0  0  0  0  0  0  0  0
   -2.1017    1.3163    1.6844 H   0  0  0  0  0  0  0  0  0  0  0  0
   -1.0143    2.1884    0.6287 H   0  0  0  0  0  0  0  0  0  0  0  0
   -2.2557    1.5383   -1.3313 H   0  0  0  0  0  0  0  0  0  0  0  0
   -3.7193    2.6555   -0.0717 H   0  0  0  0  0  0  0  0  0  0  0  0
   -3.3932   -0.8339    0.2439 H   0  0  0  0  0  0  0  0  0  0  0  0
   -4.1484   -0.5065   -2.1468 H   0  0  0  0  0  0  0  0  0  0  0  0
   -2.4453   -0.5634   -2.6664 H   0  0  0  0  0  0  0  0  0  0  0  0
   -2.3395   -2.6074   -1.5622 H   0  0  0  0  0  0  0  0  0  0  0  0
    1.2799   -1.1255    1.7816 H   0  0  0  0  0  0  0  0  0  0  0  0
    4.7471   -1.6800    0.6696 H   0  0  0  0  0  0  0  0  0  0  0  0
    3.2827   -1.0529    3.3171 H   0  0  0  0  0  0  0  0  0  0  0  0
  1  2  2  0
  2  3  1  0
  3  4  1  0
  4  5  2  0
  4  6  1  0
  6  7  1  0
  7  8  1  0
  8  9  1  0
  9 10  1  0
  9 11  1  0
 11 12  1  0
 12 13  1  0
 11 14  1  0
  6 15  1  0
 15 16  2  0
 16 17  1  0
 17 18  2  0
 18 19  1  0
 16  2  1  0
 14  7  1  0
  3 20  1  0
  7 21  1  1
  8 22  1  0
  8 23  1  0
  9 24  1  6
 10 25  1  0
 11 26  1  1
 12 27  1  0
 12 28  1  0
 13 29  1  0
 15 30  1  0
 17 31  1  0
 18 32  1  0
M  END
$$$$
