
     RDKit          3D

 45 47  0  0  0  0  0  0  0  0999 V2000
   -6.5347   -1.9740   -0.5502 C   0  0  0  0  0  0  0  0  0  0  0  0
   -5.7117   -0.9408   -1.2994 C   0  0  0  0  0  0  0  0  0  0  0  0
   -4.5452   -0.5173   -0.5482 N   0  0  0  0  0  0  0  0  0  0  0  0
   -3.2878   -1.0538   -0.6715 C   0  0  0  0  0  0  0  0  0  0  0  0
   -2.4397   -0.3817    0.1921 C   0  0  0  0  0  0  0  0  0  0  0  0
   -0.9803   -0.6413    0.3799 C   0  0  0  0  0  0  0  0  0  0  0  0
   -0.1060    0.2798   -0.4702 C   0  0  0  0  0  0  0  0  0  0  0  0
    1.3102    0.0373   -0.2452 N   0  0  0  0  0  0  0  0  0  0  0  0
    2.2461    0.4974   -1.1519 C   0  0  0  0  0  0  0  0  0  0  0  0
    1.9557    1.0283   -2.2171 O   0  0  0  0  0  0  0  0  0  0  0  0
    3.6730    0.3557   -0.7498 C   0  0  0  0  0  0  0  0  0  0  0  0
    4.6046    1.2642   -1.2605 C   0  0  0  0  0  0  0  0  0  0  0  0
    5.9510    1.1608   -0.9022 C   0  0  0  0  0  0  0  0  0  0  0  0
    6.3847    0.1473   -0.0435 C   0  0  0  0  0  0  0  0  0  0  0  0
    7.7252    0.1616    0.2242 O   0  0  0  0  0  0  0  0  0  0  0  0
    8.2262   -0.8660    1.0698 C   0  0  0  0  0  0  0  0  0  0  0  0
    5.4577   -0.7709    0.4531 C   0  0  0  0  0  0  0  0  0  0  0  0
    4.1058   -0.6704    0.0994 C   0  0  0  0  0  0  0  0  0  0  0  0
   -3.2310    0.6041    0.8623 C   0  0  0  0  0  0  0  0  0  0  0  0
   -2.9882    1.5917    1.8333 C   0  0  0  0  0  0  0  0  0  0  0  0
   -4.0621    2.3826    2.2409 C   0  0  0  0  0  0  0  0  0  0  0  0
   -5.3109    2.1623    1.6772 C   0  0  0  0  0  0  0  0  0  0  0  0
   -5.6019    1.2302    0.7436 N   0  0  0  0  0  0  0  0  0  0  0  0
   -4.5330    0.4923    0.3789 C   0  0  0  0  0  0  0  0  0  0  0  0
   -6.9025   -1.5746    0.4008 H   0  0  0  0  0  0  0  0  0  0  0  0
   -5.9402   -2.8669   -0.3293 H   0  0  0  0  0  0  0  0  0  0  0  0
   -7.3986   -2.2783   -1.1491 H   0  0  0  0  0  0  0  0  0  0  0  0
   -5.3622   -1.3514   -2.2534 H   0  0  0  0  0  0  0  0  0  0  0  0
   -6.3123   -0.0530   -1.5252 H   0  0  0  0  0  0  0  0  0  0  0  0
   -3.0955   -1.8658   -1.3614 H   0  0  0  0  0  0  0  0  0  0  0  0
   -0.7572   -1.6873    0.1326 H   0  0  0  0  0  0  0  0  0  0  0  0
   -0.7225   -0.5229    1.4402 H   0  0  0  0  0  0  0  0  0  0  0  0
   -0.2955    1.3326   -0.2291 H   0  0  0  0  0  0  0  0  0  0  0  0
   -0.3270    0.1449   -1.5357 H   0  0  0  0  0  0  0  0  0  0  0  0
    1.6149   -0.0772    0.7121 H   0  0  0  0  0  0  0  0  0  0  0  0
    4.2860    2.0552   -1.9364 H   0  0  0  0  0  0  0  0  0  0  0  0
    6.6688    1.8744   -1.3005 H   0  0  0  0  0  0  0  0  0  0  0  0
    8.0687   -1.8545    0.6258 H   0  0  0  0  0  0  0  0  0  0  0  0
    9.3050   -0.7163    1.1750 H   0  0  0  0  0  0  0  0  0  0  0  0
    7.7825   -0.8056    2.0690 H   0  0  0  0  0  0  0  0  0  0  0  0
    5.7545   -1.5822    1.1097 H   0  0  0  0  0  0  0  0  0  0  0  0
    3.4107   -1.4178    0.4717 H   0  0  0  0  0  0  0  0  0  0  0  0
   -1.9995    1.7389    2.2532 H   0  0  0  0  0  0  0  0  0  0  0  0
   -3.9261    3.1588    2.9859 H   0  0  0  0  0  0  0  0  0  0  0  0
   -6.1596    2.7699    1.9831 H   0  0  0  0  0  0  0  0  0  0  0  0
  1  2  1  0
  2  3  1  0
  3  4  1  0
  4  5  2  0
  5  6  1  0
  6  7  1  0
  7  8  1  0
  8  9  1  0
  9 10  2  0
  9 11  1  0
 11 12  2  0
 12 13  1  0
 13 14  2  0
 14 15  1  0
 15 16  1  0
 14 17  1  0
 17 18  2  0
  5 19  1  0
 19 20  2  0
 20 21  1  0
 21 22  2  0
 22 23  1  0
 23 24  2  0
 24  3  1  0
 18 11  1  0
 24 19  1  0
  1 25  1  0
  1 26  1  0
  1 27  1  0
  2 28  1  0
  2 29  1  0
  4 30  1  0
  6 31  1  0
  6 32  1  0
  7 33  1  0
  7 34  1  0
  8 35  1  0
 12 36  1  0
 13 37  1  0
 16 38  1  0
 16 39  1  0
 16 40  1  0
 17 41  1  0
 18 42  1  0
 20 43  1  0
 21 44  1  0
 22 45  1  0
M  END
$$$$
