
     RDKit          3D

 49 53  0  0  0  0  0  0  0  0999 V2000
   -4.0601   -3.3256    1.4162 O   0  0  0  0  0  0  0  0  0  0  0  0
   -3.9986   -2.1938    0.9834 C   0  0  0  0  0  0  0  0  0  0  0  0
   -2.9343   -1.6135    0.3531 O   0  0  0  0  0  0  0  0  0  0  0  0
   -3.1924   -0.2340   -0.0419 C   0  0  1  0  0  0  0  0  0  0  0  0
   -2.1562    0.6398    0.6906 C   0  0  0  0  0  0  0  0  0  0  0  0
   -1.7501    1.8768   -0.1086 C   0  0  0  0  0  0  0  0  0  0  0  0
   -1.2258    1.5424   -1.5178 C   0  0  1  0  0  0  0  0  0  0  0  0
    0.2884    1.7356   -1.6304 C   0  0  0  0  0  0  0  0  0  0  0  0
    0.7436    2.5931   -2.3838 O   0  0  0  0  0  0  0  0  0  0  0  0
    1.0298    0.8976   -0.8346 N   0  0  0  0  0  0  0  0  0  0  0  0
    2.4003    0.8850   -0.7470 C   0  0  0  0  0  0  0  0  0  0  0  0
    3.3538    1.6829   -1.3975 C   0  0  0  0  0  0  0  0  0  0  0  0
    4.5680    1.2351   -0.9342 C   0  0  0  0  0  0  0  0  0  0  0  0
    4.3128    0.2133   -0.0482 N   0  0  0  0  0  0  0  0  0  0  0  0
    5.2279   -0.5784    0.6980 C   0  0  0  0  0  0  0  0  0  0  0  0
    4.7317   -1.5834    1.5484 C   0  0  0  0  0  0  0  0  0  0  0  0
    5.6057   -2.3795    2.2949 C   0  0  0  0  0  0  0  0  0  0  0  0
    6.9813   -2.1830    2.2025 C   0  0  0  0  0  0  0  0  0  0  0  0
    7.4817   -1.1900    1.3630 C   0  0  0  0  0  0  0  0  0  0  0  0
    6.6100   -0.3946    0.6170 C   0  0  0  0  0  0  0  0  0  0  0  0
    7.1618    0.5402   -0.1675 F   0  0  0  0  0  0  0  0  0  0  0  0
    2.9714    0.0002    0.0686 N   0  0  0  0  0  0  0  0  0  0  0  0
   -1.6607    0.1568   -2.0173 C   0  0  0  0  0  0  0  0  0  0  0  0
   -3.0892   -0.1538   -1.5748 C   0  0  0  0  0  0  0  0  0  0  0  0
   -4.5801   -0.0362    0.4400 C   0  0  0  0  0  0  0  0  0  0  0  0
   -5.4218    1.0456    0.3925 C   0  0  0  0  0  0  0  0  0  0  0  0
   -6.6718    1.0033    0.9084 N   0  0  0  0  0  0  0  0  0  0  0  0
   -7.0858   -0.1562    1.4872 C   0  0  0  0  0  0  0  0  0  0  0  0
   -6.3059   -1.2918    1.5800 C   0  0  0  0  0  0  0  0  0  0  0  0
   -5.0432   -1.1857    1.0365 C   0  0  0  0  0  0  0  0  0  0  0  0
   -2.5315    0.9509    1.6742 H   0  0  0  0  0  0  0  0  0  0  0  0
   -1.2579    0.0463    0.9034 H   0  0  0  0  0  0  0  0  0  0  0  0
   -1.0118    2.4549    0.4600 H   0  0  0  0  0  0  0  0  0  0  0  0
   -2.6289    2.5269   -0.2083 H   0  0  0  0  0  0  0  0  0  0  0  0
   -1.6639    2.2885   -2.1971 H   0  0  0  0  0  0  0  0  0  0  0  0
    0.5965    0.1974   -0.2519 H   0  0  0  0  0  0  0  0  0  0  0  0
    3.1929    2.4795   -2.1105 H   0  0  0  0  0  0  0  0  0  0  0  0
    5.5662    1.5668   -1.1723 H   0  0  0  0  0  0  0  0  0  0  0  0
    3.6614   -1.7618    1.6413 H   0  0  0  0  0  0  0  0  0  0  0  0
    5.2084   -3.1534    2.9479 H   0  0  0  0  0  0  0  0  0  0  0  0
    7.6615   -2.8018    2.7824 H   0  0  0  0  0  0  0  0  0  0  0  0
    8.5525   -1.0267    1.2821 H   0  0  0  0  0  0  0  0  0  0  0  0
   -1.5993    0.1333   -3.1124 H   0  0  0  0  0  0  0  0  0  0  0  0
   -0.9893   -0.6335   -1.6612 H   0  0  0  0  0  0  0  0  0  0  0  0
   -3.4085   -1.0987   -2.0322 H   0  0  0  0  0  0  0  0  0  0  0  0
   -3.7470    0.6300   -1.9725 H   0  0  0  0  0  0  0  0  0  0  0  0
   -5.1372    1.9905   -0.0588 H   0  0  0  0  0  0  0  0  0  0  0  0
   -8.0974   -0.1354    1.8849 H   0  0  0  0  0  0  0  0  0  0  0  0
   -6.6590   -2.2020    2.0471 H   0  0  0  0  0  0  0  0  0  0  0  0
  1  2  2  0
  2  3  1  0
  4  3  1  1
  4  5  1  0
  5  6  1  0
  6  7  1  0
  7  8  1  0
  8  9  2  0
  8 10  1  0
 10 11  1  0
 11 12  1  0
 12 13  2  0
 13 14  1  0
 14 15  1  0
 15 16  2  0
 16 17  1  0
 17 18  2  0
 18 19  1  0
 19 20  2  0
 20 21  1  0
 14 22  1  0
  7 23  1  0
 23 24  1  0
  4 25  1  0
 25 26  2  0
 26 27  1  0
 27 28  2  0
 28 29  1  0
 29 30  2  0
 30  2  1  0
 24  4  1  0
 30 25  1  0
 22 11  2  0
 20 15  1  0
  5 31  1  0
  5 32  1  0
  6 33  1  0
  6 34  1  0
  7 35  1  6
 10 36  1  0
 12 37  1  0
 13 38  1  0
 16 39  1  0
 17 40  1  0
 18 41  1  0
 19 42  1  0
 23 43  1  0
 23 44  1  0
 24 45  1  0
 24 46  1  0
 26 47  1  0
 28 48  1  0
 29 49  1  0
M  END
$$$$
