
     RDKit          3D

 44 46  0  0  0  0  0  0  0  0999 V2000
    0.0008   -1.2443   -2.3837 C   0  0  0  0  0  0  0  0  0  0  0  0
   -0.0339   -0.2841   -1.1939 C   0  0  2  0  0  0  0  0  0  0  0  0
   -0.1633    1.1114   -1.7307 N   0  0  0  0  0  0  0  0  0  0  0  0
   -0.6462    1.8449   -0.5298 C   0  0  2  0  0  0  0  0  0  0  0  0
    0.5487    2.0558    0.4359 C   0  0  0  0  0  0  0  0  0  0  0  0
    1.4572    0.8316    0.5366 C   0  0  0  0  0  0  0  0  0  0  0  0
    2.5525    0.8465    1.4076 C   0  0  0  0  0  0  0  0  0  0  0  0
    3.3894   -0.2643    1.4929 C   0  0  0  0  0  0  0  0  0  0  0  0
    3.1383   -1.3930    0.7135 C   0  0  0  0  0  0  0  0  0  0  0  0
    2.0496   -1.4210   -0.1614 C   0  0  0  0  0  0  0  0  0  0  0  0
    1.2008   -0.3118   -0.2717 C   0  0  0  0  0  0  0  0  0  0  0  0
   -1.6518    0.8865    0.0524 C   0  0  0  0  0  0  0  0  0  0  0  0
   -2.7449    1.1129    0.8668 C   0  0  0  0  0  0  0  0  0  0  0  0
   -3.4902    0.0052    1.2768 C   0  0  0  0  0  0  0  0  0  0  0  0
   -3.1297   -1.2945    0.8772 C   0  0  0  0  0  0  0  0  0  0  0  0
   -2.0175   -1.5110    0.0587 C   0  0  0  0  0  0  0  0  0  0  0  0
   -1.2904   -0.4079   -0.3515 C   0  0  0  0  0  0  0  0  0  0  0  0
    1.0385    0.2610   -1.4423 O   0  0  0  0  0  0  0  0  0  0  0  0
    1.3149    0.3493   -0.2631 C   0  0  0  0  0  0  0  0  0  0  0  0
    2.3729    1.0518    0.1732 O   0  0  0  0  0  0  0  0  0  0  0  0
    0.6408   -0.2836    0.8781 C   0  0  0  0  0  0  0  0  0  0  0  0
   -0.6287   -0.7110    0.8595 C   0  0  0  0  0  0  0  0  0  0  0  0
   -1.5579   -0.5243   -0.2571 C   0  0  0  0  0  0  0  0  0  0  0  0
   -2.2766   -1.3901   -0.7185 O   0  0  0  0  0  0  0  0  0  0  0  0
   -1.6260    0.7580   -0.6421 O   0  0  0  0  0  0  0  0  0  0  0  0
   -0.8747   -1.1110   -3.0316 H   0  0  0  0  0  0  0  0  0  0  0  0
    0.8962   -1.0896   -2.9973 H   0  0  0  0  0  0  0  0  0  0  0  0
   -0.0046   -2.2923   -2.0636 H   0  0  0  0  0  0  0  0  0  0  0  0
    0.7587    1.4423   -2.0051 H   0  0  0  0  0  0  0  0  0  0  0  0
   -1.1150    2.7926   -0.8119 H   0  0  0  0  0  0  0  0  0  0  0  0
    0.1866    2.3187    1.4373 H   0  0  0  0  0  0  0  0  0  0  0  0
    1.1601    2.8865    0.0608 H   0  0  0  0  0  0  0  0  0  0  0  0
    2.7552    1.7195    2.0229 H   0  0  0  0  0  0  0  0  0  0  0  0
    4.2377   -0.2530    2.1724 H   0  0  0  0  0  0  0  0  0  0  0  0
    3.7913   -2.2587    0.7912 H   0  0  0  0  0  0  0  0  0  0  0  0
    1.8767   -2.3214   -0.7436 H   0  0  0  0  0  0  0  0  0  0  0  0
   -3.0199    2.1144    1.1785 H   0  0  0  0  0  0  0  0  0  0  0  0
   -4.3587    0.1466    1.9157 H   0  0  0  0  0  0  0  0  0  0  0  0
   -3.7225   -2.1415    1.2143 H   0  0  0  0  0  0  0  0  0  0  0  0
   -1.7363   -2.5159   -0.2354 H   0  0  0  0  0  0  0  0  0  0  0  0
    2.7534    1.4307   -0.6468 H   0  0  0  0  0  0  0  0  0  0  0  0
    1.2518   -0.4338    1.7607 H   0  0  0  0  0  0  0  0  0  0  0  0
   -1.0409   -1.2538    1.7014 H   0  0  0  0  0  0  0  0  0  0  0  0
   -2.2421    0.7459   -1.4030 H   0  0  0  0  0  0  0  0  0  0  0  0
  2  1  1  6
  2  3  1  0
  3  4  1  0
  4  5  1  0
  5  6  1  0
  6  7  2  0
  7  8  1  0
  8  9  2  0
  9 10  1  0
 10 11  2  0
  4 12  1  0
 12 13  2  0
 13 14  1  0
 14 15  2  0
 15 16  1  0
 16 17  2  0
 18 19  2  0
 19 20  1  0
 19 21  1  0
 21 22  2  0
 22 23  1  0
 23 24  2  0
 23 25  1  0
 11  2  1  0
 17 12  1  0
 17  2  1  0
 11  6  1  0
  1 26  1  0
  1 27  1  0
  1 28  1  0
  3 29  1  0
  4 30  1  6
  5 31  1  0
  5 32  1  0
  7 33  1  0
  8 34  1  0
  9 35  1  0
 10 36  1  0
 13 37  1  0
 14 38  1  0
 15 39  1  0
 16 40  1  0
 20 41  1  0
 21 42  1  0
 22 43  1  0
 25 44  1  0
M  END
$$$$
