
     RDKit          3D

 43 44  0  0  0  0  0  0  0  0999 V2000
   -2.2570   -2.3773    3.5170 C   0  0  0  0  0  0  0  0  0  0  0  0
   -2.1904   -1.0323    3.0622 O   0  0  0  0  0  0  0  0  0  0  0  0
   -1.5771   -0.7841    1.8663 C   0  0  0  0  0  0  0  0  0  0  0  0
   -1.1063   -1.7788    0.9999 C   0  0  0  0  0  0  0  0  0  0  0  0
   -0.4868   -1.4610   -0.2279 C   0  0  0  0  0  0  0  0  0  0  0  0
    0.0096   -2.5733   -1.1441 C   0  0  0  0  0  0  0  0  0  0  0  0
    1.0990   -3.4131   -0.4702 C   0  0  0  0  0  0  0  0  0  0  0  0
   -1.1425   -3.4589   -1.6278 C   0  0  0  0  0  0  0  0  0  0  0  0
   -0.3392   -0.1059   -0.5731 C   0  0  0  0  0  0  0  0  0  0  0  0
    0.2393    0.1857   -1.7931 O   0  0  0  0  0  0  0  0  0  0  0  0
    1.0272    1.2986   -1.8797 C   0  0  0  0  0  0  0  0  0  0  0  0
    0.7166    2.2610   -2.8112 C   0  0  0  0  0  0  0  0  0  0  0  0
    1.4410    3.3815   -2.9945 N   0  0  0  0  0  0  0  0  0  0  0  0
    2.5100    3.5257   -2.2073 C   0  0  0  0  0  0  0  0  0  0  0  0
    3.2677    4.6650   -2.3726 N   0  0  0  0  0  0  0  0  0  0  0  0
    2.9283    2.6291   -1.3073 N   0  0  0  0  0  0  0  0  0  0  0  0
    2.1892    1.5174   -1.1587 C   0  0  0  0  0  0  0  0  0  0  0  0
    2.6522    0.6134   -0.2011 N   0  0  0  0  0  0  0  0  0  0  0  0
   -0.8303    0.8961    0.2711 C   0  0  0  0  0  0  0  0  0  0  0  0
   -1.4339    0.5548    1.4870 C   0  0  0  0  0  0  0  0  0  0  0  0
   -2.0222    1.8205    2.5708 S   0  0  0  0  0  6  0  0  0  0  0  0
   -1.5680    3.2670    1.8298 N   0  0  0  0  0  0  0  0  0  0  0  0
   -1.2590    1.7984    3.7975 O   0  0  0  0  0  0  0  0  0  0  0  0
   -3.4666    1.8392    2.5328 O   0  0  0  0  0  0  0  0  0  0  0  0
   -1.2567   -2.8098    3.6232 H   0  0  0  0  0  0  0  0  0  0  0  0
   -2.7244   -2.3727    4.5063 H   0  0  0  0  0  0  0  0  0  0  0  0
   -2.8838   -2.9844    2.8558 H   0  0  0  0  0  0  0  0  0  0  0  0
   -1.2168   -2.8272    1.2604 H   0  0  0  0  0  0  0  0  0  0  0  0
    0.4649   -2.1368   -2.0407 H   0  0  0  0  0  0  0  0  0  0  0  0
    1.9269   -2.7805   -0.1315 H   0  0  0  0  0  0  0  0  0  0  0  0
    0.7192   -3.9605    0.3990 H   0  0  0  0  0  0  0  0  0  0  0  0
    1.5055   -4.1491   -1.1724 H   0  0  0  0  0  0  0  0  0  0  0  0
   -1.6157   -4.0055   -0.8051 H   0  0  0  0  0  0  0  0  0  0  0  0
   -0.7812   -4.1979   -2.3512 H   0  0  0  0  0  0  0  0  0  0  0  0
   -1.9164   -2.8591   -2.1197 H   0  0  0  0  0  0  0  0  0  0  0  0
   -0.1542    2.1611   -3.4516 H   0  0  0  0  0  0  0  0  0  0  0  0
    3.1276    5.0414   -3.2994 H   0  0  0  0  0  0  0  0  0  0  0  0
    4.2175    4.4982   -2.0732 H   0  0  0  0  0  0  0  0  0  0  0  0
    3.5466    0.9468    0.1469 H   0  0  0  0  0  0  0  0  0  0  0  0
    2.6926   -0.3340   -0.5577 H   0  0  0  0  0  0  0  0  0  0  0  0
   -0.7431    1.9386   -0.0180 H   0  0  0  0  0  0  0  0  0  0  0  0
   -2.4074    3.8119    1.6288 H   0  0  0  0  0  0  0  0  0  0  0  0
   -0.9018    3.7508    2.4344 H   0  0  0  0  0  0  0  0  0  0  0  0
  1  2  1  0
  2  3  1  0
  3  4  2  0
  4  5  1  0
  5  6  1  0
  6  7  1  0
  6  8  1  0
  5  9  2  0
  9 10  1  0
 10 11  1  0
 11 12  2  0
 12 13  1  0
 13 14  2  0
 14 15  1  0
 14 16  1  0
 16 17  2  0
 17 18  1  0
  9 19  1  0
 19 20  2  0
 20 21  1  0
 21 22  1  0
 21 23  2  0
 21 24  2  0
 20  3  1  0
 17 11  1  0
  1 25  1  0
  1 26  1  0
  1 27  1  0
  4 28  1  0
  6 29  1  0
  7 30  1  0
  7 31  1  0
  7 32  1  0
  8 33  1  0
  8 34  1  0
  8 35  1  0
 12 36  1  0
 15 37  1  0
 15 38  1  0
 18 39  1  0
 18 40  1  0
 19 41  1  0
 22 42  1  0
 22 43  1  0
M  END
$$$$
