
     RDKit          3D

 43 46  0  0  0  0  0  0  0  0999 V2000
    5.6567   -2.8715    0.5017 C   0  0  0  0  0  0  0  0  0  0  0  0
    4.6906   -1.7070    0.6645 C   0  0  0  0  0  0  0  0  0  0  0  0
    4.5475   -0.9262   -0.6405 C   0  0  0  0  0  0  0  0  0  0  0  0
    3.4285    0.4955   -0.4500 S   0  0  0  0  0  0  0  0  0  0  0  0
    1.8694   -0.2595   -0.5148 C   0  0  0  0  0  0  0  0  0  0  0  0
    1.6819   -1.5297   -0.7909 N   0  0  0  0  0  0  0  0  0  0  0  0
    0.3402   -1.7771   -0.7514 N   0  0  0  0  0  0  0  0  0  0  0  0
   -0.2865   -0.6644   -0.4232 C   0  0  0  0  0  0  0  0  0  0  0  0
   -1.6656   -0.4421   -0.2609 N   0  0  0  0  0  0  0  0  0  0  0  0
   -2.5603   -1.5591   -0.4136 C   0  0  0  0  0  0  0  0  0  0  0  0
   -3.8557   -1.3791   -0.9292 C   0  0  0  0  0  0  0  0  0  0  0  0
   -4.7417   -2.4530   -1.0785 C   0  0  0  0  0  0  0  0  0  0  0  0
   -4.3535   -3.7355   -0.7103 C   0  0  0  0  0  0  0  0  0  0  0  0
   -3.0814   -3.9422   -0.1909 C   0  0  0  0  0  0  0  0  0  0  0  0
   -2.1975   -2.8663   -0.0428 C   0  0  0  0  0  0  0  0  0  0  0  0
   -2.1338    0.8639    0.0185 C   0  0  0  0  0  0  0  0  0  0  0  0
   -3.3127    1.1529    0.2097 O   0  0  0  0  0  0  0  0  0  0  0  0
   -1.1109    1.9214    0.1229 C   0  0  0  0  0  0  0  0  0  0  0  0
   -1.3077    3.3336    0.3915 C   0  0  0  0  0  0  0  0  0  0  0  0
   -2.6481    3.9683    0.6091 C   0  0  0  0  0  0  0  0  0  0  0  0
   -0.0949    4.0143    0.4207 C   0  0  0  0  0  0  0  0  0  0  0  0
    0.1508    5.4688    0.6633 C   0  0  0  0  0  0  0  0  0  0  0  0
    1.2322    2.9734    0.1320 S   0  0  0  0  0  0  0  0  0  0  0  0
    0.2257    1.6476   -0.0273 C   0  0  0  0  0  0  0  0  0  0  0  0
    0.6526    0.3592   -0.2992 N   0  0  0  0  0  0  0  0  0  0  0  0
    5.3029   -3.5702   -0.2632 H   0  0  0  0  0  0  0  0  0  0  0  0
    6.6517   -2.5185    0.2123 H   0  0  0  0  0  0  0  0  0  0  0  0
    5.7516   -3.4193    1.4445 H   0  0  0  0  0  0  0  0  0  0  0  0
    3.7221   -2.1012    0.9926 H   0  0  0  0  0  0  0  0  0  0  0  0
    5.0624   -1.0504    1.4604 H   0  0  0  0  0  0  0  0  0  0  0  0
    5.5250   -0.5285   -0.9353 H   0  0  0  0  0  0  0  0  0  0  0  0
    4.2080   -1.5711   -1.4580 H   0  0  0  0  0  0  0  0  0  0  0  0
   -4.2025   -0.4028   -1.2587 H   0  0  0  0  0  0  0  0  0  0  0  0
   -5.7344   -2.2807   -1.4869 H   0  0  0  0  0  0  0  0  0  0  0  0
   -5.0400   -4.5698   -0.8254 H   0  0  0  0  0  0  0  0  0  0  0  0
   -2.7706   -4.9402    0.1082 H   0  0  0  0  0  0  0  0  0  0  0  0
   -1.2308   -3.0816    0.4056 H   0  0  0  0  0  0  0  0  0  0  0  0
   -2.5690    5.0475    0.7714 H   0  0  0  0  0  0  0  0  0  0  0  0
   -3.2894    3.8126   -0.2643 H   0  0  0  0  0  0  0  0  0  0  0  0
   -3.1348    3.5360    1.4892 H   0  0  0  0  0  0  0  0  0  0  0  0
   -0.2322    5.7571    1.6478 H   0  0  0  0  0  0  0  0  0  0  0  0
    1.2147    5.7254    0.6312 H   0  0  0  0  0  0  0  0  0  0  0  0
   -0.3605    6.0694   -0.0961 H   0  0  0  0  0  0  0  0  0  0  0  0
  1  2  1  0
  2  3  1  0
  3  4  1  0
  4  5  1  0
  5  6  2  0
  6  7  1  0
  7  8  2  0
  8  9  1  0
  9 10  1  0
 10 11  2  0
 11 12  1  0
 12 13  2  0
 13 14  1  0
 14 15  2  0
  9 16  1  0
 16 17  2  0
 16 18  1  0
 18 19  1  0
 19 20  1  0
 19 21  2  0
 21 22  1  0
 21 23  1  0
 23 24  1  0
 24 25  1  0
 25  5  1  0
 25  8  1  0
 15 10  1  0
 24 18  2  0
  1 26  1  0
  1 27  1  0
  1 28  1  0
  2 29  1  0
  2 30  1  0
  3 31  1  0
  3 32  1  0
 11 33  1  0
 12 34  1  0
 13 35  1  0
 14 36  1  0
 15 37  1  0
 20 38  1  0
 20 39  1  0
 20 40  1  0
 22 41  1  0
 22 42  1  0
 22 43  1  0
M  END
$$$$
