
     RDKit          3D

 49 51  0  0  0  0  0  0  0  0999 V2000
    6.0203   -3.5097   -0.2060 C   0  0  0  0  0  0  0  0  0  0  0  0
    4.6644   -3.2055    0.4089 C   0  0  0  0  0  0  0  0  0  0  0  0
    4.4229   -1.7476    0.4919 C   0  0  0  0  0  0  0  0  0  0  0  0
    3.7715   -0.9569   -0.3310 N   0  0  0  0  0  0  0  0  0  0  0  0
    3.8989    0.2678    0.2864 C   0  0  0  0  0  0  0  0  0  0  0  0
    3.2978    1.5117   -0.2820 C   0  0  0  0  0  0  0  0  0  0  0  0
    2.2557    2.0445    0.5943 N   0  0  0  0  0  0  0  0  0  0  0  0
    2.5992    3.0820    1.4517 C   0  0  0  0  0  0  0  0  0  0  0  0
    3.6899    3.6523    1.4366 O   0  0  0  0  0  0  0  0  0  0  0  0
    1.5410    3.4289    2.4900 C   0  0  0  0  0  0  0  0  0  0  0  0
    0.1818    3.2694    2.1335 O   0  0  0  0  0  0  0  0  0  0  0  0
   -0.0481    2.1492    1.3831 C   0  0  0  0  0  0  0  0  0  0  0  0
   -1.3671    1.6938    1.3880 C   0  0  0  0  0  0  0  0  0  0  0  0
   -1.7312    0.5781    0.6263 C   0  0  0  0  0  0  0  0  0  0  0  0
   -3.4284    0.0375    0.7124 S   0  0  0  0  0  6  0  0  0  0  0  0
   -3.4443   -1.4032    0.8150 O   0  0  0  0  0  0  0  0  0  0  0  0
   -4.1319    0.8750    1.6593 O   0  0  0  0  0  0  0  0  0  0  0  0
   -4.0038    0.5115   -0.8108 N   0  0  0  0  0  0  0  0  0  0  0  0
   -4.9996   -0.3863   -1.4534 C   0  0  0  0  0  0  0  0  0  0  0  0
   -6.3430   -0.3055   -0.7368 C   0  0  0  0  0  0  0  0  0  0  0  0
   -5.1422    0.0517   -2.9091 C   0  0  0  0  0  0  0  0  0  0  0  0
   -0.7721   -0.0858   -0.1573 C   0  0  0  0  0  0  0  0  0  0  0  0
   -1.0798   -1.3065   -0.9810 C   0  0  0  0  0  0  0  0  0  0  0  0
    0.5536    0.3988   -0.1499 C   0  0  0  0  0  0  0  0  0  0  0  0
    0.9331    1.5161    0.6107 C   0  0  0  0  0  0  0  0  0  0  0  0
    4.5966    0.2455    1.4315 N   0  0  0  0  0  0  0  0  0  0  0  0
    4.9449   -1.0977    1.5714 O   0  0  0  0  0  0  0  0  0  0  0  0
    6.1765   -4.5915   -0.2663 H   0  0  0  0  0  0  0  0  0  0  0  0
    6.0974   -3.0977   -1.2181 H   0  0  0  0  0  0  0  0  0  0  0  0
    6.8317   -3.0818    0.3930 H   0  0  0  0  0  0  0  0  0  0  0  0
    4.6041   -3.6504    1.4087 H   0  0  0  0  0  0  0  0  0  0  0  0
    3.8775   -3.6696   -0.1965 H   0  0  0  0  0  0  0  0  0  0  0  0
    4.0939    2.2525   -0.4220 H   0  0  0  0  0  0  0  0  0  0  0  0
    2.8808    1.3325   -1.2793 H   0  0  0  0  0  0  0  0  0  0  0  0
    1.7441    2.8373    3.3912 H   0  0  0  0  0  0  0  0  0  0  0  0
    1.6764    4.4840    2.7533 H   0  0  0  0  0  0  0  0  0  0  0  0
   -2.1008    2.2181    1.9974 H   0  0  0  0  0  0  0  0  0  0  0  0
   -4.3692    1.4630   -0.7198 H   0  0  0  0  0  0  0  0  0  0  0  0
   -4.6282   -1.4167   -1.4498 H   0  0  0  0  0  0  0  0  0  0  0  0
   -6.2678   -0.6667    0.2938 H   0  0  0  0  0  0  0  0  0  0  0  0
   -6.7140    0.7247   -0.6989 H   0  0  0  0  0  0  0  0  0  0  0  0
   -7.0930   -0.9185   -1.2476 H   0  0  0  0  0  0  0  0  0  0  0  0
   -5.8505   -0.5907   -3.4427 H   0  0  0  0  0  0  0  0  0  0  0  0
   -4.1780   -0.0044   -3.4267 H   0  0  0  0  0  0  0  0  0  0  0  0
   -5.4966    1.0861   -2.9830 H   0  0  0  0  0  0  0  0  0  0  0  0
   -1.2269   -2.1755   -0.3329 H   0  0  0  0  0  0  0  0  0  0  0  0
   -1.9629   -1.1514   -1.6057 H   0  0  0  0  0  0  0  0  0  0  0  0
   -0.2571   -1.5421   -1.6652 H   0  0  0  0  0  0  0  0  0  0  0  0
    1.2823   -0.1327   -0.7567 H   0  0  0  0  0  0  0  0  0  0  0  0
  1  2  1  0
  2  3  1  0
  3  4  2  0
  4  5  1  0
  5  6  1  0
  6  7  1  0
  7  8  1  0
  8  9  2  0
  8 10  1  0
 10 11  1  0
 11 12  1  0
 12 13  2  0
 13 14  1  0
 14 15  1  0
 15 16  2  0
 15 17  2  0
 15 18  1  0
 18 19  1  0
 19 20  1  0
 19 21  1  0
 14 22  2  0
 22 23  1  0
 22 24  1  0
 24 25  2  0
  5 26  2  0
 26 27  1  0
 27  3  1  0
 25  7  1  0
 25 12  1  0
  1 28  1  0
  1 29  1  0
  1 30  1  0
  2 31  1  0
  2 32  1  0
  6 33  1  0
  6 34  1  0
 10 35  1  0
 10 36  1  0
 13 37  1  0
 18 38  1  0
 19 39  1  0
 20 40  1  0
 20 41  1  0
 20 42  1  0
 21 43  1  0
 21 44  1  0
 21 45  1  0
 23 46  1  0
 23 47  1  0
 23 48  1  0
 24 49  1  0
M  END
$$$$
