
     RDKit          3D

 51 53  0  0  0  0  0  0  0  0999 V2000
   -0.4393   -4.3816    1.0419 C   0  0  0  0  0  0  0  0  0  0  0  0
   -0.6370   -2.9913    0.8187 O   0  0  0  0  0  0  0  0  0  0  0  0
   -1.9989   -2.6962    0.5348 C   0  0  0  0  0  0  0  0  0  0  0  0
   -2.2975   -1.1887    0.4703 C   0  0  0  0  0  0  0  0  0  0  0  0
   -3.1116   -0.7103    1.2657 O   0  0  0  0  0  0  0  0  0  0  0  0
   -1.6693   -0.4125   -0.5240 N   0  0  0  0  0  0  0  0  0  0  0  0
   -1.9394    1.0466   -0.5244 C   0  0  0  0  0  0  0  0  0  0  0  0
   -3.4100    1.3898   -0.8005 C   0  0  0  0  0  0  0  0  0  0  0  0
   -3.5989    2.9032   -0.8946 C   0  0  0  0  0  0  0  0  0  0  0  0
   -2.6364    3.6459   -0.1442 O   0  0  0  0  0  0  0  0  0  0  0  0
   -2.2564    2.9901    1.0617 C   0  0  0  0  0  0  0  0  0  0  0  0
   -1.4157    1.7639    0.7312 C   0  0  0  0  0  0  0  0  0  0  0  0
   -0.5039   -0.9444   -1.2784 C   0  0  0  0  0  0  0  0  0  0  0  0
   -0.2168   -0.3147   -2.6486 C   0  0  0  0  0  0  0  0  0  0  0  0
    0.8885    0.7082   -2.4120 C   0  0  0  0  0  0  0  0  0  0  0  0
    1.4868    0.3646   -1.1370 N   0  0  0  0  0  0  0  0  0  0  0  0
    2.6990    0.9193   -0.7731 C   0  0  0  0  0  0  0  0  0  0  0  0
    3.3104    1.7278   -1.4650 O   0  0  0  0  0  0  0  0  0  0  0  0
    3.3121    0.4994    0.5033 C   0  0  0  0  0  0  0  0  0  0  0  0
    4.5786   -0.0972    0.4750 C   0  0  0  0  0  0  0  0  0  0  0  0
    5.1888   -0.4786    1.6703 C   0  0  0  0  0  0  0  0  0  0  0  0
    4.5368   -0.2480    2.8799 C   0  0  0  0  0  0  0  0  0  0  0  0
    5.1400   -0.6260    4.0164 F   0  0  0  0  0  0  0  0  0  0  0  0
    3.2854    0.3691    2.9089 C   0  0  0  0  0  0  0  0  0  0  0  0
    2.4870    0.6642    4.4051 Cl  0  0  0  0  0  0  0  0  0  0  0  0
    2.6697    0.7548    1.7192 C   0  0  0  0  0  0  0  0  0  0  0  0
    0.8276   -0.7825   -0.5260 C   0  0  0  0  0  0  0  0  0  0  0  0
   -0.7352   -4.9568    0.1593 H   0  0  0  0  0  0  0  0  0  0  0  0
    0.6243   -4.5512    1.2295 H   0  0  0  0  0  0  0  0  0  0  0  0
   -1.0054   -4.7139    1.9174 H   0  0  0  0  0  0  0  0  0  0  0  0
   -2.6324   -3.1168    1.3258 H   0  0  0  0  0  0  0  0  0  0  0  0
   -2.3011   -3.1542   -0.4141 H   0  0  0  0  0  0  0  0  0  0  0  0
   -1.4052    1.4781   -1.3722 H   0  0  0  0  0  0  0  0  0  0  0  0
   -4.0585    1.0203    0.0004 H   0  0  0  0  0  0  0  0  0  0  0  0
   -3.7664    0.9079   -1.7186 H   0  0  0  0  0  0  0  0  0  0  0  0
   -3.5046    3.2265   -1.9367 H   0  0  0  0  0  0  0  0  0  0  0  0
   -4.6033    3.1855   -0.5602 H   0  0  0  0  0  0  0  0  0  0  0  0
   -3.1503    2.7259    1.6395 H   0  0  0  0  0  0  0  0  0  0  0  0
   -1.6724    3.6916    1.6661 H   0  0  0  0  0  0  0  0  0  0  0  0
   -1.3587    1.1146    1.6107 H   0  0  0  0  0  0  0  0  0  0  0  0
   -0.3847    2.0808    0.5299 H   0  0  0  0  0  0  0  0  0  0  0  0
   -0.6957   -2.0067   -1.4510 H   0  0  0  0  0  0  0  0  0  0  0  0
    0.1776   -1.0933   -3.3150 H   0  0  0  0  0  0  0  0  0  0  0  0
   -1.0951    0.1098   -3.1438 H   0  0  0  0  0  0  0  0  0  0  0  0
    0.5096    1.7328   -2.3483 H   0  0  0  0  0  0  0  0  0  0  0  0
    1.6411    0.6782   -3.2074 H   0  0  0  0  0  0  0  0  0  0  0  0
    5.0866   -0.2562   -0.4741 H   0  0  0  0  0  0  0  0  0  0  0  0
    6.1691   -0.9458    1.6689 H   0  0  0  0  0  0  0  0  0  0  0  0
    1.7066    1.2569    1.7358 H   0  0  0  0  0  0  0  0  0  0  0  0
    1.4756   -1.6510   -0.6920 H   0  0  0  0  0  0  0  0  0  0  0  0
    0.6992   -0.6376    0.5484 H   0  0  0  0  0  0  0  0  0  0  0  0
  1  2  1  0
  2  3  1  0
  3  4  1  0
  4  5  2  0
  4  6  1  0
  6  7  1  0
  7  8  1  0
  8  9  1  0
  9 10  1  0
 10 11  1  0
 11 12  1  0
  6 13  1  0
 13 14  1  0
 14 15  1  0
 15 16  1  0
 16 17  1  0
 17 18  2  0
 17 19  1  0
 19 20  2  0
 20 21  1  0
 21 22  2  0
 22 23  1  0
 22 24  1  0
 24 25  1  0
 24 26  2  0
 16 27  1  0
 12  7  1  0
 27 13  1  0
 26 19  1  0
  1 28  1  0
  1 29  1  0
  1 30  1  0
  3 31  1  0
  3 32  1  0
  7 33  1  0
  8 34  1  0
  8 35  1  0
  9 36  1  0
  9 37  1  0
 11 38  1  0
 11 39  1  0
 12 40  1  0
 12 41  1  0
 13 42  1  0
 14 43  1  0
 14 44  1  0
 15 45  1  0
 15 46  1  0
 20 47  1  0
 21 48  1  0
 26 49  1  0
 27 50  1  0
 27 51  1  0
M  END
$$$$
