
     RDKit          3D

 44 45  0  0  0  0  0  0  0  0999 V2000
    8.4520    1.5439    1.3911 O   0  0  0  0  0  0  0  0  0  0  0  0
    7.6759    2.6594    0.8586 S   0  0  0  0  0  6  0  0  0  0  0  0
    7.3485    3.7092    1.8204 O   0  0  0  0  0  0  0  0  0  0  0  0
    8.0828    3.1372   -0.4611 O   0  0  0  0  0  1  0  0  0  0  0  0
    6.0759    1.8782    0.5165 C   0  0  0  0  0  0  0  0  0  0  0  0
    5.9765    1.0020   -0.5652 C   0  0  0  0  0  0  0  0  0  0  0  0
    4.7459    0.4125   -0.8610 C   0  0  0  0  0  0  0  0  0  0  0  0
    3.6071    0.7001   -0.0866 C   0  0  0  0  0  0  0  0  0  0  0  0
    2.3559    0.1255   -0.3795 C   0  0  0  0  0  0  0  0  0  0  0  0
    1.2116    0.4151    0.3771 C   0  0  0  0  0  0  0  0  0  0  0  0
   -0.0060   -0.1793   -0.0280 N   0  0  0  0  0  0  0  0  0  0  0  0
   -0.9023   -0.1197    0.8415 N   0  0  0  0  0  0  0  0  0  0  0  0
   -2.1115   -0.6261    0.3268 C   0  0  0  0  0  0  0  0  0  0  0  0
   -2.4549   -1.9609    0.5215 C   0  0  0  0  0  0  0  0  0  0  0  0
   -3.6818   -2.4473    0.0437 C   0  0  0  0  0  0  0  0  0  0  0  0
   -4.1006   -4.1817    0.3744 S   0  0  0  0  0  6  0  0  0  0  0  0
   -4.2511   -4.7316   -0.9696 O   0  0  0  0  0  0  0  0  0  0  0  0
   -2.9536   -4.6854    1.1238 O   0  0  0  0  0  0  0  0  0  0  0  0
   -5.3333   -4.0581    1.1481 O   0  0  0  0  0  1  0  0  0  0  0  0
   -4.5975   -1.6070   -0.6501 C   0  0  0  0  0  0  0  0  0  0  0  0
   -5.8482   -1.9972   -1.1840 C   0  0  0  0  0  0  0  0  0  0  0  0
   -6.6668   -1.0861   -1.8407 C   0  0  0  0  0  0  0  0  0  0  0  0
   -6.2217    0.2122   -1.9513 C   0  0  0  0  0  0  0  0  0  0  0  0
   -5.0408    0.6455   -1.4623 N   0  0  0  0  0  0  0  0  0  0  0  0
   -4.2486   -0.2550   -0.8299 C   0  0  0  0  0  0  0  0  0  0  0  0
   -3.0288    0.2028   -0.3324 C   0  0  0  0  0  0  0  0  0  0  0  0
   -2.7378    1.5464   -0.5039 O   0  0  0  0  0  0  0  0  0  0  0  0
    1.3408    1.3064    1.4512 C   0  0  0  0  0  0  0  0  0  0  0  0
    2.5761    1.8836    1.7661 C   0  0  0  0  0  0  0  0  0  0  0  0
    3.7171    1.5936    1.0055 C   0  0  0  0  0  0  0  0  0  0  0  0
    4.9590    2.1787    1.3005 C   0  0  0  0  0  0  0  0  0  0  0  0
    0.0000    0.0000    0.0000 Na  0  0  0  0  0 15  0  0  0  0  0  0
    0.0000    0.0000    0.0000 Na  0  0  0  0  0 15  0  0  0  0  0  0
    6.8584    0.7915   -1.1652 H   0  0  0  0  0  0  0  0  0  0  0  0
    4.6819   -0.2690   -1.7048 H   0  0  0  0  0  0  0  0  0  0  0  0
    2.2582   -0.5576   -1.2204 H   0  0  0  0  0  0  0  0  0  0  0  0
   -1.7704   -2.6203    1.0508 H   0  0  0  0  0  0  0  0  0  0  0  0
   -6.1927   -3.0266   -1.0893 H   0  0  0  0  0  0  0  0  0  0  0  0
   -7.6225   -1.3940   -2.2472 H   0  0  0  0  0  0  0  0  0  0  0  0
   -6.8206    0.9658   -2.4524 H   0  0  0  0  0  0  0  0  0  0  0  0
   -3.5118    1.8833   -1.0018 H   0  0  0  0  0  0  0  0  0  0  0  0
    0.4727    1.5678    2.0501 H   0  0  0  0  0  0  0  0  0  0  0  0
    2.6386    2.5716    2.6062 H   0  0  0  0  0  0  0  0  0  0  0  0
    5.0683    2.8707    2.1327 H   0  0  0  0  0  0  0  0  0  0  0  0
  1  2  2  0
  2  3  2  0
  2  4  1  0
  2  5  1  0
  5  6  2  0
  6  7  1  0
  7  8  2  0
  8  9  1  0
  9 10  2  0
 10 11  1  0
 11 12  2  3
 12 13  1  0
 13 14  2  0
 14 15  1  0
 15 16  1  0
 16 17  2  0
 16 18  2  0
 16 19  1  0
 15 20  2  0
 20 21  1  0
 21 22  2  0
 22 23  1  0
 23 24  2  0
 24 25  1  0
 25 26  2  0
 26 27  1  0
 10 28  1  0
 28 29  2  0
 29 30  1  0
 30 31  2  0
 31  5  1  0
 30  8  1  0
 26 13  1  0
 25 20  1  0
  6 34  1  0
  7 35  1  0
  9 36  1  0
 14 37  1  0
 21 38  1  0
 22 39  1  0
 23 40  1  0
 27 41  1  0
 28 42  1  0
 29 43  1  0
 31 44  1  0
M  CHG  4   4  -1  19  -1  32   1  33   1
M  END
$$$$
