
     RDKit          3D

 39 42  0  0  0  0  0  0  0  0999 V2000
   -0.0779   -1.4997   -3.1385 O   0  0  0  0  0  0  0  0  0  0  0  0
   -0.5444   -1.8534   -2.0641 C   0  0  0  0  0  0  0  0  0  0  0  0
   -1.7992   -2.3438   -2.0289 O   0  0  0  0  0  0  0  0  0  0  0  0
    0.2102   -1.9499   -0.7415 C   0  0  2  0  0  0  0  0  0  0  0  0
   -0.6287   -1.9560    0.5476 C   0  0  0  0  0  0  0  0  0  0  0  0
   -1.2045   -0.6479    0.9971 C   0  0  0  0  0  0  0  0  0  0  0  0
   -0.5639    0.2946    1.7813 C   0  0  0  0  0  0  0  0  0  0  0  0
   -1.4117    1.3528    1.9634 N   0  0  0  0  0  0  0  0  0  0  0  0
   -2.6254    1.0978    1.3721 C   0  0  0  0  0  0  0  0  0  0  0  0
   -3.7882    1.8773    1.3340 C   0  0  0  0  0  0  0  0  0  0  0  0
   -4.8972    1.3562    0.6627 C   0  0  0  0  0  0  0  0  0  0  0  0
   -4.8431    0.1039    0.0580 C   0  0  0  0  0  0  0  0  0  0  0  0
   -3.6706   -0.6598    0.1039 C   0  0  0  0  0  0  0  0  0  0  0  0
   -2.5313   -0.1551    0.7651 C   0  0  0  0  0  0  0  0  0  0  0  0
    1.3476   -1.0319   -0.7285 N   0  0  0  0  0  0  0  0  0  0  0  0
    1.2773    0.3133   -0.9785 C   0  0  0  0  0  0  0  0  0  0  0  0
    0.3351    0.9951   -1.3309 O   0  0  0  0  0  0  0  0  0  0  0  0
    2.6139    0.8519   -0.7369 C   0  0  0  0  0  0  0  0  0  0  0  0
    3.0966    2.1396   -0.8644 C   0  0  0  0  0  0  0  0  0  0  0  0
    4.4411    2.3524   -0.5436 C   0  0  0  0  0  0  0  0  0  0  0  0
    5.2574    1.2882   -0.1059 C   0  0  0  0  0  0  0  0  0  0  0  0
    4.7431   -0.0066    0.0174 C   0  0  0  0  0  0  0  0  0  0  0  0
    3.4141   -0.1906   -0.3101 C   0  0  0  0  0  0  0  0  0  0  0  0
    2.5863   -1.3931   -0.2765 C   0  0  0  0  0  0  0  0  0  0  0  0
    2.9688   -2.4758    0.1247 O   0  0  0  0  0  0  0  0  0  0  0  0
   -2.1220   -2.1952   -2.9438 H   0  0  0  0  0  0  0  0  0  0  0  0
    0.6453   -2.9597   -0.7913 H   0  0  0  0  0  0  0  0  0  0  0  0
   -1.4389   -2.6907    0.4603 H   0  0  0  0  0  0  0  0  0  0  0  0
    0.0086   -2.3273    1.3632 H   0  0  0  0  0  0  0  0  0  0  0  0
    0.4295    0.3108    2.2087 H   0  0  0  0  0  0  0  0  0  0  0  0
   -1.1929    2.1952    2.4758 H   0  0  0  0  0  0  0  0  0  0  0  0
   -3.8335    2.8520    1.8082 H   0  0  0  0  0  0  0  0  0  0  0  0
   -5.8153    1.9370    0.6153 H   0  0  0  0  0  0  0  0  0  0  0  0
   -5.7180   -0.2874   -0.4546 H   0  0  0  0  0  0  0  0  0  0  0  0
   -3.6482   -1.6383   -0.3646 H   0  0  0  0  0  0  0  0  0  0  0  0
    2.4553    2.9474   -1.2020 H   0  0  0  0  0  0  0  0  0  0  0  0
    4.8649    3.3513   -0.6327 H   0  0  0  0  0  0  0  0  0  0  0  0
    6.3011    1.4795    0.1382 H   0  0  0  0  0  0  0  0  0  0  0  0
    5.3586   -0.8340    0.3552 H   0  0  0  0  0  0  0  0  0  0  0  0
  1  2  2  0
  2  3  1  0
  2  4  1  0
  4  5  1  0
  5  6  1  0
  6  7  2  0
  7  8  1  0
  8  9  1  0
  9 10  2  0
 10 11  1  0
 11 12  2  0
 12 13  1  0
 13 14  2  0
  4 15  1  0
 15 16  1  0
 16 17  2  0
 16 18  1  0
 18 19  2  0
 19 20  1  0
 20 21  2  0
 21 22  1  0
 22 23  2  0
 23 24  1  0
 24 25  2  0
 14  6  1  0
 24 15  1  0
 14  9  1  0
 23 18  1  0
  3 26  1  0
  4 27  1  6
  5 28  1  0
  5 29  1  0
  7 30  1  0
  8 31  1  0
 10 32  1  0
 11 33  1  0
 12 34  1  0
 13 35  1  0
 19 36  1  0
 20 37  1  0
 21 38  1  0
 22 39  1  0
M  END
$$$$
