
     RDKit          3D

 75 76  0  0  0  0  0  0  0  0999 V2000
    9.6992   -0.8468   -0.3185 C   0  0  0  0  0  0  0  0  0  0  0  0
    8.2409   -0.4437   -0.3732 C   0  0  0  0  0  0  0  0  0  0  0  0
    7.4625   -1.4515    0.4494 C   0  0  0  0  0  0  0  0  0  0  0  0
    6.0032   -1.1269    0.4501 C   0  0  0  0  0  0  0  0  0  0  0  0
    5.1816   -1.6599   -0.5220 C   0  0  0  0  0  0  0  0  0  0  0  0
    3.8137   -1.3615   -0.5316 C   0  0  0  0  0  0  0  0  0  0  0  0
    3.2671   -0.5342    0.4250 C   0  0  0  0  0  0  0  0  0  0  0  0
    1.8609   -0.2114    0.4374 C   0  0  0  0  0  0  0  0  0  0  0  0
    1.2069    0.0383    1.6440 C   0  0  0  0  0  0  0  0  0  0  0  0
   -0.1363    0.3473    1.6521 C   0  0  0  0  0  0  0  0  0  0  0  0
   -0.8620    0.4178    0.4866 C   0  0  0  0  0  0  0  0  0  0  0  0
   -2.2423    0.7314    0.4491 N   0  0  0  0  0  0  0  0  0  0  0  0
   -2.6625    2.0292    0.9328 C   0  0  0  0  0  0  0  0  0  0  0  0
   -2.6641    3.0334   -0.2006 C   0  0  1  0  0  0  0  0  0  0  0  0
   -3.5697    2.6226   -1.2431 N   0  0  0  0  0  0  0  0  0  0  0  0
   -3.0139    4.4306    0.2287 C   0  0  1  0  0  0  0  0  0  0  0  0
   -2.9670    5.2906   -1.0370 C   0  0  0  0  0  0  0  0  0  0  0  0
   -4.3704    4.4535    0.8496 C   0  0  0  0  0  0  0  0  0  0  0  0
   -4.7429    5.8681    1.2846 C   0  0  0  0  0  0  0  0  0  0  0  0
   -3.1691   -0.2030   -0.0441 C   0  0  0  0  0  0  0  0  0  0  0  0
   -4.4004    0.1158   -0.0677 O   0  0  0  0  0  0  0  0  0  0  0  0
   -2.8130   -1.5457   -0.5438 C   0  0  2  0  0  0  0  0  0  0  0  0
   -3.5060   -1.9843   -1.7817 C   0  0  0  0  0  0  0  0  0  0  0  0
   -3.7660   -2.6436   -0.4163 C   0  0  1  0  0  0  0  0  0  0  0  0
   -3.3997   -4.0646   -0.4134 C   0  0  0  0  0  0  0  0  0  0  0  0
   -4.2362   -5.0534    0.0462 C   0  0  0  0  0  0  0  0  0  0  0  0
   -3.8816   -6.3844    0.0454 C   0  0  0  0  0  0  0  0  0  0  0  0
   -2.6303   -6.7541   -0.4370 C   0  0  0  0  0  0  0  0  0  0  0  0
   -1.8101   -5.7431   -0.8922 C   0  0  0  0  0  0  0  0  0  0  0  0
   -2.1927   -4.4518   -0.8753 N   0  0  0  0  0  0  0  0  0  0  0  0
   -0.2114    0.1703   -0.7014 C   0  0  0  0  0  0  0  0  0  0  0  0
    1.1299   -0.1399   -0.7298 C   0  0  0  0  0  0  0  0  0  0  0  0
    4.0847    0.0001    1.3975 C   0  0  0  0  0  0  0  0  0  0  0  0
    5.4404   -0.2998    1.4014 C   0  0  0  0  0  0  0  0  0  0  0  0
    0.6839    0.0000    0.0000 Cl  0  0  0  0  0  0  0  0  0  0  0  0
    0.6850    0.0000    0.0000 Cl  0  0  0  0  0  0  0  0  0  0  0  0
    9.7896   -1.9535   -0.3141 H   0  0  0  0  0  0  0  0  0  0  0  0
   10.2934   -0.4054   -1.1470 H   0  0  0  0  0  0  0  0  0  0  0  0
   10.1542   -0.4853    0.6498 H   0  0  0  0  0  0  0  0  0  0  0  0
    8.1630    0.5807    0.0514 H   0  0  0  0  0  0  0  0  0  0  0  0
    7.9298   -0.4278   -1.4188 H   0  0  0  0  0  0  0  0  0  0  0  0
    7.6765   -2.4474    0.0384 H   0  0  0  0  0  0  0  0  0  0  0  0
    7.8857   -1.4309    1.4837 H   0  0  0  0  0  0  0  0  0  0  0  0
    5.5676   -2.3092   -1.2864 H   0  0  0  0  0  0  0  0  0  0  0  0
    3.1475   -1.7696   -1.2870 H   0  0  0  0  0  0  0  0  0  0  0  0
    1.7653   -0.0128    2.5831 H   0  0  0  0  0  0  0  0  0  0  0  0
   -0.6541    0.5434    2.5818 H   0  0  0  0  0  0  0  0  0  0  0  0
   -1.9821    2.4026    1.7256 H   0  0  0  0  0  0  0  0  0  0  0  0
   -3.6717    1.9811    1.4036 H   0  0  0  0  0  0  0  0  0  0  0  0
   -1.6191    3.0857   -0.6111 H   0  0  0  0  0  0  0  0  0  0  0  0
   -4.3428    3.2662   -1.4442 H   0  0  0  0  0  0  0  0  0  0  0  0
   -3.0402    2.3280   -2.1016 H   0  0  0  0  0  0  0  0  0  0  0  0
   -2.2498    4.8689    0.9091 H   0  0  0  0  0  0  0  0  0  0  0  0
   -2.1987    4.8773   -1.7032 H   0  0  0  0  0  0  0  0  0  0  0  0
   -3.9518    5.2624   -1.5615 H   0  0  0  0  0  0  0  0  0  0  0  0
   -2.7019    6.3273   -0.8083 H   0  0  0  0  0  0  0  0  0  0  0  0
   -4.3028    3.8421    1.7979 H   0  0  0  0  0  0  0  0  0  0  0  0
   -5.1712    4.0544    0.2311 H   0  0  0  0  0  0  0  0  0  0  0  0
   -3.8550    6.3613    1.7619 H   0  0  0  0  0  0  0  0  0  0  0  0
   -5.5005    5.7527    2.0831 H   0  0  0  0  0  0  0  0  0  0  0  0
   -5.1237    6.4063    0.4115 H   0  0  0  0  0  0  0  0  0  0  0  0
   -1.7337   -1.7946   -0.4950 H   0  0  0  0  0  0  0  0  0  0  0  0
   -4.3790   -1.4698   -2.1796 H   0  0  0  0  0  0  0  0  0  0  0  0
   -2.9249   -2.5262   -2.5351 H   0  0  0  0  0  0  0  0  0  0  0  0
   -4.7498   -2.4392    0.0562 H   0  0  0  0  0  0  0  0  0  0  0  0
   -5.2191   -4.7408    0.4224 H   0  0  0  0  0  0  0  0  0  0  0  0
   -4.5552   -7.1614    0.4127 H   0  0  0  0  0  0  0  0  0  0  0  0
   -2.3623   -7.7941   -0.4334 H   0  0  0  0  0  0  0  0  0  0  0  0
   -0.8323   -6.0612   -1.2657 H   0  0  0  0  0  0  0  0  0  0  0  0
   -0.7213    0.2079   -1.6651 H   0  0  0  0  0  0  0  0  0  0  0  0
    1.6214   -0.3328   -1.7002 H   0  0  0  0  0  0  0  0  0  0  0  0
    3.6420    0.6495    2.1437 H   0  0  0  0  0  0  0  0  0  0  0  0
    6.0642    0.1192    2.1589 H   0  0  0  0  0  0  0  0  0  0  0  0
   -0.6839    0.0000    0.0000 H   0  0  0  0  0  0  0  0  0  0  0  0
   -0.6850    0.0000    0.0000 H   0  0  0  0  0  0  0  0  0  0  0  0
  1  2  1  0
  2  3  1  0
  3  4  1  0
  4  5  2  0
  5  6  1  0
  6  7  2  0
  7  8  1  0
  8  9  2  0
  9 10  1  0
 10 11  2  0
 11 12  1  0
 12 13  1  0
 13 14  1  0
 14 15  1  0
 14 16  1  0
 16 17  1  0
 16 18  1  0
 18 19  1  0
 12 20  1  0
 20 21  2  0
 20 22  1  0
 22 23  1  0
 23 24  1  0
 24 25  1  0
 25 26  2  0
 26 27  1  0
 27 28  2  0
 28 29  1  0
 29 30  2  0
 11 31  1  0
 31 32  2  0
  7 33  1  0
 33 34  2  0
 34  4  1  0
 32  8  1  0
 24 22  1  0
 30 25  1  0
  1 37  1  0
  1 38  1  0
  1 39  1  0
  2 40  1  0
  2 41  1  0
  3 42  1  0
  3 43  1  0
  5 44  1  0
  6 45  1  0
  9 46  1  0
 10 47  1  0
 13 48  1  0
 13 49  1  0
 14 50  1  6
 15 51  1  0
 15 52  1  0
 16 53  1  1
 17 54  1  0
 17 55  1  0
 17 56  1  0
 18 57  1  0
 18 58  1  0
 19 59  1  0
 19 60  1  0
 19 61  1  0
 22 62  1  6
 23 63  1  0
 23 64  1  0
 24 65  1  1
 26 66  1  0
 27 67  1  0
 28 68  1  0
 29 69  1  0
 31 70  1  0
 32 71  1  0
 33 72  1  0
 34 73  1  0
 35 74  1  0
 36 75  1  0
M  END
$$$$
