
     RDKit          3D

 42 43  0  0  0  0  0  0  0  0999 V2000
   -2.9127   -1.3088   -0.6724 C   0  0  0  0  0  0  0  0  0  0  0  0
   -1.5822   -0.8248   -0.0562 C   0  0  0  0  0  0  0  0  0  0  0  0
   -0.5497   -0.6106   -1.0992 C   0  0  0  0  0  0  0  0  0  0  0  0
    0.7518   -0.1711   -0.5894 N   0  0  0  0  0  0  0  0  0  0  0  0
    1.5686   -1.1235    0.0912 C   0  0  0  0  0  0  0  0  0  0  0  0
    1.1792   -2.4725    0.1442 C   0  0  0  0  0  0  0  0  0  0  0  0
    1.9597   -3.4343    0.7533 C   0  0  0  0  0  0  0  0  0  0  0  0
    3.1566   -3.0923    1.3314 C   0  0  0  0  0  0  0  0  0  0  0  0
    3.5794   -1.7871    1.3036 C   0  0  0  0  0  0  0  0  0  0  0  0
    2.7795   -0.8482    0.6893 C   0  0  0  0  0  0  0  0  0  0  0  0
    3.3749    0.8381    0.6755 S   0  0  0  0  0  0  0  0  0  0  0  0
    2.2215    1.7696   -0.2679 C   0  0  0  0  0  0  0  0  0  0  0  0
    2.4929    3.0863   -0.4904 C   0  0  0  0  0  0  0  0  0  0  0  0
    1.6767    3.9365   -1.1944 C   0  0  0  0  0  0  0  0  0  0  0  0
    0.5134    3.3841   -1.6940 C   0  0  0  0  0  0  0  0  0  0  0  0
    0.2167    2.0506   -1.4812 C   0  0  0  0  0  0  0  0  0  0  0  0
    1.0646    1.2087   -0.7623 C   0  0  0  0  0  0  0  0  0  0  0  0
   -1.9246    0.2442    0.8078 N   0  0  0  0  0  0  0  0  0  0  0  0
   -2.5610    1.3830    0.2755 C   0  0  0  0  0  0  0  0  0  0  0  0
   -2.6519   -0.2658    1.9395 C   0  0  0  0  0  0  0  0  0  0  0  0
    0.6885    0.0000    0.0000 Cl  0  0  0  0  0  0  0  0  0  0  0  0
   -3.6271   -1.4317    0.1420 H   0  0  0  0  0  0  0  0  0  0  0  0
   -3.2021   -0.5953   -1.4538 H   0  0  0  0  0  0  0  0  0  0  0  0
   -2.7672   -2.3254   -1.1248 H   0  0  0  0  0  0  0  0  0  0  0  0
   -1.3077   -1.6767    0.6337 H   0  0  0  0  0  0  0  0  0  0  0  0
   -0.8853   -0.0367   -1.9721 H   0  0  0  0  0  0  0  0  0  0  0  0
   -0.3867   -1.6491   -1.5580 H   0  0  0  0  0  0  0  0  0  0  0  0
    0.2723   -2.8171   -0.3079 H   0  0  0  0  0  0  0  0  0  0  0  0
    1.5818   -4.4547    0.7494 H   0  0  0  0  0  0  0  0  0  0  0  0
    3.7425   -3.8664    1.7989 H   0  0  0  0  0  0  0  0  0  0  0  0
    4.5201   -1.4718    1.7482 H   0  0  0  0  0  0  0  0  0  0  0  0
    3.4129    3.5422   -0.1003 H   0  0  0  0  0  0  0  0  0  0  0  0
    1.8858    4.9816   -1.3746 H   0  0  0  0  0  0  0  0  0  0  0  0
   -0.1544    4.0238   -2.2539 H   0  0  0  0  0  0  0  0  0  0  0  0
   -0.7005    1.7196   -1.9001 H   0  0  0  0  0  0  0  0  0  0  0  0
   -1.9079    2.2792    0.4359 H   0  0  0  0  0  0  0  0  0  0  0  0
   -3.5373    1.5399    0.8316 H   0  0  0  0  0  0  0  0  0  0  0  0
   -2.7737    1.3581   -0.8160 H   0  0  0  0  0  0  0  0  0  0  0  0
   -3.7535   -0.1926    1.7886 H   0  0  0  0  0  0  0  0  0  0  0  0
   -2.4286    0.4103    2.8097 H   0  0  0  0  0  0  0  0  0  0  0  0
   -2.3372   -1.2993    2.2201 H   0  0  0  0  0  0  0  0  0  0  0  0
   -0.6885    0.0000    0.0000 H   0  0  0  0  0  0  0  0  0  0  0  0
  1  2  1  0
  2  3  1  0
  3  4  1  0
  4  5  1  0
  5  6  2  0
  6  7  1  0
  7  8  2  0
  8  9  1  0
  9 10  2  0
 10 11  1  0
 11 12  1  0
 12 13  2  0
 13 14  1  0
 14 15  2  0
 15 16  1  0
 16 17  2  0
  2 18  1  0
 18 19  1  0
 18 20  1  0
 17  4  1  0
 10  5  1  0
 17 12  1  0
  1 22  1  0
  1 23  1  0
  1 24  1  0
  2 25  1  0
  3 26  1  0
  3 27  1  0
  6 28  1  0
  7 29  1  0
  8 30  1  0
  9 31  1  0
 13 32  1  0
 14 33  1  0
 15 34  1  0
 16 35  1  0
 19 36  1  0
 19 37  1  0
 19 38  1  0
 20 39  1  0
 20 40  1  0
 20 41  1  0
 21 42  1  0
M  END
$$$$
