
     RDKit          3D

 43 46  0  0  0  0  0  0  0  0999 V2000
    2.6653   -1.9745    1.4984 O   0  0  0  0  0  0  0  0  0  0  0  0
    2.1946   -0.9108    1.1003 C   0  0  0  0  0  0  0  0  0  0  0  0
    2.9045    0.2751    1.1783 N   0  0  0  0  0  0  0  0  0  0  0  0
    4.2860    0.2994    1.5979 C   0  0  0  0  0  0  0  0  0  0  0  0
    5.1992    0.4287    0.4063 C   0  0  0  0  0  0  0  0  0  0  0  0
    5.7373    1.6717    0.0441 C   0  0  0  0  0  0  0  0  0  0  0  0
    6.5649    1.7845   -1.0747 C   0  0  0  0  0  0  0  0  0  0  0  0
    6.8569    0.6597   -1.8444 C   0  0  0  0  0  0  0  0  0  0  0  0
    6.3213   -0.5793   -1.4981 C   0  0  0  0  0  0  0  0  0  0  0  0
    5.4948   -0.6947   -0.3798 C   0  0  0  0  0  0  0  0  0  0  0  0
    0.8472   -0.7955    0.4955 C   0  0  0  0  0  0  0  0  0  0  0  0
    0.1342    0.4014    0.1109 C   0  0  0  0  0  0  0  0  0  0  0  0
   -1.0502   -0.0523   -0.3955 C   0  0  0  0  0  0  0  0  0  0  0  0
   -1.0154   -1.3938   -0.2693 N   0  0  0  0  0  0  0  0  0  0  0  0
    0.1043   -1.8978    0.2221 N   0  0  0  0  0  0  0  0  0  0  0  0
   -2.1797   -2.0935   -0.7746 C   0  0  0  0  0  0  0  0  0  0  0  0
   -3.1793   -0.9263   -0.9784 C   0  0  1  0  0  0  0  0  0  0  0  0
   -4.0681   -0.9140    0.1501 O   0  0  0  0  0  0  0  0  0  0  0  0
   -5.2604   -0.2624    0.0348 C   0  0  0  0  0  0  0  0  0  0  0  0
   -5.6970    0.4977   -1.0459 C   0  0  0  0  0  0  0  0  0  0  0  0
   -6.9528    1.1055   -0.9977 C   0  0  0  0  0  0  0  0  0  0  0  0
   -7.7312    0.9338    0.1353 C   0  0  0  0  0  0  0  0  0  0  0  0
   -7.3415    0.2097    1.2030 N   0  0  0  0  0  0  0  0  0  0  0  0
   -6.1177   -0.3671    1.1264 C   0  0  0  0  0  0  0  0  0  0  0  0
   -2.3172    0.3810   -1.0116 C   0  0  0  0  0  0  0  0  0  0  0  0
    2.5648    1.0803    0.6779 H   0  0  0  0  0  0  0  0  0  0  0  0
    4.4044    1.1617    2.2634 H   0  0  0  0  0  0  0  0  0  0  0  0
    4.5435   -0.5934    2.1783 H   0  0  0  0  0  0  0  0  0  0  0  0
    5.5196    2.5599    0.6326 H   0  0  0  0  0  0  0  0  0  0  0  0
    6.9834    2.7502   -1.3463 H   0  0  0  0  0  0  0  0  0  0  0  0
    7.5018    0.7478   -2.7147 H   0  0  0  0  0  0  0  0  0  0  0  0
    6.5451   -1.4575   -2.0982 H   0  0  0  0  0  0  0  0  0  0  0  0
    5.0768   -1.6672   -0.1215 H   0  0  0  0  0  0  0  0  0  0  0  0
    0.4537    1.4289    0.1979 H   0  0  0  0  0  0  0  0  0  0  0  0
   -2.4999   -2.8328   -0.0365 H   0  0  0  0  0  0  0  0  0  0  0  0
   -1.8863   -2.5571   -1.7209 H   0  0  0  0  0  0  0  0  0  0  0  0
   -3.7415   -1.0938   -1.9042 H   0  0  0  0  0  0  0  0  0  0  0  0
   -5.0938    0.6464   -1.9337 H   0  0  0  0  0  0  0  0  0  0  0  0
   -7.3159    1.7028   -1.8271 H   0  0  0  0  0  0  0  0  0  0  0  0
   -8.7145    1.3883    0.2160 H   0  0  0  0  0  0  0  0  0  0  0  0
   -5.8290   -0.9424    2.0023 H   0  0  0  0  0  0  0  0  0  0  0  0
   -2.7747    1.2049   -0.4574 H   0  0  0  0  0  0  0  0  0  0  0  0
   -2.1373    0.6868   -2.0476 H   0  0  0  0  0  0  0  0  0  0  0  0
  1  2  2  0
  2  3  1  0
  3  4  1  0
  4  5  1  0
  5  6  2  0
  6  7  1  0
  7  8  2  0
  8  9  1  0
  9 10  2  0
  2 11  1  0
 11 12  1  0
 12 13  2  0
 13 14  1  0
 14 15  1  0
 14 16  1  0
 16 17  1  0
 17 18  1  0
 18 19  1  0
 19 20  2  0
 20 21  1  0
 21 22  2  0
 22 23  1  0
 23 24  2  0
 17 25  1  0
 10  5  1  0
 15 11  2  0
 24 19  1  0
 25 13  1  0
  3 26  1  0
  4 27  1  0
  4 28  1  0
  6 29  1  0
  7 30  1  0
  8 31  1  0
  9 32  1  0
 10 33  1  0
 12 34  1  0
 16 35  1  0
 16 36  1  0
 17 37  1  6
 20 38  1  0
 21 39  1  0
 22 40  1  0
 24 41  1  0
 25 42  1  0
 25 43  1  0
M  END
$$$$
