
     RDKit          3D

 50 53  0  0  0  0  0  0  0  0999 V2000
   -0.6790    0.0881   -1.6444 O   0  0  0  0  0  0  0  0  0  0  0  0
   -1.2242    0.5310   -0.6376 C   0  0  0  0  0  0  0  0  0  0  0  0
   -0.5535    0.9729    0.5028 N   0  0  0  0  0  0  0  0  0  0  0  0
    0.8374    1.0173    0.7259 C   0  0  0  0  0  0  0  0  0  0  0  0
    1.2632    1.4198    2.0007 C   0  0  0  0  0  0  0  0  0  0  0  0
    2.6241    1.4934    2.3125 C   0  0  0  0  0  0  0  0  0  0  0  0
    3.5691    1.1565    1.3430 C   0  0  0  0  0  0  0  0  0  0  0  0
    5.3022    1.2732    1.7064 S   0  0  0  0  0  6  0  0  0  0  0  0
    5.4364    1.9531    2.9808 O   0  0  0  0  0  0  0  0  0  0  0  0
    5.9896    1.7746    0.5371 O   0  0  0  0  0  0  0  0  0  0  0  0
    5.7025   -0.3279    2.0273 N   0  0  0  0  0  0  0  0  0  0  0  0
    6.4671   -0.9372    0.9670 C   0  0  0  0  0  0  0  0  0  0  0  0
    5.8972   -1.2898   -0.1574 N   0  0  0  0  0  0  0  0  0  0  0  0
    6.8430   -1.8750   -0.9767 C   0  0  0  0  0  0  0  0  0  0  0  0
    8.1077   -1.9909   -0.4382 C   0  0  0  0  0  0  0  0  0  0  0  0
    8.1138   -1.3473    1.1528 S   0  0  0  0  0  0  0  0  0  0  0  0
    3.1613    0.7709    0.0653 C   0  0  0  0  0  0  0  0  0  0  0  0
    1.7970    0.6983   -0.2379 C   0  0  0  0  0  0  0  0  0  0  0  0
   -2.7613    0.6808   -0.5024 C   0  0  0  0  0  0  0  0  0  0  0  0
   -3.3321   -0.0914    0.6894 C   0  0  0  0  0  0  0  0  0  0  0  0
   -4.3406    0.4895    1.4764 C   0  0  0  0  0  0  0  0  0  0  0  0
   -4.8746   -0.1966    2.5684 C   0  0  0  0  0  0  0  0  0  0  0  0
   -4.4147   -1.4729    2.8839 C   0  0  0  0  0  0  0  0  0  0  0  0
   -3.4257   -2.0681    2.1042 C   0  0  0  0  0  0  0  0  0  0  0  0
   -2.8903   -1.3856    1.0107 C   0  0  0  0  0  0  0  0  0  0  0  0
   -3.5467    0.4127   -1.7842 C   0  0  0  0  0  0  0  0  0  0  0  0
   -4.4135    1.3961   -2.2924 C   0  0  0  0  0  0  0  0  0  0  0  0
   -5.1623    1.1613   -3.4476 C   0  0  0  0  0  0  0  0  0  0  0  0
   -5.0598   -0.0593   -4.1098 C   0  0  0  0  0  0  0  0  0  0  0  0
   -4.2095   -1.0461   -3.6176 C   0  0  0  0  0  0  0  0  0  0  0  0
   -3.4608   -0.8138   -2.4619 C   0  0  0  0  0  0  0  0  0  0  0  0
   -1.1354    1.2269    1.2933 H   0  0  0  0  0  0  0  0  0  0  0  0
    0.5414    1.6817    2.7708 H   0  0  0  0  0  0  0  0  0  0  0  0
    2.9311    1.8136    3.3053 H   0  0  0  0  0  0  0  0  0  0  0  0
    6.1423   -0.3896    2.9418 H   0  0  0  0  0  0  0  0  0  0  0  0
    6.5532   -2.2074   -1.9664 H   0  0  0  0  0  0  0  0  0  0  0  0
    8.9958   -2.4132   -0.8856 H   0  0  0  0  0  0  0  0  0  0  0  0
    3.8939    0.5211   -0.7002 H   0  0  0  0  0  0  0  0  0  0  0  0
    1.5208    0.3932   -1.2427 H   0  0  0  0  0  0  0  0  0  0  0  0
   -2.8843    1.7520   -0.2750 H   0  0  0  0  0  0  0  0  0  0  0  0
   -4.7264    1.4786    1.2379 H   0  0  0  0  0  0  0  0  0  0  0  0
   -5.6574    0.2611    3.1681 H   0  0  0  0  0  0  0  0  0  0  0  0
   -4.8350   -2.0092    3.7308 H   0  0  0  0  0  0  0  0  0  0  0  0
   -3.0752   -3.0693    2.3426 H   0  0  0  0  0  0  0  0  0  0  0  0
   -2.1263   -1.8785    0.4115 H   0  0  0  0  0  0  0  0  0  0  0  0
   -4.5150    2.3565   -1.7925 H   0  0  0  0  0  0  0  0  0  0  0  0
   -5.8257    1.9320   -3.8312 H   0  0  0  0  0  0  0  0  0  0  0  0
   -5.6400   -0.2415   -5.0102 H   0  0  0  0  0  0  0  0  0  0  0  0
   -4.1236   -1.9982   -4.1346 H   0  0  0  0  0  0  0  0  0  0  0  0
   -2.7971   -1.5974   -2.1030 H   0  0  0  0  0  0  0  0  0  0  0  0
  1  2  2  0
  2  3  1  0
  3  4  1  0
  4  5  2  0
  5  6  1  0
  6  7  2  0
  7  8  1  0
  8  9  2  0
  8 10  2  0
  8 11  1  0
 11 12  1  0
 12 13  2  0
 13 14  1  0
 14 15  2  0
 15 16  1  0
  7 17  1  0
 17 18  2  0
  2 19  1  0
 19 20  1  0
 20 21  2  0
 21 22  1  0
 22 23  2  0
 23 24  1  0
 24 25  2  0
 19 26  1  0
 26 27  2  0
 27 28  1  0
 28 29  2  0
 29 30  1  0
 30 31  2  0
 18  4  1  0
 25 20  1  0
 31 26  1  0
 16 12  1  0
  3 32  1  0
  5 33  1  0
  6 34  1  0
 11 35  1  0
 14 36  1  0
 15 37  1  0
 17 38  1  0
 18 39  1  0
 19 40  1  0
 21 41  1  0
 22 42  1  0
 23 43  1  0
 24 44  1  0
 25 45  1  0
 27 46  1  0
 28 47  1  0
 29 48  1  0
 30 49  1  0
 31 50  1  0
M  END
$$$$
