
     RDKit          3D

 98101  0  0  0  0  0  0  0  0999 V2000
   10.7028    1.7443   -0.8295 C   0  0  0  0  0  0  0  0  0  0  0  0
   10.0656    0.5323   -0.1441 C   0  0  0  0  0  0  0  0  0  0  0  0
   10.6124    0.3713    1.2771 C   0  0  0  0  0  0  0  0  0  0  0  0
    8.5634    0.6596   -0.1082 C   0  0  0  0  0  0  0  0  0  0  0  0
    7.9173    1.7595    0.2224 N   0  0  0  0  0  0  0  0  0  0  0  0
    6.5433    1.5348    0.2096 C   0  0  0  0  0  0  0  0  0  0  0  0
    5.6302    2.6589    0.5970 C   0  0  0  0  0  0  0  0  0  0  0  0
    4.4868    2.7487   -0.3102 N   0  0  0  0  0  0  0  0  0  0  0  0
    4.7152    3.4267   -1.5783 C   0  0  0  0  0  0  0  0  0  0  0  0
    3.2689    2.2926    0.1506 C   0  0  0  0  0  0  0  0  0  0  0  0
    3.1571    1.6599    1.1995 O   0  0  0  0  0  0  0  0  0  0  0  0
    2.1795    2.6155   -0.6052 N   0  0  0  0  0  0  0  0  0  0  0  0
    0.8219    2.2144   -0.2328 C   0  0  2  0  0  0  0  0  0  0  0  0
    0.1803    1.6938   -1.5362 C   0  0  0  0  0  0  0  0  0  0  0  0
    0.3092    2.2848   -2.6106 O   0  0  0  0  0  0  0  0  0  0  0  0
   -0.5564    0.5411   -1.3904 N   0  0  0  0  0  0  0  0  0  0  0  0
   -1.4293    0.0157   -2.4369 C   0  0  1  0  0  0  0  0  0  0  0  0
   -0.6540   -0.5508   -3.6537 C   0  0  0  0  0  0  0  0  0  0  0  0
    0.1324   -1.8162   -3.3936 C   0  0  0  0  0  0  0  0  0  0  0  0
   -0.3423   -3.0540   -3.8493 C   0  0  0  0  0  0  0  0  0  0  0  0
    0.3762   -4.2238   -3.5908 C   0  0  0  0  0  0  0  0  0  0  0  0
    1.5739   -4.1670   -2.8808 C   0  0  0  0  0  0  0  0  0  0  0  0
    2.0590   -2.9406   -2.4287 C   0  0  0  0  0  0  0  0  0  0  0  0
    1.3429   -1.7708   -2.6878 C   0  0  0  0  0  0  0  0  0  0  0  0
   -2.4309   -1.0175   -1.8580 C   0  0  0  0  0  0  0  0  0  0  0  0
   -3.2736   -0.4569   -0.6995 C   0  0  2  0  0  0  0  0  0  0  0  0
   -2.3774   -0.1594    0.3910 O   0  0  0  0  0  0  0  0  0  0  0  0
   -4.3719   -1.4233   -0.1834 C   0  0  2  0  0  0  0  0  0  0  0  0
   -5.4199   -1.7578   -1.2663 C   0  0  0  0  0  0  0  0  0  0  0  0
   -6.6403   -2.4833   -0.7484 C   0  0  0  0  0  0  0  0  0  0  0  0
   -6.5267   -3.7497   -0.1579 C   0  0  0  0  0  0  0  0  0  0  0  0
   -7.6537   -4.3990    0.3479 C   0  0  0  0  0  0  0  0  0  0  0  0
   -8.9065   -3.7946    0.2593 C   0  0  0  0  0  0  0  0  0  0  0  0
   -9.0343   -2.5408   -0.3356 C   0  0  0  0  0  0  0  0  0  0  0  0
   -7.9075   -1.8884   -0.8380 C   0  0  0  0  0  0  0  0  0  0  0  0
   -5.0018   -0.8030    0.9902 N   0  0  0  0  0  0  0  0  0  0  0  0
   -5.0818   -1.4058    2.2072 C   0  0  0  0  0  0  0  0  0  0  0  0
   -4.5247   -2.4452    2.5222 O   0  0  0  0  0  0  0  0  0  0  0  0
   -5.8444   -0.6393    3.0171 O   0  0  0  0  0  0  0  0  0  0  0  0
   -5.9456   -1.0944    4.3728 C   0  0  0  0  0  0  0  0  0  0  0  0
   -4.8701   -0.4120    5.1488 C   0  0  0  0  0  0  0  0  0  0  0  0
   -3.6639   -0.9185    5.5887 C   0  0  0  0  0  0  0  0  0  0  0  0
   -2.8601   -0.0368    6.2866 N   0  0  0  0  0  0  0  0  0  0  0  0
   -3.4599    1.1325    6.3599 C   0  0  0  0  0  0  0  0  0  0  0  0
   -5.0013    1.2388    5.6181 S   0  0  0  0  0  0  0  0  0  0  0  0
    0.0141    3.4104    0.3324 C   0  0  0  0  0  0  0  0  0  0  0  0
   -1.4099    3.0088    0.7331 C   0  0  0  0  0  0  0  0  0  0  0  0
    0.7032    4.0463    1.5467 C   0  0  0  0  0  0  0  0  0  0  0  0
    6.1767    0.2447   -0.1370 C   0  0  0  0  0  0  0  0  0  0  0  0
    7.5645   -0.6950   -0.4788 S   0  0  0  0  0  0  0  0  0  0  0  0
   10.4781    2.6706   -0.2916 H   0  0  0  0  0  0  0  0  0  0  0  0
   11.7909    1.6387   -0.8737 H   0  0  0  0  0  0  0  0  0  0  0  0
   10.3321    1.8518   -1.8543 H   0  0  0  0  0  0  0  0  0  0  0  0
   10.3482   -0.3556   -0.7222 H   0  0  0  0  0  0  0  0  0  0  0  0
   10.1872   -0.5136    1.7647 H   0  0  0  0  0  0  0  0  0  0  0  0
   11.7019    0.2524    1.2633 H   0  0  0  0  0  0  0  0  0  0  0  0
   10.3753    1.2399    1.9014 H   0  0  0  0  0  0  0  0  0  0  0  0
    5.3029    2.5110    1.6332 H   0  0  0  0  0  0  0  0  0  0  0  0
    6.1631    3.6182    0.5684 H   0  0  0  0  0  0  0  0  0  0  0  0
    4.0731    3.0179   -2.3620 H   0  0  0  0  0  0  0  0  0  0  0  0
    4.5029    4.4922   -1.4480 H   0  0  0  0  0  0  0  0  0  0  0  0
    5.7558    3.2995   -1.8958 H   0  0  0  0  0  0  0  0  0  0  0  0
    2.2745    3.0926   -1.4879 H   0  0  0  0  0  0  0  0  0  0  0  0
    0.8692    1.4025    0.5027 H   0  0  0  0  0  0  0  0  0  0  0  0
   -0.8220    0.2828   -0.4400 H   0  0  0  0  0  0  0  0  0  0  0  0
   -2.0079    0.8751   -2.8024 H   0  0  0  0  0  0  0  0  0  0  0  0
    0.0351    0.2023   -4.0537 H   0  0  0  0  0  0  0  0  0  0  0  0
   -1.3729   -0.7401   -4.4620 H   0  0  0  0  0  0  0  0  0  0  0  0
   -1.2754   -3.1173   -4.4046 H   0  0  0  0  0  0  0  0  0  0  0  0
   -0.0017   -5.1810   -3.9418 H   0  0  0  0  0  0  0  0  0  0  0  0
    2.1294   -5.0799   -2.6814 H   0  0  0  0  0  0  0  0  0  0  0  0
    2.9929   -2.8944   -1.8746 H   0  0  0  0  0  0  0  0  0  0  0  0
    1.7353   -0.8209   -2.3301 H   0  0  0  0  0  0  0  0  0  0  0  0
   -3.0796   -1.3509   -2.6745 H   0  0  0  0  0  0  0  0  0  0  0  0
   -1.8834   -1.8914   -1.4847 H   0  0  0  0  0  0  0  0  0  0  0  0
   -3.7319    0.4942   -0.9972 H   0  0  0  0  0  0  0  0  0  0  0  0
   -2.9061   -0.2068    1.2129 H   0  0  0  0  0  0  0  0  0  0  0  0
   -3.8878   -2.3494    0.1517 H   0  0  0  0  0  0  0  0  0  0  0  0
   -5.7368   -0.8300   -1.7577 H   0  0  0  0  0  0  0  0  0  0  0  0
   -4.9718   -2.3773   -2.0503 H   0  0  0  0  0  0  0  0  0  0  0  0
   -5.5569   -4.2355   -0.0689 H   0  0  0  0  0  0  0  0  0  0  0  0
   -7.5548   -5.3781    0.8107 H   0  0  0  0  0  0  0  0  0  0  0  0
   -9.7832   -4.3013    0.6548 H   0  0  0  0  0  0  0  0  0  0  0  0
  -10.0124   -2.0708   -0.4057 H   0  0  0  0  0  0  0  0  0  0  0  0
   -8.0298   -0.9080   -1.2909 H   0  0  0  0  0  0  0  0  0  0  0  0
   -5.6012    0.0034    0.8747 H   0  0  0  0  0  0  0  0  0  0  0  0
   -6.9360   -0.8070    4.7463 H   0  0  0  0  0  0  0  0  0  0  0  0
   -5.8871   -2.1864    4.4542 H   0  0  0  0  0  0  0  0  0  0  0  0
   -3.3136   -1.9307    5.4212 H   0  0  0  0  0  0  0  0  0  0  0  0
   -3.0107    1.9833    6.8554 H   0  0  0  0  0  0  0  0  0  0  0  0
   -0.0668    4.1844   -0.4445 H   0  0  0  0  0  0  0  0  0  0  0  0
   -1.9517    3.8730    1.1358 H   0  0  0  0  0  0  0  0  0  0  0  0
   -1.4022    2.2261    1.5006 H   0  0  0  0  0  0  0  0  0  0  0  0
   -1.9809    2.6446   -0.1242 H   0  0  0  0  0  0  0  0  0  0  0  0
    1.6750    4.4682    1.2751 H   0  0  0  0  0  0  0  0  0  0  0  0
    0.8558    3.3129    2.3465 H   0  0  0  0  0  0  0  0  0  0  0  0
    0.0968    4.8659    1.9508 H   0  0  0  0  0  0  0  0  0  0  0  0
    5.1808   -0.1688   -0.2075 H   0  0  0  0  0  0  0  0  0  0  0  0
  1  2  1  0
  2  3  1  0
  2  4  1  0
  4  5  2  0
  5  6  1  0
  6  7  1  0
  7  8  1  0
  8  9  1  0
  8 10  1  0
 10 11  2  0
 10 12  1  0
 12 13  1  0
 13 14  1  0
 14 15  2  0
 14 16  1  0
 16 17  1  0
 17 18  1  0
 18 19  1  0
 19 20  2  0
 20 21  1  0
 21 22  2  0
 22 23  1  0
 23 24  2  0
 17 25  1  0
 25 26  1  0
 26 27  1  0
 26 28  1  0
 28 29  1  0
 29 30  1  0
 30 31  2  0
 31 32  1  0
 32 33  2  0
 33 34  1  0
 34 35  2  0
 28 36  1  0
 36 37  1  0
 37 38  2  0
 37 39  1  0
 39 40  1  0
 40 41  1  0
 41 42  2  0
 42 43  1  0
 43 44  2  0
 44 45  1  0
 13 46  1  0
 46 47  1  0
 46 48  1  0
  6 49  2  0
 49 50  1  0
 50  4  1  0
 24 19  1  0
 35 30  1  0
 45 41  1  0
  1 51  1  0
  1 52  1  0
  1 53  1  0
  2 54  1  0
  3 55  1  0
  3 56  1  0
  3 57  1  0
  7 58  1  0
  7 59  1  0
  9 60  1  0
  9 61  1  0
  9 62  1  0
 12 63  1  0
 13 64  1  1
 16 65  1  0
 17 66  1  6
 18 67  1  0
 18 68  1  0
 20 69  1  0
 21 70  1  0
 22 71  1  0
 23 72  1  0
 24 73  1  0
 25 74  1  0
 25 75  1  0
 26 76  1  6
 27 77  1  0
 28 78  1  1
 29 79  1  0
 29 80  1  0
 31 81  1  0
 32 82  1  0
 33 83  1  0
 34 84  1  0
 35 85  1  0
 36 86  1  0
 40 87  1  0
 40 88  1  0
 42 89  1  0
 44 90  1  0
 46 91  1  0
 47 92  1  0
 47 93  1  0
 47 94  1  0
 48 95  1  0
 48 96  1  0
 48 97  1  0
 49 98  1  0
M  END
$$$$
