
     RDKit          3D

 19 17  0  0  0  0  0  0  0  0999 V2000
   -0.9359   -1.6619    0.2456 N   0  0  0  0  0  0  0  0  0  0  0  0
   -0.6092   -0.2162    0.4176 C   0  0  1  0  0  0  0  0  0  0  0  0
    0.2360    0.2819   -0.7638 C   0  0  0  0  0  0  0  0  0  0  0  0
    1.6465   -0.3062   -0.8077 C   0  0  0  0  0  0  0  0  0  0  0  0
    2.5950    0.1718    0.2956 C   0  0  0  0  0  0  0  0  0  0  0  0
    2.1475    1.0570    1.0764 O   0  0  0  0  0  0  0  0  0  0  0  0
    3.7349   -0.3749    0.2765 O   0  0  0  0  0  1  0  0  0  0  0  0
   -1.9225    0.5780    0.5177 C   0  0  0  0  0  0  0  0  0  0  0  0
   -3.0537    0.1059    0.4870 O   0  0  0  0  0  0  0  0  0  0  0  0
   -1.7641    1.9037    0.6852 O   0  0  0  0  0  0  0  0  0  0  0  0
    0.0000    0.0000    0.0000 Na  0  0  0  0  0 15  0  0  0  0  0  0
   -1.5038   -1.7531   -0.5955 H   0  0  0  0  0  0  0  0  0  0  0  0
   -1.5498   -1.9261    1.0157 H   0  0  0  0  0  0  0  0  0  0  0  0
   -0.0922   -0.1036    1.3749 H   0  0  0  0  0  0  0  0  0  0  0  0
   -0.2761    0.0423   -1.7057 H   0  0  0  0  0  0  0  0  0  0  0  0
    0.3055    1.3768   -0.7416 H   0  0  0  0  0  0  0  0  0  0  0  0
    2.1072   -0.0234   -1.7628 H   0  0  0  0  0  0  0  0  0  0  0  0
    1.6070   -1.4014   -0.7868 H   0  0  0  0  0  0  0  0  0  0  0  0
   -2.6725    2.2494    0.7720 H   0  0  0  0  0  0  0  0  0  0  0  0
  1  2  1  0
  2  3  1  0
  3  4  1  0
  4  5  1  0
  5  6  2  0
  5  7  1  0
  2  8  1  0
  8  9  2  0
  8 10  1  0
  1 12  1  0
  1 13  1  0
  2 14  1  1
  3 15  1  0
  3 16  1  0
  4 17  1  0
  4 18  1  0
 10 19  1  0
M  CHG  2   7  -1  11   1
M  END
$$$$
