
     RDKit          3D

 43 46  0  0  0  0  0  0  0  0999 V2000
    3.6916   -0.8569    1.4314 O   0  0  0  0  0  0  0  0  0  0  0  0
    3.6615   -0.2317    0.3764 C   0  0  0  0  0  0  0  0  0  0  0  0
    2.5164    0.1781   -0.2831 N   0  0  0  0  0  0  0  0  0  0  0  0
    1.1743   -0.0277    0.1026 C   0  0  0  0  0  0  0  0  0  0  0  0
    0.1903    0.4864   -0.7379 C   0  0  0  0  0  0  0  0  0  0  0  0
   -1.1585    0.3214   -0.4208 C   0  0  0  0  0  0  0  0  0  0  0  0
   -1.5624   -0.3661    0.7518 C   0  0  0  0  0  0  0  0  0  0  0  0
   -2.8920   -0.5955    1.1772 C   0  0  0  0  0  0  0  0  0  0  0  0
   -4.0276   -0.1759    0.5007 N   0  0  0  0  0  0  0  0  0  0  0  0
   -4.2940    1.2662    0.5001 C   0  0  0  0  0  0  0  0  0  0  0  0
   -5.7307    1.5137    0.0105 C   0  0  0  0  0  0  0  0  0  0  0  0
   -5.9559    0.9090   -1.2767 O   0  0  0  0  0  0  0  0  0  0  0  0
   -5.7649   -0.5157   -1.1910 C   0  0  0  0  0  0  0  0  0  0  0  0
   -4.3298   -0.8617   -0.7598 C   0  0  0  0  0  0  0  0  0  0  0  0
   -3.1674   -1.2627    2.3119 N   0  0  0  0  0  0  0  0  0  0  0  0
   -2.1301   -1.7024    3.0251 C   0  0  0  0  0  0  0  0  0  0  0  0
   -0.8406   -1.5437    2.7202 N   0  0  0  0  0  0  0  0  0  0  0  0
   -0.5643   -0.8816    1.5941 C   0  0  0  0  0  0  0  0  0  0  0  0
    0.7763   -0.7045    1.2570 C   0  0  0  0  0  0  0  0  0  0  0  0
    4.9666    0.1248   -0.2630 C   0  0  0  0  0  0  0  0  0  0  0  0
    6.1533   -0.2728    0.3747 C   0  0  0  0  0  0  0  0  0  0  0  0
    7.3996    0.0346   -0.1798 C   0  0  0  0  0  0  0  0  0  0  0  0
    7.4758    0.7426   -1.3778 C   0  0  0  0  0  0  0  0  0  0  0  0
    6.3061    1.1430   -2.0205 C   0  0  0  0  0  0  0  0  0  0  0  0
    5.0653    0.8337   -1.4630 C   0  0  0  0  0  0  0  0  0  0  0  0
    3.9665    1.2405   -2.1187 F   0  0  0  0  0  0  0  0  0  0  0  0
    2.6475    0.6890   -1.1499 H   0  0  0  0  0  0  0  0  0  0  0  0
    0.4526    1.0207   -1.6477 H   0  0  0  0  0  0  0  0  0  0  0  0
   -1.8937    0.7371   -1.1019 H   0  0  0  0  0  0  0  0  0  0  0  0
   -4.1798    1.6859    1.5065 H   0  0  0  0  0  0  0  0  0  0  0  0
   -3.6024    1.7867   -0.1702 H   0  0  0  0  0  0  0  0  0  0  0  0
   -5.9090    2.5887   -0.0919 H   0  0  0  0  0  0  0  0  0  0  0  0
   -6.4648    1.1187    0.7230 H   0  0  0  0  0  0  0  0  0  0  0  0
   -5.9684   -0.9381   -2.1799 H   0  0  0  0  0  0  0  0  0  0  0  0
   -6.4994   -0.9320   -0.4911 H   0  0  0  0  0  0  0  0  0  0  0  0
   -4.2410   -1.9484   -0.6453 H   0  0  0  0  0  0  0  0  0  0  0  0
   -3.6416   -0.5414   -1.5486 H   0  0  0  0  0  0  0  0  0  0  0  0
   -2.3561   -2.2399    3.9391 H   0  0  0  0  0  0  0  0  0  0  0  0
    1.5107   -1.1215    1.9404 H   0  0  0  0  0  0  0  0  0  0  0  0
    6.1127   -0.8269    1.3118 H   0  0  0  0  0  0  0  0  0  0  0  0
    8.3093   -0.2808    0.3269 H   0  0  0  0  0  0  0  0  0  0  0  0
    8.4454    0.9814   -1.8086 H   0  0  0  0  0  0  0  0  0  0  0  0
    6.3524    1.6952   -2.9545 H   0  0  0  0  0  0  0  0  0  0  0  0
  1  2  2  0
  2  3  1  0
  3  4  1  0
  4  5  2  0
  5  6  1  0
  6  7  2  0
  7  8  1  0
  8  9  1  0
  9 10  1  0
 10 11  1  0
 11 12  1  0
 12 13  1  0
 13 14  1  0
  8 15  2  0
 15 16  1  0
 16 17  2  0
 17 18  1  0
 18 19  2  0
  2 20  1  0
 20 21  2  0
 21 22  1  0
 22 23  2  0
 23 24  1  0
 24 25  2  0
 25 26  1  0
 19  4  1  0
 25 20  1  0
 18  7  1  0
 14  9  1  0
  3 27  1  0
  5 28  1  0
  6 29  1  0
 10 30  1  0
 10 31  1  0
 11 32  1  0
 11 33  1  0
 13 34  1  0
 13 35  1  0
 14 36  1  0
 14 37  1  0
 16 38  1  0
 19 39  1  0
 21 40  1  0
 22 41  1  0
 23 42  1  0
 24 43  1  0
M  END
$$$$
