
     RDKit          3D

 57 60  0  0  0  0  0  0  0  0999 V2000
    9.5737   -0.1744   -2.1897 C   0  0  0  0  0  0  0  0  0  0  0  0
    8.7730    0.3893   -1.1589 O   0  0  0  0  0  0  0  0  0  0  0  0
    7.5148   -0.1247   -1.0018 C   0  0  0  0  0  0  0  0  0  0  0  0
    6.9388   -1.1380   -1.7672 C   0  0  0  0  0  0  0  0  0  0  0  0
    5.6364   -1.5801   -1.4913 C   0  0  0  0  0  0  0  0  0  0  0  0
    4.8912   -1.0173   -0.4458 C   0  0  0  0  0  0  0  0  0  0  0  0
    3.5369   -1.4636   -0.1280 C   0  0  0  0  0  0  0  0  0  0  0  0
    3.0289   -2.7108   -0.4403 C   0  0  0  0  0  0  0  0  0  0  0  0
    1.4169   -2.8432    0.1265 S   0  0  0  0  0  0  0  0  0  0  0  0
    1.5025   -1.2501    0.7195 C   0  0  0  0  0  0  0  0  0  0  0  0
    0.4641   -0.6206    1.3582 N   0  0  0  0  0  0  0  0  0  0  0  0
   -0.8153   -1.0940    1.5276 C   0  0  0  0  0  0  0  0  0  0  0  0
   -1.2393   -2.1830    1.1340 O   0  0  0  0  0  0  0  0  0  0  0  0
   -1.7809   -0.1593    2.2864 C   0  0  1  0  0  0  0  0  0  0  0  0
   -1.1864    0.9542    3.1527 C   0  0  0  0  0  0  0  0  0  0  0  0
   -2.2743    1.8068    3.8239 C   0  0  0  0  0  0  0  0  0  0  0  0
   -3.6700    1.2035    3.6836 C   0  0  0  0  0  0  0  0  0  0  0  0
   -4.0329    0.9028    2.2261 C   0  0  0  0  0  0  0  0  0  0  0  0
   -2.8690    0.4014    1.4405 N   0  0  0  0  0  0  0  0  0  0  0  0
   -2.4193    1.3380    0.0918 S   0  0  0  0  0  6  0  0  0  0  0  0
   -1.2476    0.7636   -0.5270 O   0  0  0  0  0  0  0  0  0  0  0  0
   -2.4229    2.7235    0.5143 O   0  0  0  0  0  0  0  0  0  0  0  0
   -3.7823    1.0693   -1.0099 C   0  0  0  0  0  0  0  0  0  0  0  0
   -4.5623    2.1421   -1.4447 C   0  0  0  0  0  0  0  0  0  0  0  0
   -5.6343    1.9024   -2.3066 C   0  0  0  0  0  0  0  0  0  0  0  0
   -5.9333    0.5978   -2.7258 C   0  0  0  0  0  0  0  0  0  0  0  0
   -7.0634    0.3489   -3.6829 C   0  0  0  0  0  0  0  0  0  0  0  0
   -5.1286   -0.4660   -2.2933 C   0  0  0  0  0  0  0  0  0  0  0  0
   -4.0542   -0.2345   -1.4340 C   0  0  0  0  0  0  0  0  0  0  0  0
    2.6538   -0.6411    0.5593 N   0  0  0  0  0  0  0  0  0  0  0  0
    5.4731    0.0115    0.3057 C   0  0  0  0  0  0  0  0  0  0  0  0
    6.7729    0.4493    0.0312 C   0  0  0  0  0  0  0  0  0  0  0  0
   10.5540    0.3119   -2.1548 H   0  0  0  0  0  0  0  0  0  0  0  0
    9.7299   -1.2474   -2.0303 H   0  0  0  0  0  0  0  0  0  0  0  0
    9.1375    0.0197   -3.1764 H   0  0  0  0  0  0  0  0  0  0  0  0
    7.4708   -1.6053   -2.5891 H   0  0  0  0  0  0  0  0  0  0  0  0
    5.2158   -2.3611   -2.1203 H   0  0  0  0  0  0  0  0  0  0  0  0
    3.5033   -3.5412   -0.9414 H   0  0  0  0  0  0  0  0  0  0  0  0
    0.6773    0.3487    1.5376 H   0  0  0  0  0  0  0  0  0  0  0  0
   -2.2600   -0.8672    2.9823 H   0  0  0  0  0  0  0  0  0  0  0  0
   -0.5391    0.5114    3.9191 H   0  0  0  0  0  0  0  0  0  0  0  0
   -0.5468    1.6240    2.5671 H   0  0  0  0  0  0  0  0  0  0  0  0
   -2.0330    1.9454    4.8838 H   0  0  0  0  0  0  0  0  0  0  0  0
   -2.2718    2.8082    3.3766 H   0  0  0  0  0  0  0  0  0  0  0  0
   -3.7228    0.2789    4.2724 H   0  0  0  0  0  0  0  0  0  0  0  0
   -4.4174    1.8786    4.1160 H   0  0  0  0  0  0  0  0  0  0  0  0
   -4.4523    1.8085    1.7741 H   0  0  0  0  0  0  0  0  0  0  0  0
   -4.8251    0.1463    2.1886 H   0  0  0  0  0  0  0  0  0  0  0  0
   -4.3423    3.1584   -1.1272 H   0  0  0  0  0  0  0  0  0  0  0  0
   -6.2350    2.7398   -2.6534 H   0  0  0  0  0  0  0  0  0  0  0  0
   -7.8520    1.0981   -3.5609 H   0  0  0  0  0  0  0  0  0  0  0  0
   -6.6964    0.3876   -4.7116 H   0  0  0  0  0  0  0  0  0  0  0  0
   -7.5164   -0.6325   -3.5048 H   0  0  0  0  0  0  0  0  0  0  0  0
   -5.3326   -1.4822   -2.6259 H   0  0  0  0  0  0  0  0  0  0  0  0
   -3.4333   -1.0652   -1.1021 H   0  0  0  0  0  0  0  0  0  0  0  0
    4.9185    0.4789    1.1169 H   0  0  0  0  0  0  0  0  0  0  0  0
    7.2081    1.2456    0.6296 H   0  0  0  0  0  0  0  0  0  0  0  0
  1  2  1  0
  2  3  1  0
  3  4  2  0
  4  5  1  0
  5  6  2  0
  6  7  1  0
  7  8  2  0
  8  9  1  0
  9 10  1  0
 10 11  1  0
 11 12  1  0
 12 13  2  0
 12 14  1  0
 14 15  1  0
 15 16  1  0
 16 17  1  0
 17 18  1  0
 18 19  1  0
 19 20  1  0
 20 21  2  0
 20 22  2  0
 20 23  1  0
 23 24  2  0
 24 25  1  0
 25 26  2  0
 26 27  1  0
 26 28  1  0
 28 29  2  0
 10 30  2  0
  6 31  1  0
 31 32  2  0
 32  3  1  0
 30  7  1  0
 19 14  1  0
 29 23  1  0
  1 33  1  0
  1 34  1  0
  1 35  1  0
  4 36  1  0
  5 37  1  0
  8 38  1  0
 11 39  1  0
 14 40  1  1
 15 41  1  0
 15 42  1  0
 16 43  1  0
 16 44  1  0
 17 45  1  0
 17 46  1  0
 18 47  1  0
 18 48  1  0
 24 49  1  0
 25 50  1  0
 27 51  1  0
 27 52  1  0
 27 53  1  0
 28 54  1  0
 29 55  1  0
 31 56  1  0
 32 57  1  0
M  END
$$$$
