
     RDKit          3D

 57 60  0  0  0  0  0  0  0  0999 V2000
    9.8288   -0.5834   -0.4970 C   0  0  0  0  0  0  0  0  0  0  0  0
    8.3622   -0.3417   -0.3128 C   0  0  0  0  0  0  0  0  0  0  0  0
    7.8555    0.9409   -0.0906 C   0  0  0  0  0  0  0  0  0  0  0  0
    6.4786    1.1355    0.0717 C   0  0  0  0  0  0  0  0  0  0  0  0
    5.5868    0.0547    0.0200 C   0  0  0  0  0  0  0  0  0  0  0  0
    4.2147    0.3427    0.1813 N   0  0  0  0  0  0  0  0  0  0  0  0
    3.1829   -0.5575    0.3478 C   0  0  0  0  0  0  0  0  0  0  0  0
    3.3357   -1.7640    0.5155 O   0  0  0  0  0  0  0  0  0  0  0  0
    1.9114    0.0240    0.3326 N   0  0  0  0  0  0  0  0  0  0  0  0
    0.7563   -0.8466    0.5543 C   0  0  0  0  0  0  0  0  0  0  0  0
   -0.3359   -0.1255    1.3361 C   0  0  0  0  0  0  0  0  0  0  0  0
   -0.7378    1.2134    0.6949 C   0  0  0  0  0  0  0  0  0  0  0  0
   -2.1545    1.2533    0.3350 N   0  0  0  0  0  0  0  0  0  0  0  0
   -3.1581    1.7697    1.2437 C   0  0  0  0  0  0  0  0  0  0  0  0
   -4.4623    1.5584    0.4895 C   0  0  0  0  0  0  0  0  0  0  0  0
   -4.1328    0.4950   -0.4321 N   0  0  0  0  0  0  0  0  0  0  0  0
   -5.0849   -0.0641   -1.3687 C   0  0  0  0  0  0  0  0  0  0  0  0
   -6.2260   -0.7619   -0.6684 C   0  0  0  0  0  0  0  0  0  0  0  0
   -7.5271   -0.2356   -0.7072 C   0  0  0  0  0  0  0  0  0  0  0  0
   -8.5703   -0.8869   -0.0445 C   0  0  0  0  0  0  0  0  0  0  0  0
   -8.3138   -2.0611    0.6544 C   0  0  0  0  0  0  0  0  0  0  0  0
   -9.3168   -2.6820    1.2911 F   0  0  0  0  0  0  0  0  0  0  0  0
   -7.0330   -2.5998    0.7041 C   0  0  0  0  0  0  0  0  0  0  0  0
   -5.9885   -1.9508    0.0437 C   0  0  0  0  0  0  0  0  0  0  0  0
   -2.7528    0.3869   -0.5920 C   0  0  0  0  0  0  0  0  0  0  0  0
   -2.1750   -0.3419   -1.3803 O   0  0  0  0  0  0  0  0  0  0  0  0
    0.1634    1.6053   -0.4830 C   0  0  0  0  0  0  0  0  0  0  0  0
    1.6308    1.3803   -0.1396 C   0  0  0  0  0  0  0  0  0  0  0  0
    6.0926   -1.2231   -0.2135 C   0  0  0  0  0  0  0  0  0  0  0  0
    7.4647   -1.4093   -0.3759 C   0  0  0  0  0  0  0  0  0  0  0  0
    7.9274   -2.6474   -0.6052 F   0  0  0  0  0  0  0  0  0  0  0  0
   10.4068    0.3357   -0.3565 H   0  0  0  0  0  0  0  0  0  0  0  0
   10.1867   -1.3152    0.2340 H   0  0  0  0  0  0  0  0  0  0  0  0
   10.0265   -0.9560   -1.5072 H   0  0  0  0  0  0  0  0  0  0  0  0
    8.5242    1.7972   -0.0424 H   0  0  0  0  0  0  0  0  0  0  0  0
    6.1160    2.1462    0.2427 H   0  0  0  0  0  0  0  0  0  0  0  0
    3.9853    1.3063    0.3556 H   0  0  0  0  0  0  0  0  0  0  0  0
    1.0535   -1.7464    1.1037 H   0  0  0  0  0  0  0  0  0  0  0  0
    0.3916   -1.1745   -0.4261 H   0  0  0  0  0  0  0  0  0  0  0  0
   -1.1972   -0.7916    1.4665 H   0  0  0  0  0  0  0  0  0  0  0  0
    0.0429    0.0806    2.3467 H   0  0  0  0  0  0  0  0  0  0  0  0
   -0.6101    1.9932    1.4587 H   0  0  0  0  0  0  0  0  0  0  0  0
   -2.9689    2.8203    1.4804 H   0  0  0  0  0  0  0  0  0  0  0  0
   -3.1312    1.1692    2.1595 H   0  0  0  0  0  0  0  0  0  0  0  0
   -4.7321    2.4455   -0.0940 H   0  0  0  0  0  0  0  0  0  0  0  0
   -5.2870    1.2804    1.1504 H   0  0  0  0  0  0  0  0  0  0  0  0
   -4.5824   -0.7756   -2.0355 H   0  0  0  0  0  0  0  0  0  0  0  0
   -5.4491    0.7553   -2.0014 H   0  0  0  0  0  0  0  0  0  0  0  0
   -7.7353    0.6830   -1.2517 H   0  0  0  0  0  0  0  0  0  0  0  0
   -9.5795   -0.4870   -0.0669 H   0  0  0  0  0  0  0  0  0  0  0  0
   -6.8549   -3.5178    1.2560 H   0  0  0  0  0  0  0  0  0  0  0  0
   -4.9833   -2.3695    0.0857 H   0  0  0  0  0  0  0  0  0  0  0  0
   -0.0025    2.6567   -0.7475 H   0  0  0  0  0  0  0  0  0  0  0  0
   -0.0831    1.0249   -1.3793 H   0  0  0  0  0  0  0  0  0  0  0  0
    2.2496    1.5884   -1.0195 H   0  0  0  0  0  0  0  0  0  0  0  0
    1.9376    2.0696    0.6559 H   0  0  0  0  0  0  0  0  0  0  0  0
    5.4537   -2.0958   -0.2863 H   0  0  0  0  0  0  0  0  0  0  0  0
  1  2  1  0
  2  3  2  0
  3  4  1  0
  4  5  2  0
  5  6  1  0
  6  7  1  0
  7  8  2  0
  7  9  1  0
  9 10  1  0
 10 11  1  0
 11 12  1  0
 12 13  1  0
 13 14  1  0
 14 15  1  0
 15 16  1  0
 16 17  1  0
 17 18  1  0
 18 19  2  0
 19 20  1  0
 20 21  2  0
 21 22  1  0
 21 23  1  0
 23 24  2  0
 16 25  1  0
 25 26  2  0
 12 27  1  0
 27 28  1  0
  5 29  1  0
 29 30  2  0
 30 31  1  0
 30  2  1  0
 28  9  1  0
 25 13  1  0
 24 18  1  0
  1 32  1  0
  1 33  1  0
  1 34  1  0
  3 35  1  0
  4 36  1  0
  6 37  1  0
 10 38  1  0
 10 39  1  0
 11 40  1  0
 11 41  1  0
 12 42  1  0
 14 43  1  0
 14 44  1  0
 15 45  1  0
 15 46  1  0
 17 47  1  0
 17 48  1  0
 19 49  1  0
 20 50  1  0
 23 51  1  0
 24 52  1  0
 27 53  1  0
 27 54  1  0
 28 55  1  0
 28 56  1  0
 29 57  1  0
M  END
$$$$
