
     RDKit          3D

 32 33  0  0  0  0  0  0  0  0999 V2000
   -6.8034    0.8582   -0.4645 O   0  0  0  0  0  0  0  0  0  0  0  0
   -5.9138    1.6565   -0.1380 N   0  0  0  0  0  4  0  0  0  0  0  0
   -6.0891    2.8697    0.0444 O   0  0  0  0  0  1  0  0  0  0  0  0
   -4.5569    1.1279    0.0508 C   0  0  0  0  0  0  0  0  0  0  0  0
   -3.5296    1.9828    0.4686 C   0  0  0  0  0  0  0  0  0  0  0  0
   -2.2421    1.4707    0.6482 C   0  0  0  0  0  0  0  0  0  0  0  0
   -1.9794    0.1183    0.4128 C   0  0  0  0  0  0  0  0  0  0  0  0
   -0.6896   -0.2803    0.6198 O   0  0  0  0  0  0  0  0  0  0  0  0
   -0.1378   -1.7746    0.4003 P   0  0  0  0  0  5  0  0  0  0  0  0
   -0.3774   -2.3781   -0.9477 O   0  0  0  0  0  0  0  0  0  0  0  0
   -0.8255   -2.5889    1.6056 O   0  0  0  0  0  0  0  0  0  0  0  0
    1.3970   -1.7247    0.8776 O   0  0  0  0  0  0  0  0  0  0  0  0
    2.3933   -1.0585    0.2220 C   0  0  0  0  0  0  0  0  0  0  0  0
    3.6314   -1.0271    0.8698 C   0  0  0  0  0  0  0  0  0  0  0  0
    4.7183   -0.3700    0.2878 C   0  0  0  0  0  0  0  0  0  0  0  0
    4.5575    0.2559   -0.9542 C   0  0  0  0  0  0  0  0  0  0  0  0
    5.6933    0.9510   -1.5731 N   0  0  0  0  0  4  0  0  0  0  0  0
    5.5115    1.4819   -2.6777 O   0  0  0  0  0  0  0  0  0  0  0  0
    6.7650    0.9698   -0.9511 O   0  0  0  0  0  1  0  0  0  0  0  0
    3.3197    0.2228   -1.6101 C   0  0  0  0  0  0  0  0  0  0  0  0
    2.2376   -0.4379   -1.0177 C   0  0  0  0  0  0  0  0  0  0  0  0
   -3.0049   -0.7302   -0.0040 C   0  0  0  0  0  0  0  0  0  0  0  0
   -4.2984   -0.2284   -0.1863 C   0  0  0  0  0  0  0  0  0  0  0  0
   -3.7122    3.0390    0.6560 H   0  0  0  0  0  0  0  0  0  0  0  0
   -1.4418    2.1329    0.9714 H   0  0  0  0  0  0  0  0  0  0  0  0
   -0.6097   -2.2092    2.4752 H   0  0  0  0  0  0  0  0  0  0  0  0
    3.7549   -1.5187    1.8326 H   0  0  0  0  0  0  0  0  0  0  0  0
    5.6734   -0.3584    0.8093 H   0  0  0  0  0  0  0  0  0  0  0  0
    3.1815    0.6986   -2.5797 H   0  0  0  0  0  0  0  0  0  0  0  0
    1.2942   -0.4596   -1.5575 H   0  0  0  0  0  0  0  0  0  0  0  0
   -2.8316   -1.7861   -0.1992 H   0  0  0  0  0  0  0  0  0  0  0  0
   -5.0854   -0.9053   -0.5147 H   0  0  0  0  0  0  0  0  0  0  0  0
  1  2  2  0
  2  3  1  0
  2  4  1  0
  4  5  2  0
  5  6  1  0
  6  7  2  0
  7  8  1  0
  8  9  1  0
  9 10  2  0
  9 11  1  0
  9 12  1  0
 12 13  1  0
 13 14  2  0
 14 15  1  0
 15 16  2  0
 16 17  1  0
 17 18  2  0
 17 19  1  0
 16 20  1  0
 20 21  2  0
  7 22  1  0
 22 23  2  0
 23  4  1  0
 21 13  1  0
  5 24  1  0
  6 25  1  0
 11 26  1  0
 14 27  1  0
 15 28  1  0
 20 29  1  0
 21 30  1  0
 22 31  1  0
 23 32  1  0
M  CHG  4   2   1   3  -1  17   1  19  -1
M  END
$$$$
