
     RDKit          3D

 61 62  0  0  0  0  0  0  0  0999 V2000
   -5.9024    2.7076    2.6130 C   0  0  0  0  0  0  0  0  0  0  0  0
   -5.6840    1.8778    1.4392 N   0  0  0  0  0  0  0  0  0  0  0  0
   -5.8097    0.4392    1.6539 C   0  0  0  0  0  0  0  0  0  0  0  0
   -4.9631    2.4257    0.3815 C   0  0  0  0  0  0  0  0  0  0  0  0
   -4.6643    3.6204    0.3450 O   0  0  0  0  0  0  0  0  0  0  0  0
   -4.5881    1.4908   -0.7636 C   0  0  0  0  0  0  0  0  0  0  0  0
   -3.5670    2.1387   -1.6914 C   0  0  0  0  0  0  0  0  0  0  0  0
   -3.0876    1.0668   -3.0919 S   0  0  0  0  0  0  0  0  0  0  0  0
   -2.1961   -0.2773   -2.1914 C   0  0  0  0  0  0  0  0  0  0  0  0
   -3.1727   -1.8254   -2.3369 S   0  0  0  0  0  0  0  0  0  0  0  0
   -2.6453   -2.6790   -0.8011 C   0  0  0  0  0  0  0  0  0  0  0  0
   -3.3442   -2.0854    0.4055 C   0  0  0  0  0  0  0  0  0  0  0  0
   -3.0847   -2.8518    1.6951 C   0  0  0  0  0  0  0  0  0  0  0  0
   -2.0919   -3.6277    1.6971 O   0  0  0  0  0  0  0  0  0  0  0  0
   -3.9016   -2.5726    2.6236 O   0  0  0  0  0  1  0  0  0  0  0  0
   -0.7818   -0.4425   -2.7238 C   0  0  0  0  0  0  0  0  0  0  0  0
   -0.5215   -0.8379   -4.0461 C   0  0  0  0  0  0  0  0  0  0  0  0
    0.7883   -0.9971   -4.5023 C   0  0  0  0  0  0  0  0  0  0  0  0
    1.8602   -0.7640   -3.6423 C   0  0  0  0  0  0  0  0  0  0  0  0
    1.6275   -0.3715   -2.3215 C   0  0  0  0  0  0  0  0  0  0  0  0
    2.7324   -0.1175   -1.3956 C   0  0  0  0  0  0  0  0  0  0  0  0
    3.6021   -1.0773   -1.0362 C   0  0  0  0  0  0  0  0  0  0  0  0
    4.6982   -0.8719   -0.0777 C   0  0  0  0  0  0  0  0  0  0  0  0
    5.4599   -1.9527    0.3478 C   0  0  0  0  0  0  0  0  0  0  0  0
    6.4936   -1.7286    1.2527 C   0  0  0  0  0  0  0  0  0  0  0  0
    6.7439   -0.4308    1.7107 C   0  0  0  0  0  0  0  0  0  0  0  0
    7.7787   -0.1549    2.6207 C   0  0  0  0  0  0  0  0  0  0  0  0
    8.0020    1.1532    3.0475 C   0  0  0  0  0  0  0  0  0  0  0  0
    7.1874    2.1746    2.5703 C   0  0  0  0  0  0  0  0  0  0  0  0
    7.4634    3.7968    3.0835 Cl  0  0  0  0  0  0  0  0  0  0  0  0
    6.1586    1.9042    1.6684 C   0  0  0  0  0  0  0  0  0  0  0  0
    5.9217    0.6126    1.2245 C   0  0  0  0  0  0  0  0  0  0  0  0
    4.9272    0.3971    0.3476 N   0  0  0  0  0  0  0  0  0  0  0  0
    0.3120   -0.2042   -1.8732 C   0  0  0  0  0  0  0  0  0  0  0  0
    0.0000    0.0000    0.0000 Na  0  0  0  0  0 15  0  0  0  0  0  0
   -5.9134    3.7708    2.3594 H   0  0  0  0  0  0  0  0  0  0  0  0
   -5.0942    2.5228    3.3304 H   0  0  0  0  0  0  0  0  0  0  0  0
   -6.8649    2.4498    3.0647 H   0  0  0  0  0  0  0  0  0  0  0  0
   -6.6512    0.2388    2.3219 H   0  0  0  0  0  0  0  0  0  0  0  0
   -5.9898   -0.0824    0.7097 H   0  0  0  0  0  0  0  0  0  0  0  0
   -4.8786    0.0762    2.1008 H   0  0  0  0  0  0  0  0  0  0  0  0
   -4.1622    0.5780   -0.3433 H   0  0  0  0  0  0  0  0  0  0  0  0
   -5.5037    1.2409   -1.3123 H   0  0  0  0  0  0  0  0  0  0  0  0
   -3.9827    3.0570   -2.1219 H   0  0  0  0  0  0  0  0  0  0  0  0
   -2.6632    2.4297   -1.1442 H   0  0  0  0  0  0  0  0  0  0  0  0
   -2.1459    0.0092   -1.1391 H   0  0  0  0  0  0  0  0  0  0  0  0
   -2.9223   -3.7336   -0.9111 H   0  0  0  0  0  0  0  0  0  0  0  0
   -1.5542   -2.6393   -0.7120 H   0  0  0  0  0  0  0  0  0  0  0  0
   -4.4281   -2.0669    0.2386 H   0  0  0  0  0  0  0  0  0  0  0  0
   -3.0062   -1.0622    0.5904 H   0  0  0  0  0  0  0  0  0  0  0  0
   -1.3477   -1.0289   -4.7281 H   0  0  0  0  0  0  0  0  0  0  0  0
    0.9688   -1.3047   -5.5274 H   0  0  0  0  0  0  0  0  0  0  0  0
    2.8769   -0.8845   -4.0081 H   0  0  0  0  0  0  0  0  0  0  0  0
    2.7831    0.8823   -0.9723 H   0  0  0  0  0  0  0  0  0  0  0  0
    3.4992   -2.0806   -1.4418 H   0  0  0  0  0  0  0  0  0  0  0  0
    5.2545   -2.9605   -0.0053 H   0  0  0  0  0  0  0  0  0  0  0  0
    7.0933   -2.5687    1.5953 H   0  0  0  0  0  0  0  0  0  0  0  0
    8.4140   -0.9513    2.9910 H   0  0  0  0  0  0  0  0  0  0  0  0
    8.8038    1.3663    3.7491 H   0  0  0  0  0  0  0  0  0  0  0  0
    5.5238    2.7106    1.2967 H   0  0  0  0  0  0  0  0  0  0  0  0
    0.1395    0.0954   -0.8418 H   0  0  0  0  0  0  0  0  0  0  0  0
  1  2  1  0
  2  3  1  0
  2  4  1  0
  4  5  2  0
  4  6  1  0
  6  7  1  0
  7  8  1  0
  8  9  1  0
  9 10  1  0
 10 11  1  0
 11 12  1  0
 12 13  1  0
 13 14  2  0
 13 15  1  0
  9 16  1  0
 16 17  2  0
 17 18  1  0
 18 19  2  0
 19 20  1  0
 20 21  1  0
 21 22  2  0
 22 23  1  0
 23 24  2  0
 24 25  1  0
 25 26  2  0
 26 27  1  0
 27 28  2  0
 28 29  1  0
 29 30  1  0
 29 31  2  0
 31 32  1  0
 32 33  2  0
 20 34  2  0
 34 16  1  0
 33 23  1  0
 32 26  1  0
  1 36  1  0
  1 37  1  0
  1 38  1  0
  3 39  1  0
  3 40  1  0
  3 41  1  0
  6 42  1  0
  6 43  1  0
  7 44  1  0
  7 45  1  0
  9 46  1  0
 11 47  1  0
 11 48  1  0
 12 49  1  0
 12 50  1  0
 17 51  1  0
 18 52  1  0
 19 53  1  0
 21 54  1  0
 22 55  1  0
 24 56  1  0
 25 57  1  0
 27 58  1  0
 28 59  1  0
 31 60  1  0
 34 61  1  0
M  CHG  2  15  -1  35   1
M  END
$$$$
