
     RDKit          3D

 41 43  0  0  0  0  0  0  0  0999 V2000
    5.2257    1.1909   -1.8137 C   0  0  0  0  0  0  0  0  0  0  0  0
    4.9799    2.2991   -0.9546 O   0  0  0  0  0  0  0  0  0  0  0  0
    3.9883    2.1689   -0.0167 C   0  0  0  0  0  0  0  0  0  0  0  0
    3.0611    1.1176    0.0152 C   0  0  0  0  0  0  0  0  0  0  0  0
    2.0929    1.0333    1.0309 C   0  0  0  0  0  0  0  0  0  0  0  0
    1.2302   -0.0826    1.0048 N   0  0  0  0  0  0  0  0  0  0  0  0
    0.1977   -0.3747    1.8787 C   0  0  0  0  0  0  0  0  0  0  0  0
   -0.1964    0.3155    2.8142 O   0  0  0  0  0  0  0  0  0  0  0  0
   -0.4664   -1.6939    1.5707 C   0  0  0  0  0  0  0  0  0  0  0  0
   -1.3704   -1.5995    0.3626 C   0  0  0  0  0  0  0  0  0  0  0  0
   -0.8469   -1.9475   -0.7751 N   0  0  0  0  0  0  0  0  0  0  0  0
   -1.6222   -1.8986   -1.9070 N   0  0  0  0  0  0  0  0  0  0  0  0
   -0.9577   -2.2618   -3.1448 C   0  0  0  0  0  0  0  0  0  0  0  0
   -2.9495   -1.4719   -1.9349 C   0  0  0  0  0  0  0  0  0  0  0  0
   -3.6349   -1.4155   -2.9537 O   0  0  0  0  0  0  0  0  0  0  0  0
   -3.5345   -1.0581   -0.6468 C   0  0  0  0  0  0  0  0  0  0  0  0
   -4.8586   -0.5984   -0.5903 C   0  0  0  0  0  0  0  0  0  0  0  0
   -5.4046   -0.1934    0.6278 C   0  0  0  0  0  0  0  0  0  0  0  0
   -4.6266   -0.2367    1.7816 C   0  0  0  0  0  0  0  0  0  0  0  0
   -3.3060   -0.6910    1.7288 C   0  0  0  0  0  0  0  0  0  0  0  0
   -2.7585   -1.1081    0.5083 C   0  0  0  0  0  0  0  0  0  0  0  0
    2.0414    2.0309    2.0055 C   0  0  0  0  0  0  0  0  0  0  0  0
    2.9417    3.0982    1.9681 C   0  0  0  0  0  0  0  0  0  0  0  0
    3.9125    3.1652    0.9687 C   0  0  0  0  0  0  0  0  0  0  0  0
    5.0110    4.4994    0.9901 Cl  0  0  0  0  0  0  0  0  0  0  0  0
    6.1391    1.4027   -2.3798 H   0  0  0  0  0  0  0  0  0  0  0  0
    5.3925    0.2710   -1.2409 H   0  0  0  0  0  0  0  0  0  0  0  0
    4.4086    1.0686   -2.5324 H   0  0  0  0  0  0  0  0  0  0  0  0
    3.0813    0.3505   -0.7503 H   0  0  0  0  0  0  0  0  0  0  0  0
    1.3550   -0.7290    0.2337 H   0  0  0  0  0  0  0  0  0  0  0  0
    0.3091   -2.4493    1.3865 H   0  0  0  0  0  0  0  0  0  0  0  0
   -1.0137   -2.0466    2.4499 H   0  0  0  0  0  0  0  0  0  0  0  0
   -1.6789   -2.5124   -3.9265 H   0  0  0  0  0  0  0  0  0  0  0  0
   -0.3018   -3.1224   -2.9706 H   0  0  0  0  0  0  0  0  0  0  0  0
   -0.3609   -1.4085   -3.4754 H   0  0  0  0  0  0  0  0  0  0  0  0
   -5.4636   -0.5569   -1.4950 H   0  0  0  0  0  0  0  0  0  0  0  0
   -6.4332    0.1610    0.6744 H   0  0  0  0  0  0  0  0  0  0  0  0
   -5.0476    0.0897    2.7310 H   0  0  0  0  0  0  0  0  0  0  0  0
   -2.7297   -0.6898    2.6484 H   0  0  0  0  0  0  0  0  0  0  0  0
    1.3114    2.0134    2.8085 H   0  0  0  0  0  0  0  0  0  0  0  0
    2.8833    3.8705    2.7301 H   0  0  0  0  0  0  0  0  0  0  0  0
  1  2  1  0
  2  3  1  0
  3  4  2  0
  4  5  1  0
  5  6  1  0
  6  7  1  0
  7  8  2  0
  7  9  1  0
  9 10  1  0
 10 11  2  0
 11 12  1  0
 12 13  1  0
 12 14  1  0
 14 15  2  0
 14 16  1  0
 16 17  2  0
 17 18  1  0
 18 19  2  0
 19 20  1  0
 20 21  2  0
  5 22  2  0
 22 23  1  0
 23 24  2  0
 24 25  1  0
 24  3  1  0
 21 10  1  0
 21 16  1  0
  1 26  1  0
  1 27  1  0
  1 28  1  0
  4 29  1  0
  6 30  1  0
  9 31  1  0
  9 32  1  0
 13 33  1  0
 13 34  1  0
 13 35  1  0
 17 36  1  0
 18 37  1  0
 19 38  1  0
 20 39  1  0
 22 40  1  0
 23 41  1  0
M  END
$$$$
