
     RDKit          3D

 37 39  0  0  0  0  0  0  0  0999 V2000
    3.1118   -0.7905   -1.6613 C   0  0  0  0  0  0  0  0  0  0  0  0
    3.4045   -0.3790   -0.3235 O   0  0  0  0  0  0  0  0  0  0  0  0
    2.3587    0.3511    0.1898 C   0  0  0  0  0  0  0  0  0  0  0  0
    2.3892    1.7418    0.0718 C   0  0  0  0  0  0  0  0  0  0  0  0
    3.4988    2.4742   -0.6138 C   0  0  0  0  0  0  0  0  0  0  0  0
    1.3086    2.4288    0.5933 C   0  0  0  0  0  0  0  0  0  0  0  0
    0.2660    1.8401    1.2163 N   0  0  0  0  0  0  0  0  0  0  0  0
    0.2676    0.4866    1.3502 C   0  0  0  0  0  0  0  0  0  0  0  0
   -0.9417   -0.0731    2.0634 C   0  0  0  0  0  0  0  0  0  0  0  0
   -1.7554   -0.9315    1.2219 N   0  0  0  0  0  0  0  0  0  0  0  0
   -2.0041   -2.2621    1.4382 C   0  0  0  0  0  0  0  0  0  0  0  0
   -2.7839   -2.7741    0.5098 N   0  0  0  0  0  0  0  0  0  0  0  0
   -3.0947   -1.7152   -0.3177 C   0  0  0  0  0  0  0  0  0  0  0  0
   -3.8641   -1.5485   -1.4569 C   0  0  0  0  0  0  0  0  0  0  0  0
   -4.6606   -2.8917   -2.1173 Cl  0  0  0  0  0  0  0  0  0  0  0  0
   -3.9924   -0.3564   -2.0673 N   0  0  0  0  0  0  0  0  0  0  0  0
   -3.3596    0.6858   -1.5133 C   0  0  0  0  0  0  0  0  0  0  0  0
   -3.5004    1.9034   -2.1464 N   0  0  0  0  0  0  0  0  0  0  0  0
   -2.5710    0.6615   -0.4293 N   0  0  0  0  0  0  0  0  0  0  0  0
   -2.4762   -0.5568    0.1216 C   0  0  0  0  0  0  0  0  0  0  0  0
    1.3292   -0.3043    0.8877 C   0  0  0  0  0  0  0  0  0  0  0  0
    1.3757   -1.7925    1.0844 C   0  0  0  0  0  0  0  0  0  0  0  0
    3.9718   -1.3566   -2.0312 H   0  0  0  0  0  0  0  0  0  0  0  0
    2.9641    0.0706   -2.3214 H   0  0  0  0  0  0  0  0  0  0  0  0
    2.2353   -1.4461   -1.6950 H   0  0  0  0  0  0  0  0  0  0  0  0
    4.4695    2.0245   -0.3811 H   0  0  0  0  0  0  0  0  0  0  0  0
    3.5445    3.5179   -0.2846 H   0  0  0  0  0  0  0  0  0  0  0  0
    3.3476    2.4616   -1.6974 H   0  0  0  0  0  0  0  0  0  0  0  0
    1.2411    3.5117    0.5276 H   0  0  0  0  0  0  0  0  0  0  0  0
   -1.5968    0.7360    2.4090 H   0  0  0  0  0  0  0  0  0  0  0  0
   -0.6320   -0.6360    2.9507 H   0  0  0  0  0  0  0  0  0  0  0  0
   -1.5880   -2.8090    2.2756 H   0  0  0  0  0  0  0  0  0  0  0  0
   -3.7340    1.7704   -3.1201 H   0  0  0  0  0  0  0  0  0  0  0  0
   -2.7159    2.5018   -1.9266 H   0  0  0  0  0  0  0  0  0  0  0  0
    0.9736   -2.0766    2.0612 H   0  0  0  0  0  0  0  0  0  0  0  0
    2.4030   -2.1712    1.0672 H   0  0  0  0  0  0  0  0  0  0  0  0
    0.8100   -2.2965    0.2954 H   0  0  0  0  0  0  0  0  0  0  0  0
  1  2  1  0
  2  3  1  0
  3  4  2  0
  4  5  1  0
  4  6  1  0
  6  7  2  0
  7  8  1  0
  8  9  1  0
  9 10  1  0
 10 11  1  0
 11 12  2  0
 12 13  1  0
 13 14  2  0
 14 15  1  0
 14 16  1  0
 16 17  2  0
 17 18  1  0
 17 19  1  0
 19 20  2  0
  8 21  2  0
 21 22  1  0
 21  3  1  0
 20 10  1  0
 20 13  1  0
  1 23  1  0
  1 24  1  0
  1 25  1  0
  5 26  1  0
  5 27  1  0
  5 28  1  0
  6 29  1  0
  9 30  1  0
  9 31  1  0
 11 32  1  0
 18 33  1  0
 18 34  1  0
 22 35  1  0
 22 36  1  0
 22 37  1  0
M  END
$$$$
