
     RDKit          3D

 23 24  0  0  0  0  0  0  0  0999 V2000
    3.7454    1.5218   -0.7153 N   0  0  0  0  0  0  0  0  0  0  0  0
    3.3265    0.4487    0.1817 C   0  0  0  0  0  0  0  0  0  0  0  0
    2.0463   -0.1448   -0.2771 C   0  0  0  0  0  0  0  0  0  0  0  0
    1.7117   -0.9902   -1.3125 C   0  0  0  0  0  0  0  0  0  0  0  0
    0.3122   -1.1892   -1.2283 C   0  0  0  0  0  0  0  0  0  0  0  0
   -0.1329   -0.4524   -0.1472 C   0  0  0  0  0  0  0  0  0  0  0  0
   -1.4341   -0.2262    0.4685 C   0  0  0  0  0  0  0  0  0  0  0  0
   -2.5964   -0.8163   -0.0393 C   0  0  0  0  0  0  0  0  0  0  0  0
   -3.8281   -0.5809    0.5721 C   0  0  0  0  0  0  0  0  0  0  0  0
   -3.8649    0.2441    1.6829 C   0  0  0  0  0  0  0  0  0  0  0  0
   -2.7734    0.8351    2.2092 N   0  0  0  0  0  0  0  0  0  0  0  0
   -1.5900    0.5859    1.5908 C   0  0  0  0  0  0  0  0  0  0  0  0
    0.9292    0.1857    0.4318 O   0  0  0  0  0  0  0  0  0  0  0  0
    4.5553    1.9885   -0.3126 H   0  0  0  0  0  0  0  0  0  0  0  0
    3.0022    2.2201   -0.7441 H   0  0  0  0  0  0  0  0  0  0  0  0
    4.1029   -0.3230    0.2091 H   0  0  0  0  0  0  0  0  0  0  0  0
    3.2199    0.8432    1.1982 H   0  0  0  0  0  0  0  0  0  0  0  0
    2.3977   -1.4008   -2.0403 H   0  0  0  0  0  0  0  0  0  0  0  0
   -0.2954   -1.7956   -1.8846 H   0  0  0  0  0  0  0  0  0  0  0  0
   -2.5592   -1.4623   -0.9120 H   0  0  0  0  0  0  0  0  0  0  0  0
   -4.7368   -1.0315    0.1888 H   0  0  0  0  0  0  0  0  0  0  0  0
   -4.7998    0.4574    2.1931 H   0  0  0  0  0  0  0  0  0  0  0  0
   -0.7381    1.0826    2.0489 H   0  0  0  0  0  0  0  0  0  0  0  0
  1  2  1  0
  2  3  1  0
  3  4  2  0
  4  5  1  0
  5  6  2  0
  6  7  1  0
  7  8  2  0
  8  9  1  0
  9 10  2  0
 10 11  1  0
 11 12  2  0
  6 13  1  0
 13  3  1  0
 12  7  1  0
  1 14  1  0
  1 15  1  0
  2 16  1  0
  2 17  1  0
  4 18  1  0
  5 19  1  0
  8 20  1  0
  9 21  1  0
 10 22  1  0
 12 23  1  0
M  END
$$$$
