
     RDKit          3D

 36 38  0  0  0  0  0  0  0  0999 V2000
   -3.4591   -2.7124   -0.7270 C   0  0  0  0  0  0  0  0  0  0  0  0
   -2.7846   -2.4206    0.6063 C   0  0  0  0  0  0  0  0  0  0  0  0
   -1.7490   -1.3984    0.4742 N   0  0  0  0  0  0  0  0  0  0  0  0
   -0.4655   -1.8218    0.1728 C   0  0  0  0  0  0  0  0  0  0  0  0
   -0.1407   -2.9934   -0.0040 O   0  0  0  0  0  0  0  0  0  0  0  0
    0.5643   -0.7891    0.0782 C   0  0  0  0  0  0  0  0  0  0  0  0
    1.9032   -1.1334   -0.1337 C   0  0  0  0  0  0  0  0  0  0  0  0
    2.8678   -0.1259   -0.1997 C   0  0  0  0  0  0  0  0  0  0  0  0
    4.2965   -0.4470   -0.4457 C   0  0  0  0  0  0  0  0  0  0  0  0
    4.7431   -1.6934   -0.1017 N   0  0  0  0  0  0  0  0  0  0  0  0
    5.0659    0.3780   -0.9239 O   0  0  0  0  0  0  0  0  0  0  0  0
    2.4437    1.2030   -0.0755 C   0  0  0  0  0  0  0  0  0  0  0  0
    3.3312    2.2886   -0.0901 N   0  0  0  0  0  0  0  0  0  0  0  0
    1.1471    1.5183    0.1398 N   0  0  0  0  0  0  0  0  0  0  0  0
    0.2119    0.5368    0.2034 C   0  0  0  0  0  0  0  0  0  0  0  0
   -1.1436    0.8920    0.3967 N   0  0  0  0  0  0  0  0  0  0  0  0
   -1.4689    2.3012    0.5149 C   0  0  0  0  0  0  0  0  0  0  0  0
   -1.2122    3.2790   -0.6101 C   0  0  0  0  0  0  0  0  0  0  0  0
   -2.6173    2.9317   -0.2397 C   0  0  0  0  0  0  0  0  0  0  0  0
   -2.1365   -0.0641    0.5854 C   0  0  0  0  0  0  0  0  0  0  0  0
   -3.3053    0.2412    0.8376 O   0  0  0  0  0  0  0  0  0  0  0  0
   -2.7337   -3.0681   -1.4660 H   0  0  0  0  0  0  0  0  0  0  0  0
   -4.2274   -3.4818   -0.6037 H   0  0  0  0  0  0  0  0  0  0  0  0
   -3.9360   -1.8145   -1.1334 H   0  0  0  0  0  0  0  0  0  0  0  0
   -2.3416   -3.3433    0.9983 H   0  0  0  0  0  0  0  0  0  0  0  0
   -3.5367   -2.0946    1.3335 H   0  0  0  0  0  0  0  0  0  0  0  0
    2.1685   -2.1782   -0.2692 H   0  0  0  0  0  0  0  0  0  0  0  0
    5.7347   -1.8686   -0.2156 H   0  0  0  0  0  0  0  0  0  0  0  0
    4.2197   -2.3544    0.4549 H   0  0  0  0  0  0  0  0  0  0  0  0
    3.9597    2.1782   -0.8920 H   0  0  0  0  0  0  0  0  0  0  0  0
    3.9482    2.2353    0.7162 H   0  0  0  0  0  0  0  0  0  0  0  0
   -1.2979    2.6700    1.5242 H   0  0  0  0  0  0  0  0  0  0  0  0
   -0.8221    2.8993   -1.5470 H   0  0  0  0  0  0  0  0  0  0  0  0
   -0.8303    4.2566   -0.3400 H   0  0  0  0  0  0  0  0  0  0  0  0
   -3.1868    2.3202   -0.9296 H   0  0  0  0  0  0  0  0  0  0  0  0
   -3.2102    3.6737    0.2820 H   0  0  0  0  0  0  0  0  0  0  0  0
  1  2  1  0
  2  3  1  0
  3  4  1  0
  4  5  2  0
  4  6  1  0
  6  7  2  0
  7  8  1  0
  8  9  1  0
  9 10  1  0
  9 11  2  0
  8 12  2  0
 12 13  1  0
 12 14  1  0
 14 15  2  0
 15 16  1  0
 16 17  1  0
 17 18  1  0
 18 19  1  0
 16 20  1  0
 20 21  2  0
 20  3  1  0
 15  6  1  0
 19 17  1  0
  1 22  1  0
  1 23  1  0
  1 24  1  0
  2 25  1  0
  2 26  1  0
  7 27  1  0
 10 28  1  0
 10 29  1  0
 13 30  1  0
 13 31  1  0
 17 32  1  0
 18 33  1  0
 18 34  1  0
 19 35  1  0
 19 36  1  0
M  END
$$$$
