
     RDKit          3D

 74 78  0  0  0  0  0  0  0  0999 V2000
   -4.7854   -5.4770   -1.6884 C   0  0  0  0  0  0  0  0  0  0  0  0
   -3.4243   -5.6243   -1.3075 O   0  0  0  0  0  0  0  0  0  0  0  0
   -2.7532   -4.4981   -0.8996 C   0  0  0  0  0  0  0  0  0  0  0  0
   -3.3706   -3.2740   -0.6138 C   0  0  0  0  0  0  0  0  0  0  0  0
   -2.6469   -2.1680   -0.1865 C   0  0  0  0  0  0  0  0  0  0  0  0
   -3.3101   -1.0376    0.0730 N   0  0  0  0  0  0  0  0  0  0  0  0
   -2.6300    0.0350    0.4990 C   0  0  0  0  0  0  0  0  0  0  0  0
   -3.3369    1.1850    0.8140 N   0  0  0  0  0  0  0  0  0  0  0  0
   -2.5898    2.4109    1.2734 C   0  0  0  0  0  0  0  0  0  0  0  0
   -2.8291    3.6844    0.3506 C   0  0  0  0  0  0  0  0  0  0  0  0
   -4.2023    3.4096   -0.1740 C   0  0  0  0  0  0  0  0  0  0  0  0
   -5.5111    3.1513   -0.6765 N   0  0  0  0  0  0  0  0  0  0  0  0
   -5.6835    3.4527   -2.0930 C   0  0  0  0  0  0  0  0  0  0  0  0
   -5.6640    1.6520   -0.3734 C   0  0  0  0  0  0  0  0  0  0  0  0
   -4.8448    1.0819    0.9036 C   0  0  0  0  0  0  0  0  0  0  0  0
   -1.2992    0.0246    0.6453 N   0  0  0  0  0  0  0  0  0  0  0  0
   -0.6230   -1.1107    0.3982 C   0  0  0  0  0  0  0  0  0  0  0  0
    0.7817   -1.1337    0.5858 N   0  0  0  0  0  0  0  0  0  0  0  0
    1.4246    0.1421    0.9404 C   0  0  0  0  0  0  0  0  0  0  0  0
    1.5682    1.0297   -0.3017 C   0  0  0  0  0  0  0  0  0  0  0  0
    2.4063    2.2707    0.0080 C   0  0  0  0  0  0  0  0  0  0  0  0
    3.7310    1.9786    0.5754 N   0  0  0  0  0  0  0  0  0  0  0  0
    4.6489    1.4365   -0.4417 C   0  0  0  0  0  0  0  0  0  0  0  0
    6.0998    1.4216   -0.0011 C   0  0  0  0  0  0  0  0  0  0  0  0
    6.7613    0.2139    0.2578 C   0  0  0  0  0  0  0  0  0  0  0  0
    8.0949    0.2112    0.6688 C   0  0  0  0  0  0  0  0  0  0  0  0
    8.7840    1.4143    0.8139 C   0  0  0  0  0  0  0  0  0  0  0  0
    8.1383    2.6223    0.5630 C   0  0  0  0  0  0  0  0  0  0  0  0
    6.8019    2.6254    0.1616 C   0  0  0  0  0  0  0  0  0  0  0  0
    3.6031    1.1279    1.7660 C   0  0  0  0  0  0  0  0  0  0  0  0
    2.8129   -0.1591    1.5274 C   0  0  0  0  0  0  0  0  0  0  0  0
   -1.2676   -2.2785   -0.0378 C   0  0  0  0  0  0  0  0  0  0  0  0
   -0.6250   -3.5104   -0.3314 C   0  0  0  0  0  0  0  0  0  0  0  0
   -1.3607   -4.6171   -0.7597 C   0  0  0  0  0  0  0  0  0  0  0  0
   -0.8170   -5.8424   -1.0562 O   0  0  0  0  0  0  0  0  0  0  0  0
    0.5942   -5.9335   -1.1575 C   0  0  0  0  0  0  0  0  0  0  0  0
   -5.1398   -6.4467   -2.0539 H   0  0  0  0  0  0  0  0  0  0  0  0
   -5.4060   -5.2055   -0.8304 H   0  0  0  0  0  0  0  0  0  0  0  0
   -4.8967   -4.7500   -2.4995 H   0  0  0  0  0  0  0  0  0  0  0  0
   -4.4451   -3.1502   -0.7063 H   0  0  0  0  0  0  0  0  0  0  0  0
   -2.9388    2.6473    2.2894 H   0  0  0  0  0  0  0  0  0  0  0  0
   -1.5073    2.2540    1.3593 H   0  0  0  0  0  0  0  0  0  0  0  0
   -2.0750    3.7304   -0.4457 H   0  0  0  0  0  0  0  0  0  0  0  0
   -2.7588    4.6098    0.9354 H   0  0  0  0  0  0  0  0  0  0  0  0
   -3.7604    2.6433   -0.8221 H   0  0  0  0  0  0  0  0  0  0  0  0
   -4.5998    3.4050    0.8454 H   0  0  0  0  0  0  0  0  0  0  0  0
   -5.5644    4.5298   -2.2620 H   0  0  0  0  0  0  0  0  0  0  0  0
   -4.9698    2.9229   -2.7378 H   0  0  0  0  0  0  0  0  0  0  0  0
   -6.6945    3.1855   -2.4172 H   0  0  0  0  0  0  0  0  0  0  0  0
   -6.7302    1.4618   -0.2043 H   0  0  0  0  0  0  0  0  0  0  0  0
   -5.3444    1.0682   -1.2494 H   0  0  0  0  0  0  0  0  0  0  0  0
   -5.1803    1.6108    1.8079 H   0  0  0  0  0  0  0  0  0  0  0  0
   -5.1676    0.0448    1.0626 H   0  0  0  0  0  0  0  0  0  0  0  0
    0.9799   -1.8580    1.2748 H   0  0  0  0  0  0  0  0  0  0  0  0
    0.8502    0.6670    1.7161 H   0  0  0  0  0  0  0  0  0  0  0  0
    2.0199    0.4594   -1.1239 H   0  0  0  0  0  0  0  0  0  0  0  0
    0.5870    1.3503   -0.6685 H   0  0  0  0  0  0  0  0  0  0  0  0
    2.5072    2.8808   -0.8983 H   0  0  0  0  0  0  0  0  0  0  0  0
    1.8596    2.9020    0.7222 H   0  0  0  0  0  0  0  0  0  0  0  0
    4.3465    0.4351   -0.7756 H   0  0  0  0  0  0  0  0  0  0  0  0
    4.6111    2.0695   -1.3395 H   0  0  0  0  0  0  0  0  0  0  0  0
    6.2431   -0.7338    0.1555 H   0  0  0  0  0  0  0  0  0  0  0  0
    8.5958   -0.7310    0.8787 H   0  0  0  0  0  0  0  0  0  0  0  0
    9.8201    1.4078    1.1377 H   0  0  0  0  0  0  0  0  0  0  0  0
    8.6699    3.5647    0.6859 H   0  0  0  0  0  0  0  0  0  0  0  0
    6.3019    3.5727   -0.0188 H   0  0  0  0  0  0  0  0  0  0  0  0
    3.1019    1.7117    2.5493 H   0  0  0  0  0  0  0  0  0  0  0  0
    4.5863    0.8821    2.1844 H   0  0  0  0  0  0  0  0  0  0  0  0
    2.7017   -0.6984    2.4769 H   0  0  0  0  0  0  0  0  0  0  0  0
    3.3749   -0.8275    0.8646 H   0  0  0  0  0  0  0  0  0  0  0  0
    0.4532   -3.5689   -0.2206 H   0  0  0  0  0  0  0  0  0  0  0  0
    0.9943   -5.2029   -1.8661 H   0  0  0  0  0  0  0  0  0  0  0  0
    1.0629   -5.8316   -0.1730 H   0  0  0  0  0  0  0  0  0  0  0  0
    0.8352   -6.9292   -1.5395 H   0  0  0  0  0  0  0  0  0  0  0  0
  1  2  1  0
  2  3  1  0
  3  4  2  0
  4  5  1  0
  5  6  2  0
  6  7  1  0
  7  8  1  0
  8  9  1  0
  9 10  1  0
 10 11  1  0
 11 12  1  0
 12 13  1  0
 12 14  1  0
 14 15  1  0
  7 16  2  0
 16 17  1  0
 17 18  1  0
 18 19  1  0
 19 20  1  0
 20 21  1  0
 21 22  1  0
 22 23  1  0
 23 24  1  0
 24 25  2  0
 25 26  1  0
 26 27  2  0
 27 28  1  0
 28 29  2  0
 22 30  1  0
 30 31  1  0
 17 32  2  0
 32 33  1  0
 33 34  2  0
 34 35  1  0
 35 36  1  0
 34  3  1  0
 32  5  1  0
 15  8  1  0
 31 19  1  0
 29 24  1  0
  1 37  1  0
  1 38  1  0
  1 39  1  0
  4 40  1  0
  9 41  1  0
  9 42  1  0
 10 43  1  0
 10 44  1  0
 11 45  1  0
 11 46  1  0
 13 47  1  0
 13 48  1  0
 13 49  1  0
 14 50  1  0
 14 51  1  0
 15 52  1  0
 15 53  1  0
 18 54  1  0
 19 55  1  0
 20 56  1  0
 20 57  1  0
 21 58  1  0
 21 59  1  0
 23 60  1  0
 23 61  1  0
 25 62  1  0
 26 63  1  0
 27 64  1  0
 28 65  1  0
 29 66  1  0
 30 67  1  0
 30 68  1  0
 31 69  1  0
 31 70  1  0
 33 71  1  0
 36 72  1  0
 36 73  1  0
 36 74  1  0
M  END
$$$$
