
     RDKit          3D

 55 58  0  0  0  0  0  0  0  0999 V2000
    8.5015   -0.4472    1.4959 C   0  0  0  0  0  0  0  0  0  0  0  0
    7.1272   -0.4317    0.8410 C   0  0  0  0  0  0  0  0  0  0  0  0
    6.4300    0.9207    1.0511 C   0  0  0  0  0  0  0  0  0  0  0  0
    5.1075    1.0693    0.4376 N   0  0  0  0  0  0  0  0  0  0  0  0
    5.1013    0.9553   -1.0323 C   0  0  0  0  0  0  0  0  0  0  0  0
    4.3373   -0.2620   -1.5832 C   0  0  0  0  0  0  0  0  0  0  0  0
    2.9700   -0.3364   -1.0709 N   0  0  0  0  0  0  0  0  0  0  0  0
    2.0572   -1.1475   -1.7477 C   0  0  0  0  0  0  0  0  0  0  0  0
    2.4042   -1.8459   -2.7006 O   0  0  0  0  0  0  0  0  0  0  0  0
    0.6579   -1.1184   -1.3033 C   0  0  0  0  0  0  0  0  0  0  0  0
   -0.1150   -0.0027   -1.0427 C   0  0  0  0  0  0  0  0  0  0  0  0
   -1.3759   -0.4614   -0.7252 N   0  0  0  0  0  0  0  0  0  0  0  0
   -2.4955    0.3583   -0.4101 C   0  0  0  0  0  0  0  0  0  0  0  0
   -3.7247   -0.2087   -0.1233 C   0  0  0  0  0  0  0  0  0  0  0  0
   -4.7769    0.6492    0.1603 C   0  0  0  0  0  0  0  0  0  0  0  0
   -6.0416    0.1409    0.4741 N   0  0  0  0  0  0  0  0  0  0  0  0
   -6.9902    1.1259    1.0247 C   0  0  0  0  0  0  0  0  0  0  0  0
   -8.2458    0.4489    1.5784 C   0  0  0  0  0  0  0  0  0  0  0  0
   -9.2513   -0.3713    0.2923 S   0  0  0  0  0  0  0  0  0  0  0  0
   -7.9618   -0.6004   -0.9771 C   0  0  0  0  0  0  0  0  0  0  0  0
   -6.5837   -0.9253   -0.3914 C   0  0  0  0  0  0  0  0  0  0  0  0
   -4.5849    1.9795    0.1855 N   0  0  0  0  0  0  0  0  0  0  0  0
   -3.3616    2.4378   -0.1050 C   0  0  0  0  0  0  0  0  0  0  0  0
   -2.2965    1.6926   -0.4096 N   0  0  0  0  0  0  0  0  0  0  0  0
   -1.3055   -1.8320   -0.7948 C   0  0  0  0  0  0  0  0  0  0  0  0
   -0.1117   -2.2553   -1.1456 N   0  0  0  0  0  0  0  0  0  0  0  0
    2.7537    0.2136    0.2733 C   0  0  0  0  0  0  0  0  0  0  0  0
    4.0606    0.2674    1.0898 C   0  0  0  0  0  0  0  0  0  0  0  0
    8.9858   -1.4159    1.3372 H   0  0  0  0  0  0  0  0  0  0  0  0
    9.1470    0.3290    1.0717 H   0  0  0  0  0  0  0  0  0  0  0  0
    8.4243   -0.2793    2.5753 H   0  0  0  0  0  0  0  0  0  0  0  0
    6.5320   -1.2460    1.2662 H   0  0  0  0  0  0  0  0  0  0  0  0
    7.2490   -0.6428   -0.2269 H   0  0  0  0  0  0  0  0  0  0  0  0
    7.0768    1.7194    0.6652 H   0  0  0  0  0  0  0  0  0  0  0  0
    6.3429    1.1182    2.1276 H   0  0  0  0  0  0  0  0  0  0  0  0
    6.1141    0.9767   -1.4521 H   0  0  0  0  0  0  0  0  0  0  0  0
    4.6082    1.8601   -1.4118 H   0  0  0  0  0  0  0  0  0  0  0  0
    4.3109   -0.2202   -2.6779 H   0  0  0  0  0  0  0  0  0  0  0  0
    4.8459   -1.1922   -1.3012 H   0  0  0  0  0  0  0  0  0  0  0  0
    0.1101    1.0539   -1.0870 H   0  0  0  0  0  0  0  0  0  0  0  0
   -3.8830   -1.2765   -0.0892 H   0  0  0  0  0  0  0  0  0  0  0  0
   -6.5191    1.6605    1.8603 H   0  0  0  0  0  0  0  0  0  0  0  0
   -7.2630    1.8734    0.2677 H   0  0  0  0  0  0  0  0  0  0  0  0
   -7.9737   -0.3061    2.3240 H   0  0  0  0  0  0  0  0  0  0  0  0
   -8.8805    1.1897    2.0752 H   0  0  0  0  0  0  0  0  0  0  0  0
   -7.9143    0.3071   -1.5898 H   0  0  0  0  0  0  0  0  0  0  0  0
   -8.2845   -1.4185   -1.6308 H   0  0  0  0  0  0  0  0  0  0  0  0
   -5.9220   -1.1304   -1.2410 H   0  0  0  0  0  0  0  0  0  0  0  0
   -6.6346   -1.8514    0.1935 H   0  0  0  0  0  0  0  0  0  0  0  0
   -3.2252    3.5133   -0.0922 H   0  0  0  0  0  0  0  0  0  0  0  0
   -2.1412   -2.4864   -0.5919 H   0  0  0  0  0  0  0  0  0  0  0  0
    2.3473    1.2247    0.1508 H   0  0  0  0  0  0  0  0  0  0  0  0
    2.0191   -0.3909    0.8143 H   0  0  0  0  0  0  0  0  0  0  0  0
    4.3964   -0.7649    1.2444 H   0  0  0  0  0  0  0  0  0  0  0  0
    3.8455    0.6914    2.0775 H   0  0  0  0  0  0  0  0  0  0  0  0
  1  2  1  0
  2  3  1  0
  3  4  1  0
  4  5  1  0
  5  6  1  0
  6  7  1  0
  7  8  1  0
  8  9  2  0
  8 10  1  0
 10 11  2  0
 11 12  1  0
 12 13  1  0
 13 14  2  0
 14 15  1  0
 15 16  1  0
 16 17  1  0
 17 18  1  0
 18 19  1  0
 19 20  1  0
 20 21  1  0
 15 22  2  0
 22 23  1  0
 23 24  2  0
 12 25  1  0
 25 26  2  0
  7 27  1  0
 27 28  1  0
 28  4  1  0
 26 10  1  0
 24 13  1  0
 21 16  1  0
  1 29  1  0
  1 30  1  0
  1 31  1  0
  2 32  1  0
  2 33  1  0
  3 34  1  0
  3 35  1  0
  5 36  1  0
  5 37  1  0
  6 38  1  0
  6 39  1  0
 11 40  1  0
 14 41  1  0
 17 42  1  0
 17 43  1  0
 18 44  1  0
 18 45  1  0
 20 46  1  0
 20 47  1  0
 21 48  1  0
 21 49  1  0
 23 50  1  0
 25 51  1  0
 27 52  1  0
 27 53  1  0
 28 54  1  0
 28 55  1  0
M  END
$$$$
