
     RDKit          3D

 54 57  0  0  0  0  0  0  0  0999 V2000
   -6.0701    2.4595   -1.0564 C   0  0  0  0  0  0  0  0  0  0  0  0
   -4.9420    2.8456   -1.9857 C   0  0  0  0  0  0  0  0  0  0  0  0
   -3.8263    1.5009   -2.3766 S   0  0  0  0  0  6  0  0  0  0  0  0
   -3.0668    1.9053   -3.5438 O   0  0  0  0  0  0  0  0  0  0  0  0
   -4.5326    0.2388   -2.3563 O   0  0  0  0  0  0  0  0  0  0  0  0
   -2.7465    1.5067   -1.0721 N   0  0  0  0  0  0  0  0  0  0  0  0
   -3.2130    1.0318    0.2592 C   0  0  0  0  0  0  0  0  0  0  0  0
   -2.0427    0.2747    0.9099 C   0  0  0  0  0  0  0  0  0  0  0  0
   -2.3228   -1.1833    1.0114 C   0  0  0  0  0  0  0  0  0  0  0  0
   -2.4417   -1.9156    2.0985 N   0  0  0  0  0  0  0  0  0  0  0  0
   -2.6525   -3.1704    1.5759 C   0  0  0  0  0  0  0  0  0  0  0  0
   -2.8586   -4.3608    2.4259 C   0  0  0  0  0  0  0  0  0  0  0  0
   -2.6503   -3.2329    0.2346 N   0  0  0  0  0  0  0  0  0  0  0  0
   -2.4402   -1.9042   -0.1470 O   0  0  0  0  0  0  0  0  0  0  0  0
   -0.8424    0.6028    0.0283 C   0  0  0  0  0  0  0  0  0  0  0  0
    0.4263   -0.2839    0.0491 C   0  0  0  0  0  0  0  0  0  0  0  0
    1.1880    0.9665    0.0818 N   0  0  0  0  0  0  0  0  0  0  0  0
    2.4973    1.1542    0.4851 C   0  0  0  0  0  0  0  0  0  0  0  0
    2.8238    2.1521    1.1154 O   0  0  0  0  0  0  0  0  0  0  0  0
    3.3236    0.1290    0.0768 N   0  0  0  0  0  0  0  0  0  0  0  0
    4.7040   -0.0392    0.3277 C   0  0  0  0  0  0  0  0  0  0  0  0
    5.4092    0.7839    1.2191 C   0  0  0  0  0  0  0  0  0  0  0  0
    6.7752    0.5983    1.4538 C   0  0  0  0  0  0  0  0  0  0  0  0
    7.4561   -0.4158    0.7956 C   0  0  0  0  0  0  0  0  0  0  0  0
    6.7635   -1.2431   -0.0827 C   0  0  0  0  0  0  0  0  0  0  0  0
    7.4423   -2.2199   -0.6994 F   0  0  0  0  0  0  0  0  0  0  0  0
    5.3928   -1.0800   -0.3311 C   0  0  0  0  0  0  0  0  0  0  0  0
    4.7182   -2.0121   -1.2995 C   0  0  0  0  0  0  0  0  0  0  0  0
    0.0523    1.7443    0.5758 C   0  0  0  0  0  0  0  0  0  0  0  0
   -1.4231    0.8946   -1.3524 C   0  0  0  0  0  0  0  0  0  0  0  0
   -5.7010    2.1678   -0.0618 H   0  0  0  0  0  0  0  0  0  0  0  0
   -6.7533    3.3097   -0.9257 H   0  0  0  0  0  0  0  0  0  0  0  0
   -6.6491    1.6181   -1.4653 H   0  0  0  0  0  0  0  0  0  0  0  0
   -5.3597    3.1786   -2.9449 H   0  0  0  0  0  0  0  0  0  0  0  0
   -4.3462    3.6707   -1.5831 H   0  0  0  0  0  0  0  0  0  0  0  0
   -3.4499    1.9200    0.8508 H   0  0  0  0  0  0  0  0  0  0  0  0
   -4.1145    0.4212    0.1927 H   0  0  0  0  0  0  0  0  0  0  0  0
   -1.8984    0.6437    1.9359 H   0  0  0  0  0  0  0  0  0  0  0  0
   -2.7531   -4.1024    3.4826 H   0  0  0  0  0  0  0  0  0  0  0  0
   -2.1268   -5.1401    2.1907 H   0  0  0  0  0  0  0  0  0  0  0  0
   -3.8591   -4.7700    2.2802 H   0  0  0  0  0  0  0  0  0  0  0  0
    0.5772   -0.8953    0.9496 H   0  0  0  0  0  0  0  0  0  0  0  0
    0.5994   -0.8858   -0.8516 H   0  0  0  0  0  0  0  0  0  0  0  0
    2.9024   -0.4898   -0.5973 H   0  0  0  0  0  0  0  0  0  0  0  0
    4.9184    1.5853    1.7626 H   0  0  0  0  0  0  0  0  0  0  0  0
    7.2970    1.2475    2.1511 H   0  0  0  0  0  0  0  0  0  0  0  0
    8.5168   -0.5718    0.9613 H   0  0  0  0  0  0  0  0  0  0  0  0
    5.4006   -2.7803   -1.6803 H   0  0  0  0  0  0  0  0  0  0  0  0
    3.8908   -2.5355   -0.8064 H   0  0  0  0  0  0  0  0  0  0  0  0
    4.3391   -1.4535   -2.1625 H   0  0  0  0  0  0  0  0  0  0  0  0
    0.0704    1.8677    1.6655 H   0  0  0  0  0  0  0  0  0  0  0  0
   -0.0517    2.7222    0.0941 H   0  0  0  0  0  0  0  0  0  0  0  0
   -0.7986    1.5821   -1.9380 H   0  0  0  0  0  0  0  0  0  0  0  0
   -1.5515   -0.0383   -1.9211 H   0  0  0  0  0  0  0  0  0  0  0  0
  1  2  1  0
  2  3  1  0
  3  4  2  0
  3  5  2  0
  3  6  1  0
  6  7  1  0
  7  8  1  0
  8  9  1  0
  9 10  2  0
 10 11  1  0
 11 12  1  0
 11 13  2  0
 13 14  1  0
  8 15  1  0
 15 16  1  0
 16 17  1  0
 17 18  1  0
 18 19  2  0
 18 20  1  0
 20 21  1  0
 21 22  2  0
 22 23  1  0
 23 24  2  0
 24 25  1  0
 25 26  1  0
 25 27  2  0
 27 28  1  0
 17 29  1  0
 15 30  1  0
 30  6  1  0
 14  9  1  0
 29 15  1  0
 27 21  1  0
  1 31  1  0
  1 32  1  0
  1 33  1  0
  2 34  1  0
  2 35  1  0
  7 36  1  0
  7 37  1  0
  8 38  1  0
 12 39  1  0
 12 40  1  0
 12 41  1  0
 16 42  1  0
 16 43  1  0
 20 44  1  0
 22 45  1  0
 23 46  1  0
 24 47  1  0
 28 48  1  0
 28 49  1  0
 28 50  1  0
 29 51  1  0
 29 52  1  0
 30 53  1  0
 30 54  1  0
M  END
$$$$
