
     RDKit          3D

 40 43  0  0  0  0  0  0  0  0999 V2000
    7.9483    1.3809    1.2237 N   0  0  0  0  0  0  0  0  0  0  0  0
    7.0621    0.3535    1.4000 C   0  0  0  0  0  0  0  0  0  0  0  0
    7.3377   -0.5924    2.1258 O   0  0  0  0  0  0  0  0  0  0  0  0
    5.7483    0.4605    0.7129 C   0  0  0  0  0  0  0  0  0  0  0  0
    5.5937    1.2103   -0.4644 C   0  0  0  0  0  0  0  0  0  0  0  0
    4.3531    1.3064   -1.1089 C   0  0  0  0  0  0  0  0  0  0  0  0
    3.2914    0.6169   -0.5217 C   0  0  0  0  0  0  0  0  0  0  0  0
    1.9713    0.4826   -0.8689 N   0  0  0  0  0  0  0  0  0  0  0  0
    1.3426   -0.3190    0.0586 C   0  0  0  0  0  0  0  0  0  0  0  0
   -0.0772   -0.6906    0.0157 C   0  0  0  0  0  0  0  0  0  0  0  0
   -0.5466   -1.6861    0.8883 C   0  0  0  0  0  0  0  0  0  0  0  0
   -1.8888   -2.0748    0.8852 C   0  0  0  0  0  0  0  0  0  0  0  0
   -2.7854   -1.4552    0.0198 C   0  0  0  0  0  0  0  0  0  0  0  0
   -4.0876   -1.8976    0.0378 O   0  0  0  0  0  0  0  0  0  0  0  0
   -5.0754   -0.9411    0.1007 C   0  0  0  0  0  0  0  0  0  0  0  0
   -6.1742   -1.1111   -0.7434 C   0  0  0  0  0  0  0  0  0  0  0  0
   -7.2272   -0.1948   -0.7084 C   0  0  0  0  0  0  0  0  0  0  0  0
   -7.1814    0.8773    0.1825 C   0  0  0  0  0  0  0  0  0  0  0  0
   -8.4782    2.0073    0.2251 Cl  0  0  0  0  0  0  0  0  0  0  0  0
   -6.0959    1.0371    1.0438 C   0  0  0  0  0  0  0  0  0  0  0  0
   -5.0422    0.1210    1.0094 C   0  0  0  0  0  0  0  0  0  0  0  0
   -2.3374   -0.4769   -0.8690 C   0  0  0  0  0  0  0  0  0  0  0  0
   -0.9916   -0.0912   -0.8645 C   0  0  0  0  0  0  0  0  0  0  0  0
    2.2141   -0.7077    0.9737 N   0  0  0  0  0  0  0  0  0  0  0  0
    3.4161   -0.1421    0.6333 C   0  0  0  0  0  0  0  0  0  0  0  0
    4.6617   -0.2349    1.2668 C   0  0  0  0  0  0  0  0  0  0  0  0
    7.6482    2.2906    0.9048 H   0  0  0  0  0  0  0  0  0  0  0  0
    8.7710    1.3476    1.8131 H   0  0  0  0  0  0  0  0  0  0  0  0
    6.4477    1.7104   -0.9152 H   0  0  0  0  0  0  0  0  0  0  0  0
    4.2344    1.8795   -2.0221 H   0  0  0  0  0  0  0  0  0  0  0  0
    1.5373    0.8916   -1.6809 H   0  0  0  0  0  0  0  0  0  0  0  0
    0.1435   -2.1707    1.5785 H   0  0  0  0  0  0  0  0  0  0  0  0
   -2.2292   -2.8535    1.5621 H   0  0  0  0  0  0  0  0  0  0  0  0
   -6.2082   -1.9538   -1.4288 H   0  0  0  0  0  0  0  0  0  0  0  0
   -8.0781   -0.3251   -1.3714 H   0  0  0  0  0  0  0  0  0  0  0  0
   -6.0674    1.8651    1.7471 H   0  0  0  0  0  0  0  0  0  0  0  0
   -4.2083    0.2373    1.6966 H   0  0  0  0  0  0  0  0  0  0  0  0
   -3.0267   -0.0124   -1.5691 H   0  0  0  0  0  0  0  0  0  0  0  0
   -0.6860    0.6860   -1.5578 H   0  0  0  0  0  0  0  0  0  0  0  0
    4.7706   -0.8311    2.1672 H   0  0  0  0  0  0  0  0  0  0  0  0
  1  2  1  0
  2  3  2  0
  2  4  1  0
  4  5  2  0
  5  6  1  0
  6  7  2  0
  7  8  1  0
  8  9  1  0
  9 10  1  0
 10 11  2  0
 11 12  1  0
 12 13  2  0
 13 14  1  0
 14 15  1  0
 15 16  2  0
 16 17  1  0
 17 18  2  0
 18 19  1  0
 18 20  1  0
 20 21  2  0
 13 22  1  0
 22 23  2  0
  9 24  2  0
 24 25  1  0
 25 26  2  0
 26  4  1  0
 25  7  1  0
 23 10  1  0
 21 15  1  0
  1 27  1  0
  1 28  1  0
  5 29  1  0
  6 30  1  0
  8 31  1  0
 11 32  1  0
 12 33  1  0
 16 34  1  0
 17 35  1  0
 20 36  1  0
 21 37  1  0
 22 38  1  0
 23 39  1  0
 26 40  1  0
M  END
$$$$
