
     RDKit          3D

 42 44  0  0  0  0  0  0  0  0999 V2000
   -6.4980   -1.3378    1.3289 C   0  0  0  0  0  0  0  0  0  0  0  0
   -5.3801   -2.3267    0.3708 S   0  0  0  0  0  6  0  0  0  0  0  0
   -6.0381   -2.6742   -0.8742 O   0  0  0  0  0  0  0  0  0  0  0  0
   -4.8283   -3.3533    1.2340 O   0  0  0  0  0  0  0  0  0  0  0  0
   -4.0653   -1.1954   -0.0181 C   0  0  0  0  0  0  0  0  0  0  0  0
   -2.9852   -1.0688    0.8537 C   0  0  0  0  0  0  0  0  0  0  0  0
   -1.9435   -0.1930    0.5329 C   0  0  0  0  0  0  0  0  0  0  0  0
   -1.9542    0.5631   -0.6569 C   0  0  0  0  0  0  0  0  0  0  0  0
   -0.8408    1.4765   -0.9734 C   0  0  0  0  0  0  0  0  0  0  0  0
   -1.0003    2.6803   -1.6558 C   0  0  0  0  0  0  0  0  0  0  0  0
    0.0234    3.5231   -1.9481 N   0  0  0  0  0  0  0  0  0  0  0  0
    1.2547    3.1582   -1.5340 C   0  0  0  0  0  0  0  0  0  0  0  0
    2.3017    4.0226   -1.8875 N   0  0  0  0  0  0  0  0  0  0  0  0
    1.4228    1.9455   -0.8452 C   0  0  0  0  0  0  0  0  0  0  0  0
    2.7692    1.4911   -0.3632 C   0  0  0  0  0  0  0  0  0  0  0  0
    3.7507    2.2135   -0.4928 O   0  0  0  0  0  0  0  0  0  0  0  0
    2.7356    0.2311    0.2081 N   0  0  0  0  0  0  0  0  0  0  0  0
    3.7952   -0.5066    0.7638 C   0  0  0  0  0  0  0  0  0  0  0  0
    5.1114   -0.0479    0.8336 C   0  0  0  0  0  0  0  0  0  0  0  0
    6.1092   -0.8453    1.4039 C   0  0  0  0  0  0  0  0  0  0  0  0
    5.7986   -2.1062    1.9079 C   0  0  0  0  0  0  0  0  0  0  0  0
    4.4886   -2.5724    1.8425 C   0  0  0  0  0  0  0  0  0  0  0  0
    3.4919   -1.7758    1.2732 C   0  0  0  0  0  0  0  0  0  0  0  0
    0.3890    1.0912   -0.5505 N   0  0  0  0  0  0  0  0  0  0  0  0
   -3.0510    0.3952   -1.5249 C   0  0  0  0  0  0  0  0  0  0  0  0
   -4.0990   -0.4787   -1.2139 C   0  0  0  0  0  0  0  0  0  0  0  0
   -6.8418   -0.4984    0.7216 H   0  0  0  0  0  0  0  0  0  0  0  0
   -5.9841   -0.9843    2.2248 H   0  0  0  0  0  0  0  0  0  0  0  0
   -7.3471   -1.9639    1.6112 H   0  0  0  0  0  0  0  0  0  0  0  0
   -2.9360   -1.6482    1.7735 H   0  0  0  0  0  0  0  0  0  0  0  0
   -1.1078   -0.1028    1.2267 H   0  0  0  0  0  0  0  0  0  0  0  0
   -1.9729    3.0274   -1.9892 H   0  0  0  0  0  0  0  0  0  0  0  0
    2.8777    4.1951   -1.0608 H   0  0  0  0  0  0  0  0  0  0  0  0
    2.9336    3.5349   -2.5205 H   0  0  0  0  0  0  0  0  0  0  0  0
    1.8132   -0.1999    0.2148 H   0  0  0  0  0  0  0  0  0  0  0  0
    5.3965    0.9276    0.4536 H   0  0  0  0  0  0  0  0  0  0  0  0
    7.1308   -0.4765    1.4522 H   0  0  0  0  0  0  0  0  0  0  0  0
    6.5768   -2.7230    2.3496 H   0  0  0  0  0  0  0  0  0  0  0  0
    4.2414   -3.5560    2.2334 H   0  0  0  0  0  0  0  0  0  0  0  0
    2.4771   -2.1630    1.2323 H   0  0  0  0  0  0  0  0  0  0  0  0
   -3.0938    0.9235   -2.4764 H   0  0  0  0  0  0  0  0  0  0  0  0
   -4.9217   -0.6018   -1.9161 H   0  0  0  0  0  0  0  0  0  0  0  0
  1  2  1  0
  2  3  2  0
  2  4  2  0
  2  5  1  0
  5  6  2  0
  6  7  1  0
  7  8  2  0
  8  9  1  0
  9 10  2  0
 10 11  1  0
 11 12  2  0
 12 13  1  0
 12 14  1  0
 14 15  1  0
 15 16  2  0
 15 17  1  0
 17 18  1  0
 18 19  2  0
 19 20  1  0
 20 21  2  0
 21 22  1  0
 22 23  2  0
 14 24  2  0
  8 25  1  0
 25 26  2  0
 26  5  1  0
 24  9  1  0
 23 18  1  0
  1 27  1  0
  1 28  1  0
  1 29  1  0
  6 30  1  0
  7 31  1  0
 10 32  1  0
 13 33  1  0
 13 34  1  0
 17 35  1  0
 19 36  1  0
 20 37  1  0
 21 38  1  0
 22 39  1  0
 23 40  1  0
 25 41  1  0
 26 42  1  0
M  END
$$$$
