
     RDKit          3D

 72 77  0  0  0  0  0  0  0  0999 V2000
    0.6906    0.0000    0.0000 Cl  0  0  0  0  0  0  0  0  0  0  0  0
   -0.1429    0.6516   -2.7722 O   0  0  0  0  0  0  0  0  0  0  0  0
   -0.9781    0.2196   -1.9126 C   0  0  0  0  0  0  0  0  0  0  0  0
   -2.4257    0.2093   -2.2484 C   0  0  0  0  0  0  0  0  0  0  0  0
   -3.2556   -0.2687   -1.1996 N   0  0  0  0  0  0  0  0  0  0  0  0
   -3.4361   -1.7097   -1.1335 C   0  0  0  0  0  0  0  0  0  0  0  0
   -3.0998   -2.4372   -2.1204 O   0  0  0  0  0  0  0  0  0  0  0  0
   -4.0159   -2.2433    0.1162 C   0  0  0  0  0  0  0  0  0  0  0  0
   -5.4572   -2.5927    0.0385 C   0  0  0  0  0  0  0  0  0  0  0  0
   -5.6259   -3.7335    1.0526 C   0  0  0  0  0  0  0  0  0  0  0  0
   -4.2454   -4.2417    1.3415 C   0  0  0  0  0  0  0  0  0  0  0  0
   -3.3697   -3.6281    0.2925 C   0  0  0  0  0  0  0  0  0  0  0  0
   -3.6340   -1.4889    1.2750 N   0  0  0  0  0  0  0  0  0  0  0  0
   -3.7199   -0.0868    1.1508 C   0  0  0  0  0  0  0  0  0  0  0  0
   -4.0027    0.4439   -0.2251 C   0  0  1  0  0  0  0  0  0  0  0  0
   -3.9199    1.9055   -0.2250 C   0  0  0  0  0  0  0  0  0  0  0  0
   -5.0956    2.6364   -0.3323 C   0  0  0  0  0  0  0  0  0  0  0  0
   -5.1673    4.0051   -0.3262 C   0  0  0  0  0  0  0  0  0  0  0  0
   -6.3600    4.6723   -0.4358 F   0  0  0  0  0  0  0  0  0  0  0  0
   -3.9727    4.6762   -0.2037 C   0  0  0  0  0  0  0  0  0  0  0  0
   -2.7801    3.9980   -0.0939 C   0  0  0  0  0  0  0  0  0  0  0  0
   -1.5955    4.7058    0.0279 F   0  0  0  0  0  0  0  0  0  0  0  0
   -2.7609    2.6246   -0.1048 C   0  0  0  0  0  0  0  0  0  0  0  0
   -0.4630   -0.2297   -0.6786 N   0  0  0  0  0  0  0  0  0  0  0  0
    0.8828   -0.2554   -0.2605 C   0  0  0  0  0  0  0  0  0  0  0  0
    1.2600   -0.9927    0.8749 C   0  0  0  0  0  0  0  0  0  0  0  0
    2.5319   -1.0574    1.3523 C   0  0  0  0  0  0  0  0  0  0  0  0
    3.5351   -0.3801    0.7210 C   0  0  0  0  0  0  0  0  0  0  0  0
    3.2396    0.3586   -0.3909 C   0  0  0  0  0  0  0  0  0  0  0  0
    1.9133    0.4130   -0.8703 C   0  0  0  0  0  0  0  0  0  0  0  0
    4.4616    1.0096   -0.9191 C   0  0  0  0  0  0  0  0  0  0  0  0
    5.5634    0.2084   -0.2551 C   0  0  1  0  0  0  0  0  0  0  0  0
    4.9810   -0.2956    1.0447 C   0  0  0  0  0  0  0  0  0  0  0  0
    5.9550   -0.8584   -1.1656 C   0  0  0  0  0  0  0  0  0  0  0  0
    5.2192   -1.8104   -1.6092 O   0  0  0  0  0  0  0  0  0  0  0  0
    7.3164   -0.6816   -1.4996 N   0  0  0  0  0  0  0  0  0  0  0  0
    7.7781    0.4856   -0.8060 C   0  0  0  0  0  0  0  0  0  0  0  0
    9.0226    1.0530   -0.8155 N   0  0  0  0  0  0  0  0  0  0  0  0
    9.2844    2.1505   -0.1047 C   0  0  0  0  0  0  0  0  0  0  0  0
    8.2871    2.7204    0.6496 C   0  0  0  0  0  0  0  0  0  0  0  0
    7.0333    2.1706    0.6751 C   0  0  0  0  0  0  0  0  0  0  0  0
    6.7610    1.0287   -0.0644 C   0  0  0  0  0  0  0  0  0  0  0  0
   -0.6906    0.0000    0.0000 H   0  0  0  0  0  0  0  0  0  0  0  0
   -2.7570    1.1859   -2.6652 H   0  0  0  0  0  0  0  0  0  0  0  0
   -2.5331   -0.4946   -3.1257 H   0  0  0  0  0  0  0  0  0  0  0  0
   -5.6765   -3.0301   -0.9437 H   0  0  0  0  0  0  0  0  0  0  0  0
   -6.1644   -1.8211    0.3575 H   0  0  0  0  0  0  0  0  0  0  0  0
   -6.2498   -4.5450    0.6452 H   0  0  0  0  0  0  0  0  0  0  0  0
   -6.0378   -3.3430    2.0163 H   0  0  0  0  0  0  0  0  0  0  0  0
   -4.2111   -5.3513    1.3401 H   0  0  0  0  0  0  0  0  0  0  0  0
   -3.8537   -3.9225    2.3305 H   0  0  0  0  0  0  0  0  0  0  0  0
   -2.3175   -3.5300    0.5999 H   0  0  0  0  0  0  0  0  0  0  0  0
   -3.4863   -4.1769   -0.6675 H   0  0  0  0  0  0  0  0  0  0  0  0
   -4.1007   -1.9106    2.1004 H   0  0  0  0  0  0  0  0  0  0  0  0
   -2.7732    0.3759    1.4993 H   0  0  0  0  0  0  0  0  0  0  0  0
   -4.4856    0.2765    1.8965 H   0  0  0  0  0  0  0  0  0  0  0  0
   -5.0887    0.1650   -0.4231 H   0  0  0  0  0  0  0  0  0  0  0  0
   -6.0678    2.1256   -0.4316 H   0  0  0  0  0  0  0  0  0  0  0  0
   -3.9615    5.7718   -0.1925 H   0  0  0  0  0  0  0  0  0  0  0  0
   -1.8026    2.1100   -0.0019 H   0  0  0  0  0  0  0  0  0  0  0  0
   -1.1563   -0.5984    0.0345 H   0  0  0  0  0  0  0  0  0  0  0  0
    0.4435   -1.5287    1.3646 H   0  0  0  0  0  0  0  0  0  0  0  0
    2.7374   -1.6463    2.2298 H   0  0  0  0  0  0  0  0  0  0  0  0
    1.7233    1.0127   -1.7413 H   0  0  0  0  0  0  0  0  0  0  0  0
    4.4477    2.0529   -0.5928 H   0  0  0  0  0  0  0  0  0  0  0  0
    4.4582    0.8780   -2.0189 H   0  0  0  0  0  0  0  0  0  0  0  0
    5.1824    0.3716    1.8993 H   0  0  0  0  0  0  0  0  0  0  0  0
    5.3700   -1.3126    1.2897 H   0  0  0  0  0  0  0  0  0  0  0  0
    7.8965   -1.2960   -2.1445 H   0  0  0  0  0  0  0  0  0  0  0  0
   10.2759    2.6283   -0.0936 H   0  0  0  0  0  0  0  0  0  0  0  0
    8.4781    3.6247    1.2437 H   0  0  0  0  0  0  0  0  0  0  0  0
    6.2084    2.5734    1.2491 H   0  0  0  0  0  0  0  0  0  0  0  0
  2  3  2  0
  3  4  1  0
  4  5  1  0
  5  6  1  0
  6  7  2  0
  6  8  1  0
  8  9  1  0
  9 10  1  0
 10 11  1  0
 11 12  1  0
  8 13  1  0
 13 14  1  0
 14 15  1  0
 15 16  1  0
 16 17  2  0
 17 18  1  0
 18 19  1  0
 18 20  2  0
 20 21  1  0
 21 22  1  0
 21 23  2  0
  3 24  1  0
 24 25  1  0
 25 26  2  0
 26 27  1  0
 27 28  2  0
 28 29  1  0
 29 30  2  0
 29 31  1  0
 32 31  1  6
 32 33  1  0
 32 34  1  0
 34 35  2  0
 34 36  1  0
 36 37  1  0
 37 38  2  0
 38 39  1  0
 39 40  2  0
 40 41  1  0
 41 42  2  0
 15  5  1  0
 23 16  1  0
 30 25  1  0
 42 32  1  0
 12  8  1  0
 33 28  1  0
 42 37  1  0
  1 43  1  0
  4 44  1  0
  4 45  1  0
  9 46  1  0
  9 47  1  0
 10 48  1  0
 10 49  1  0
 11 50  1  0
 11 51  1  0
 12 52  1  0
 12 53  1  0
 13 54  1  0
 14 55  1  0
 14 56  1  0
 15 57  1  6
 17 58  1  0
 20 59  1  0
 23 60  1  0
 24 61  1  0
 26 62  1  0
 27 63  1  0
 30 64  1  0
 31 65  1  0
 31 66  1  0
 33 67  1  0
 33 68  1  0
 36 69  1  0
 39 70  1  0
 40 71  1  0
 41 72  1  0
M  END
$$$$
