
     RDKit          3D

101106  0  0  0  0  0  0  0  0999 V2000
   -7.1214   -0.2460   -3.0615 N   0  0  0  0  0  0  0  0  0  0  0  0
   -6.8811   -1.5737   -2.5077 C   0  0  0  0  0  0  0  0  0  0  0  0
   -5.5124   -2.1457   -2.8874 C   0  0  0  0  0  0  0  0  0  0  0  0
   -4.3042   -1.3443   -2.3900 C   0  0  0  0  0  0  0  0  0  0  0  0
   -4.2156   -1.2565   -0.8651 C   0  0  0  0  0  0  0  0  0  0  0  0
   -2.9918   -0.4493   -0.3982 C   0  0  2  0  0  0  0  0  0  0  0  0
   -1.7593   -1.1928   -0.6699 N   0  0  0  0  0  0  0  0  0  0  0  0
   -0.5557   -0.5240   -0.7938 C   0  0  0  0  0  0  0  0  0  0  0  0
   -0.4694    0.7014   -0.8585 O   0  0  0  0  0  0  0  0  0  0  0  0
    0.6763   -1.4442   -0.8714 C   0  0  1  0  0  0  0  0  0  0  0  0
    1.0209   -1.7635   -2.3357 C   0  0  0  0  0  0  0  0  0  0  0  0
    0.0120   -2.6349   -3.0491 C   0  0  0  0  0  0  0  0  0  0  0  0
   -0.2099   -3.9576   -2.6386 C   0  0  0  0  0  0  0  0  0  0  0  0
   -1.1467   -4.7542   -3.3032 C   0  0  0  0  0  0  0  0  0  0  0  0
   -1.4332   -6.5292   -2.6988 Br  0  0  0  0  0  0  0  0  0  0  0  0
   -1.8632   -4.2461   -4.3900 C   0  0  0  0  0  0  0  0  0  0  0  0
   -2.7927   -5.0148   -5.0404 O   0  0  0  0  0  0  0  0  0  0  0  0
   -1.6357   -2.9361   -4.8134 C   0  0  0  0  0  0  0  0  0  0  0  0
   -2.5869   -2.1872   -6.2742 Br  0  0  0  0  0  0  0  0  0  0  0  0
   -0.7031   -2.1344   -4.1466 C   0  0  0  0  0  0  0  0  0  0  0  0
    1.7928   -0.7586   -0.2223 N   0  0  0  0  0  0  0  0  0  0  0  0
    2.8352   -1.4788    0.2920 C   0  0  0  0  0  0  0  0  0  0  0  0
    2.8803   -2.7005    0.1785 O   0  0  0  0  0  0  0  0  0  0  0  0
    3.8239   -0.7326    0.9019 N   0  0  0  0  0  0  0  0  0  0  0  0
    4.9567   -1.4243    1.5096 C   0  0  0  0  0  0  0  0  0  0  0  0
    6.2557   -1.0364    0.8119 C   0  0  0  0  0  0  0  0  0  0  0  0
    6.3818    0.4899    0.6281 C   0  0  0  0  0  0  0  0  0  0  0  0
    7.7175    0.9982    0.9804 N   0  0  0  0  0  0  0  0  0  0  0  0
    8.6469    1.2127   -0.1220 C   0  0  0  0  0  0  0  0  0  0  0  0
    9.9067    1.9156    0.2673 C   0  0  0  0  0  0  0  0  0  0  0  0
   10.7505    2.4994   -0.6851 C   0  0  0  0  0  0  0  0  0  0  0  0
   11.9572    3.0792   -0.2899 C   0  0  0  0  0  0  0  0  0  0  0  0
   12.3302    3.0662    1.0546 C   0  0  0  0  0  0  0  0  0  0  0  0
   11.4973    2.4753    2.0057 C   0  0  0  0  0  0  0  0  0  0  0  0
   10.2866    1.9133    1.6038 C   0  0  0  0  0  0  0  0  0  0  0  0
    9.4353    1.3355    2.5393 N   0  0  0  0  0  0  0  0  0  0  0  0
    8.1722    0.8898    2.2812 C   0  0  0  0  0  0  0  0  0  0  0  0
    7.4974    0.4392    3.2057 O   0  0  0  0  0  0  0  0  0  0  0  0
    5.2500    1.2716    1.3173 C   0  0  0  0  0  0  0  0  0  0  0  0
    3.8918    0.7283    0.8772 C   0  0  0  0  0  0  0  0  0  0  0  0
   -3.0934   -0.2050    1.1291 C   0  0  0  0  0  0  0  0  0  0  0  0
   -2.4054   -0.8769    1.9060 O   0  0  0  0  0  0  0  0  0  0  0  0
   -4.0295    0.7104    1.5910 N   0  0  0  0  0  0  0  0  0  0  0  0
   -4.1104    0.9740    3.0330 C   0  0  0  0  0  0  0  0  0  0  0  0
   -5.5601    1.1933    3.5107 C   0  0  0  0  0  0  0  0  0  0  0  0
   -6.2565    2.2012    2.6678 N   0  0  0  0  0  0  0  0  0  0  0  0
   -7.5102    2.5706    3.1943 C   0  0  0  0  0  0  0  0  0  0  0  0
   -7.5580    3.2792    4.3999 C   0  0  0  0  0  0  0  0  0  0  0  0
   -8.7869    3.6541    4.9247 C   0  0  0  0  0  0  0  0  0  0  0  0
   -9.9686    3.3719    4.3437 N   0  0  0  0  0  0  0  0  0  0  0  0
   -9.9126    2.6958    3.1801 C   0  0  0  0  0  0  0  0  0  0  0  0
   -8.7301    2.2856    2.5748 C   0  0  0  0  0  0  0  0  0  0  0  0
   -6.1980    1.8769    1.2262 C   0  0  0  0  0  0  0  0  0  0  0  0
   -4.7350    1.7063    0.7692 C   0  0  0  0  0  0  0  0  0  0  0  0
   -6.3643    0.3860   -2.8106 H   0  0  0  0  0  0  0  0  0  0  0  0
   -7.1005   -0.3029   -4.0813 H   0  0  0  0  0  0  0  0  0  0  0  0
   -7.6617   -2.2464   -2.8786 H   0  0  0  0  0  0  0  0  0  0  0  0
   -6.9995   -1.5373   -1.4201 H   0  0  0  0  0  0  0  0  0  0  0  0
   -5.4474   -2.2314   -3.9794 H   0  0  0  0  0  0  0  0  0  0  0  0
   -5.4429   -3.1681   -2.4966 H   0  0  0  0  0  0  0  0  0  0  0  0
   -3.4011   -1.8329   -2.7667 H   0  0  0  0  0  0  0  0  0  0  0  0
   -4.3131   -0.3377   -2.8228 H   0  0  0  0  0  0  0  0  0  0  0  0
   -5.1289   -0.8022   -0.4728 H   0  0  0  0  0  0  0  0  0  0  0  0
   -4.1755   -2.2693   -0.4453 H   0  0  0  0  0  0  0  0  0  0  0  0
   -2.9268    0.5154   -0.9114 H   0  0  0  0  0  0  0  0  0  0  0  0
   -1.7010   -2.0935   -0.2065 H   0  0  0  0  0  0  0  0  0  0  0  0
    0.4680   -2.3596   -0.3056 H   0  0  0  0  0  0  0  0  0  0  0  0
    1.9925   -2.2712   -2.3965 H   0  0  0  0  0  0  0  0  0  0  0  0
    1.1541   -0.8223   -2.8863 H   0  0  0  0  0  0  0  0  0  0  0  0
    0.3582   -4.3673   -1.8050 H   0  0  0  0  0  0  0  0  0  0  0  0
   -2.7923   -5.8962   -4.6260 H   0  0  0  0  0  0  0  0  0  0  0  0
   -0.5359   -1.1126   -4.4813 H   0  0  0  0  0  0  0  0  0  0  0  0
    1.5768    0.1319    0.2043 H   0  0  0  0  0  0  0  0  0  0  0  0
    4.9845   -1.1469    2.5694 H   0  0  0  0  0  0  0  0  0  0  0  0
    4.8280   -2.5104    1.4728 H   0  0  0  0  0  0  0  0  0  0  0  0
    7.1042   -1.4612    1.3606 H   0  0  0  0  0  0  0  0  0  0  0  0
    6.2806   -1.4998   -0.1833 H   0  0  0  0  0  0  0  0  0  0  0  0
    6.2580    0.6873   -0.4471 H   0  0  0  0  0  0  0  0  0  0  0  0
    8.8954    0.2307   -0.5424 H   0  0  0  0  0  0  0  0  0  0  0  0
    8.1293    1.8072   -0.8848 H   0  0  0  0  0  0  0  0  0  0  0  0
   10.4788    2.4974   -1.7381 H   0  0  0  0  0  0  0  0  0  0  0  0
   12.6117    3.5323   -1.0309 H   0  0  0  0  0  0  0  0  0  0  0  0
   13.2730    3.5118    1.3610 H   0  0  0  0  0  0  0  0  0  0  0  0
   11.7982    2.4671    3.0495 H   0  0  0  0  0  0  0  0  0  0  0  0
    9.7045    1.2989    3.5123 H   0  0  0  0  0  0  0  0  0  0  0  0
    5.3199    2.3397    1.0765 H   0  0  0  0  0  0  0  0  0  0  0  0
    5.3271    1.2012    2.4079 H   0  0  0  0  0  0  0  0  0  0  0  0
    3.6735    1.0652   -0.1428 H   0  0  0  0  0  0  0  0  0  0  0  0
    3.1027    1.1181    1.5291 H   0  0  0  0  0  0  0  0  0  0  0  0
   -3.5133    1.8755    3.2211 H   0  0  0  0  0  0  0  0  0  0  0  0
   -3.6603    0.1584    3.6083 H   0  0  0  0  0  0  0  0  0  0  0  0
   -6.1056    0.2414    3.4591 H   0  0  0  0  0  0  0  0  0  0  0  0
   -5.5252    1.5016    4.5615 H   0  0  0  0  0  0  0  0  0  0  0  0
   -6.6464    3.5646    4.9138 H   0  0  0  0  0  0  0  0  0  0  0  0
   -8.8484    4.2162    5.8523 H   0  0  0  0  0  0  0  0  0  0  0  0
  -10.8740    2.4785    2.7249 H   0  0  0  0  0  0  0  0  0  0  0  0
   -8.7941    1.7354    1.6452 H   0  0  0  0  0  0  0  0  0  0  0  0
   -6.6553    2.6792    0.6359 H   0  0  0  0  0  0  0  0  0  0  0  0
   -6.7374    0.9417    1.0262 H   0  0  0  0  0  0  0  0  0  0  0  0
   -4.1908    2.6518    0.8826 H   0  0  0  0  0  0  0  0  0  0  0  0
   -4.7155    1.4471   -0.2900 H   0  0  0  0  0  0  0  0  0  0  0  0
  1  2  1  0
  2  3  1  0
  3  4  1  0
  4  5  1  0
  5  6  1  0
  6  7  1  0
  7  8  1  0
  8  9  2  0
  8 10  1  0
 10 11  1  0
 11 12  1  0
 12 13  2  0
 13 14  1  0
 14 15  1  0
 14 16  2  0
 16 17  1  0
 16 18  1  0
 18 19  1  0
 18 20  2  0
 10 21  1  0
 21 22  1  0
 22 23  2  0
 22 24  1  0
 24 25  1  0
 25 26  1  0
 26 27  1  0
 27 28  1  0
 28 29  1  0
 29 30  1  0
 30 31  2  0
 31 32  1  0
 32 33  2  0
 33 34  1  0
 34 35  2  0
 35 36  1  0
 36 37  1  0
 37 38  2  0
 27 39  1  0
 39 40  1  0
  6 41  1  0
 41 42  2  0
 41 43  1  0
 43 44  1  0
 44 45  1  0
 45 46  1  0
 46 47  1  0
 47 48  2  0
 48 49  1  0
 49 50  2  0
 50 51  1  0
 51 52  2  0
 46 53  1  0
 53 54  1  0
 20 12  1  0
 40 24  1  0
 54 43  1  0
 37 28  1  0
 52 47  1  0
 35 30  1  0
  1 55  1  0
  1 56  1  0
  2 57  1  0
  2 58  1  0
  3 59  1  0
  3 60  1  0
  4 61  1  0
  4 62  1  0
  5 63  1  0
  5 64  1  0
  6 65  1  6
  7 66  1  0
 10 67  1  1
 11 68  1  0
 11 69  1  0
 13 70  1  0
 17 71  1  0
 20 72  1  0
 21 73  1  0
 25 74  1  0
 25 75  1  0
 26 76  1  0
 26 77  1  0
 27 78  1  0
 29 79  1  0
 29 80  1  0
 31 81  1  0
 32 82  1  0
 33 83  1  0
 34 84  1  0
 36 85  1  0
 39 86  1  0
 39 87  1  0
 40 88  1  0
 40 89  1  0
 44 90  1  0
 44 91  1  0
 45 92  1  0
 45 93  1  0
 48 94  1  0
 49 95  1  0
 51 96  1  0
 52 97  1  0
 53 98  1  0
 53 99  1  0
 54100  1  0
 54101  1  0
M  END
$$$$
