
     RDKit          3D

 35 37  0  0  0  0  0  0  0  0999 V2000
    4.0072    2.8849    0.3169 C   0  0  0  0  0  0  0  0  0  0  0  0
    3.9032    1.8263   -0.6286 O   0  0  0  0  0  0  0  0  0  0  0  0
    2.9443    0.8808   -0.4013 C   0  0  0  0  0  0  0  0  0  0  0  0
    2.9252   -0.1662   -1.3230 C   0  0  0  0  0  0  0  0  0  0  0  0
    1.9987   -1.2094   -1.2120 C   0  0  0  0  0  0  0  0  0  0  0  0
    1.0666   -1.2197   -0.1732 C   0  0  0  0  0  0  0  0  0  0  0  0
    0.1324   -2.1941    0.0120 O   0  0  0  0  0  0  0  0  0  0  0  0
    0.2252   -3.3711   -0.7841 C   0  0  0  0  0  0  0  0  0  0  0  0
    1.0780   -0.1576    0.7376 C   0  0  0  0  0  0  0  0  0  0  0  0
   -0.0882   -0.0740    2.0709 S   0  0  0  0  0  6  0  0  0  0  0  0
   -0.2773    1.3297    2.4042 O   0  0  0  0  0  0  0  0  0  0  0  0
    0.3110   -1.0435    3.0730 O   0  0  0  0  0  0  0  0  0  0  0  0
   -1.5942   -0.5726    1.4393 N   0  0  0  0  0  0  0  0  0  0  0  0
   -2.3142   -1.6345    1.8794 N   0  0  0  0  0  0  0  0  0  0  0  0
   -3.4162   -1.7062    1.1459 N   0  0  0  0  0  0  0  0  0  0  0  0
   -3.4102   -0.6616    0.2632 C   0  0  0  0  0  0  0  0  0  0  0  0
   -4.3537   -0.3011   -0.7085 C   0  0  0  0  0  0  0  0  0  0  0  0
   -4.1024    0.8352   -1.4809 C   0  0  0  0  0  0  0  0  0  0  0  0
   -5.2419    1.3038   -2.6844 Cl  0  0  0  0  0  0  0  0  0  0  0  0
   -2.9487    1.5993   -1.2960 C   0  0  0  0  0  0  0  0  0  0  0  0
   -1.9965    1.2505   -0.3305 C   0  0  0  0  0  0  0  0  0  0  0  0
   -2.2587    0.1031    0.4324 C   0  0  0  0  0  0  0  0  0  0  0  0
    2.0167    0.8846    0.6349 C   0  0  0  0  0  0  0  0  0  0  0  0
    3.0956    3.4914    0.3295 H   0  0  0  0  0  0  0  0  0  0  0  0
    4.8333    3.5313    0.0053 H   0  0  0  0  0  0  0  0  0  0  0  0
    4.2417    2.5013    1.3154 H   0  0  0  0  0  0  0  0  0  0  0  0
    3.6468   -0.1749   -2.1380 H   0  0  0  0  0  0  0  0  0  0  0  0
    2.0373   -1.9964   -1.9591 H   0  0  0  0  0  0  0  0  0  0  0  0
   -0.5414   -4.0698   -0.4359 H   0  0  0  0  0  0  0  0  0  0  0  0
    0.0199   -3.1473   -1.8358 H   0  0  0  0  0  0  0  0  0  0  0  0
    1.1998   -3.8556   -0.6640 H   0  0  0  0  0  0  0  0  0  0  0  0
   -5.2518   -0.8937   -0.8445 H   0  0  0  0  0  0  0  0  0  0  0  0
   -2.7822    2.4850   -1.9073 H   0  0  0  0  0  0  0  0  0  0  0  0
   -1.1084    1.8595   -0.1879 H   0  0  0  0  0  0  0  0  0  0  0  0
    2.0030    1.6824    1.3722 H   0  0  0  0  0  0  0  0  0  0  0  0
  1  2  1  0
  2  3  1  0
  3  4  2  0
  4  5  1  0
  5  6  2  0
  6  7  1  0
  7  8  1  0
  6  9  1  0
  9 10  1  0
 10 11  2  0
 10 12  2  0
 10 13  1  0
 13 14  1  0
 14 15  2  0
 15 16  1  0
 16 17  2  0
 17 18  1  0
 18 19  1  0
 18 20  2  0
 20 21  1  0
 21 22  2  0
  9 23  2  0
 23  3  1  0
 22 13  1  0
 22 16  1  0
  1 24  1  0
  1 25  1  0
  1 26  1  0
  4 27  1  0
  5 28  1  0
  8 29  1  0
  8 30  1  0
  8 31  1  0
 17 32  1  0
 20 33  1  0
 21 34  1  0
 23 35  1  0
M  END
$$$$
