
     RDKit          3D

 49 50  0  0  0  0  0  0  0  0999 V2000
   -5.2806    3.6044    1.1669 C   0  0  0  0  0  0  0  0  0  0  0  0
   -5.5078    2.3454    0.5452 O   0  0  0  0  0  0  0  0  0  0  0  0
   -4.5650    1.3769    0.7527 C   0  0  0  0  0  0  0  0  0  0  0  0
   -4.8541    0.1440    0.1637 C   0  0  0  0  0  0  0  0  0  0  0  0
   -3.9768   -0.9345    0.2962 C   0  0  0  0  0  0  0  0  0  0  0  0
   -2.7899   -0.7932    1.0248 C   0  0  0  0  0  0  0  0  0  0  0  0
   -1.8292   -1.9522    1.1662 C   0  0  0  0  0  0  0  0  0  0  0  0
   -1.0324   -2.2690   -0.1257 C   0  0  0  0  0  0  0  0  0  0  0  0
   -0.2452   -3.5671    0.0848 C   0  0  0  0  0  0  0  0  0  0  0  0
   -0.1216   -1.1570   -0.4512 N   0  0  0  0  0  0  0  0  0  0  0  0
    0.3961   -1.2152   -1.8283 C   0  0  0  0  0  0  0  0  0  0  0  0
    1.3068   -0.0107   -2.1763 C   0  0  0  0  0  0  0  0  0  0  0  0
    1.5889   -0.0251   -3.5799 O   0  0  0  0  0  0  0  0  0  0  0  0
    2.6113    0.0027   -1.4029 C   0  0  0  0  0  0  0  0  0  0  0  0
    3.6565   -0.8789   -1.7280 C   0  0  0  0  0  0  0  0  0  0  0  0
    4.8470   -0.8723   -0.9996 C   0  0  0  0  0  0  0  0  0  0  0  0
    4.9889    0.0151    0.0625 C   0  0  0  0  0  0  0  0  0  0  0  0
    6.1486    0.0414    0.8000 O   0  0  0  0  0  0  0  0  0  0  0  0
    3.9608    0.9028    0.4105 C   0  0  0  0  0  0  0  0  0  0  0  0
    4.2022    1.7540    1.5055 N   0  0  0  0  0  0  0  0  0  0  0  0
    3.3880    2.7319    2.0154 C   0  0  0  0  0  0  0  0  0  0  0  0
    2.2809    3.0883    1.6395 O   0  0  0  0  0  0  0  0  0  0  0  0
    2.7761    0.8915   -0.3256 C   0  0  0  0  0  0  0  0  0  0  0  0
   -2.5019    0.4447    1.6144 C   0  0  0  0  0  0  0  0  0  0  0  0
   -3.3827    1.5233    1.4791 C   0  0  0  0  0  0  0  0  0  0  0  0
   -5.2477    3.5063    2.2573 H   0  0  0  0  0  0  0  0  0  0  0  0
   -6.1234    4.2568    0.9174 H   0  0  0  0  0  0  0  0  0  0  0  0
   -4.3717    4.0760    0.7810 H   0  0  0  0  0  0  0  0  0  0  0  0
   -5.7745    0.0223   -0.4026 H   0  0  0  0  0  0  0  0  0  0  0  0
   -4.2288   -1.8833   -0.1712 H   0  0  0  0  0  0  0  0  0  0  0  0
   -1.1369   -1.7607    1.9961 H   0  0  0  0  0  0  0  0  0  0  0  0
   -2.4118   -2.8331    1.4689 H   0  0  0  0  0  0  0  0  0  0  0  0
   -1.7453   -2.4157   -0.9470 H   0  0  0  0  0  0  0  0  0  0  0  0
    0.5091   -3.4532    0.8726 H   0  0  0  0  0  0  0  0  0  0  0  0
    0.2670   -3.8884   -0.8288 H   0  0  0  0  0  0  0  0  0  0  0  0
   -0.9163   -4.3813    0.3793 H   0  0  0  0  0  0  0  0  0  0  0  0
   -0.6322   -0.2779   -0.3474 H   0  0  0  0  0  0  0  0  0  0  0  0
    0.9528   -2.1414   -2.0026 H   0  0  0  0  0  0  0  0  0  0  0  0
   -0.4433   -1.2238   -2.5353 H   0  0  0  0  0  0  0  0  0  0  0  0
    0.7576    0.9207   -1.9919 H   0  0  0  0  0  0  0  0  0  0  0  0
    2.3053    0.6185   -3.7209 H   0  0  0  0  0  0  0  0  0  0  0  0
    3.5389   -1.5809   -2.5532 H   0  0  0  0  0  0  0  0  0  0  0  0
    5.6388   -1.5623   -1.2718 H   0  0  0  0  0  0  0  0  0  0  0  0
    6.7518   -0.6290    0.4375 H   0  0  0  0  0  0  0  0  0  0  0  0
    5.1102    1.6166    1.9381 H   0  0  0  0  0  0  0  0  0  0  0  0
    3.8718    3.2226    2.8770 H   0  0  0  0  0  0  0  0  0  0  0  0
    1.9567    1.5559   -0.0654 H   0  0  0  0  0  0  0  0  0  0  0  0
   -1.5828    0.5820    2.1819 H   0  0  0  0  0  0  0  0  0  0  0  0
   -3.1100    2.4623    1.9505 H   0  0  0  0  0  0  0  0  0  0  0  0
  1  2  1  0
  2  3  1  0
  3  4  2  0
  4  5  1  0
  5  6  2  0
  6  7  1  0
  7  8  1  0
  8  9  1  0
  8 10  1  0
 10 11  1  0
 11 12  1  0
 12 13  1  0
 12 14  1  0
 14 15  2  0
 15 16  1  0
 16 17  2  0
 17 18  1  0
 17 19  1  0
 19 20  1  0
 20 21  1  0
 21 22  2  0
 19 23  2  0
  6 24  1  0
 24 25  2  0
 25  3  1  0
 23 14  1  0
  1 26  1  0
  1 27  1  0
  1 28  1  0
  4 29  1  0
  5 30  1  0
  7 31  1  0
  7 32  1  0
  8 33  1  0
  9 34  1  0
  9 35  1  0
  9 36  1  0
 10 37  1  0
 11 38  1  0
 11 39  1  0
 12 40  1  0
 13 41  1  0
 15 42  1  0
 16 43  1  0
 18 44  1  0
 20 45  1  0
 21 46  1  0
 23 47  1  0
 24 48  1  0
 25 49  1  0
M  END
$$$$
