
     RDKit          3D

 28 30  0  0  0  0  0  0  0  0999 V2000
   -5.3820   -0.0901   -0.1140 C   0  0  0  0  0  0  0  0  0  0  0  0
   -3.8852   -0.0243   -0.1564 C   0  0  0  0  0  0  0  0  0  0  0  0
   -3.1264   -0.3404    0.9698 C   0  0  0  0  0  0  0  0  0  0  0  0
   -1.7248   -0.3096    0.9218 C   0  0  0  0  0  0  0  0  0  0  0  0
   -1.0331    0.0268   -0.2513 C   0  0  0  0  0  0  0  0  0  0  0  0
    0.3996    0.0594   -0.2990 N   0  0  0  0  0  0  0  0  0  0  0  0
    1.2463    0.4759   -1.7567 S   0  0  0  0  0  0  0  0  0  0  0  0
    2.8096    0.2812   -0.9728 C   0  0  0  0  0  0  0  0  0  0  0  0
    4.0677    0.4538   -1.5302 C   0  0  0  0  0  0  0  0  0  0  0  0
    5.1932    0.2471   -0.7257 C   0  0  0  0  0  0  0  0  0  0  0  0
    5.0505   -0.1274    0.6186 C   0  0  0  0  0  0  0  0  0  0  0  0
    3.7802   -0.2988    1.1712 C   0  0  0  0  0  0  0  0  0  0  0  0
    2.6729   -0.0892    0.3569 C   0  0  0  0  0  0  0  0  0  0  0  0
    1.2629   -0.2243    0.7717 C   0  0  0  0  0  0  0  0  0  0  0  0
    1.0094   -0.5468    1.9240 O   0  0  0  0  0  0  0  0  0  0  0  0
   -1.8172    0.3273   -1.3806 C   0  0  0  0  0  0  0  0  0  0  0  0
   -3.2185    0.2978   -1.3374 C   0  0  0  0  0  0  0  0  0  0  0  0
   -5.8245    0.6257   -0.8148 H   0  0  0  0  0  0  0  0  0  0  0  0
   -5.7559    0.1600    0.8844 H   0  0  0  0  0  0  0  0  0  0  0  0
   -5.7201   -1.0973   -0.3765 H   0  0  0  0  0  0  0  0  0  0  0  0
   -3.6141   -0.6148    1.9030 H   0  0  0  0  0  0  0  0  0  0  0  0
   -1.2054   -0.5627    1.8404 H   0  0  0  0  0  0  0  0  0  0  0  0
    4.1832    0.7437   -2.5703 H   0  0  0  0  0  0  0  0  0  0  0  0
    6.1887    0.3777   -1.1452 H   0  0  0  0  0  0  0  0  0  0  0  0
    5.9342   -0.2850    1.2334 H   0  0  0  0  0  0  0  0  0  0  0  0
    3.6562   -0.5886    2.2108 H   0  0  0  0  0  0  0  0  0  0  0  0
   -1.3672    0.5919   -2.3329 H   0  0  0  0  0  0  0  0  0  0  0  0
   -3.7803    0.5310   -2.2394 H   0  0  0  0  0  0  0  0  0  0  0  0
  1  2  1  0
  2  3  2  0
  3  4  1  0
  4  5  2  0
  5  6  1  0
  6  7  1  0
  7  8  1  0
  8  9  2  0
  9 10  1  0
 10 11  2  0
 11 12  1  0
 12 13  2  0
 13 14  1  0
 14 15  2  0
  5 16  1  0
 16 17  2  0
 17  2  1  0
 14  6  1  0
 13  8  1  0
  1 18  1  0
  1 19  1  0
  1 20  1  0
  3 21  1  0
  4 22  1  0
  9 23  1  0
 10 24  1  0
 11 25  1  0
 12 26  1  0
 16 27  1  0
 17 28  1  0
M  END
$$$$
