
     RDKit          3D

 47 50  0  0  0  0  0  0  0  0999 V2000
   -5.0351   -2.5742    0.7802 C   0  0  0  0  0  0  0  0  0  0  0  0
   -4.3039   -1.4018    0.2966 N   0  0  0  0  0  0  0  0  0  0  0  0
   -2.9299   -1.4225    0.5347 C   0  0  0  0  0  0  0  0  0  0  0  0
   -2.3828   -2.3617    1.1301 O   0  0  0  0  0  0  0  0  0  0  0  0
   -2.0851   -0.2496    0.0688 C   0  0  1  0  0  0  0  0  0  0  0  0
   -0.6863   -0.5379    0.3771 N   0  0  0  0  0  0  0  0  0  0  0  0
    0.2945    0.4238    0.3467 C   0  0  0  0  0  0  0  0  0  0  0  0
    0.0894    1.5694   -0.0434 O   0  0  0  0  0  0  0  0  0  0  0  0
    1.6043   -0.0257    0.8198 C   0  0  0  0  0  0  0  0  0  0  0  0
    2.7977    0.7355    0.8907 C   0  0  0  0  0  0  0  0  0  0  0  0
    3.7359   -0.1331    1.3915 C   0  0  0  0  0  0  0  0  0  0  0  0
    5.1774   -0.0248    1.7248 C   0  0  0  0  0  0  0  0  0  0  0  0
    6.0339    0.2984    0.5225 C   0  0  0  0  0  0  0  0  0  0  0  0
    6.3463   -0.6985   -0.4139 C   0  0  0  0  0  0  0  0  0  0  0  0
    7.1245   -0.3996   -1.5331 C   0  0  0  0  0  0  0  0  0  0  0  0
    7.5955    0.8972   -1.7296 C   0  0  0  0  0  0  0  0  0  0  0  0
    7.2870    1.8970   -0.8089 C   0  0  0  0  0  0  0  0  0  0  0  0
    6.5085    1.6011    0.3113 C   0  0  0  0  0  0  0  0  0  0  0  0
    3.1490   -1.3390    1.6159 O   0  0  0  0  0  0  0  0  0  0  0  0
    1.8141   -1.2797    1.2600 N   0  0  0  0  0  0  0  0  0  0  0  0
   -2.3407   -0.1221   -1.4197 C   0  0  0  0  0  0  0  0  0  0  0  0
   -3.3264    0.8655   -1.6604 O   0  0  0  0  0  0  0  0  0  0  0  0
   -4.5700    0.7005   -1.1197 C   0  0  0  0  0  0  0  0  0  0  0  0
   -5.4227    1.7304   -1.5700 C   0  0  0  0  0  0  0  0  0  0  0  0
   -6.7632    1.7848   -1.2100 C   0  0  0  0  0  0  0  0  0  0  0  0
   -7.2732    0.8013   -0.3846 C   0  0  0  0  0  0  0  0  0  0  0  0
   -6.4362   -0.2213    0.0755 C   0  0  0  0  0  0  0  0  0  0  0  0
   -5.0625   -0.3069   -0.2654 C   0  0  0  0  0  0  0  0  0  0  0  0
   -5.8481   -2.8303    0.0930 H   0  0  0  0  0  0  0  0  0  0  0  0
   -5.4198   -2.3687    1.7841 H   0  0  0  0  0  0  0  0  0  0  0  0
   -4.3890   -3.4560    0.8385 H   0  0  0  0  0  0  0  0  0  0  0  0
   -2.3695    0.6462    0.6331 H   0  0  0  0  0  0  0  0  0  0  0  0
   -0.4663   -1.4327    0.8153 H   0  0  0  0  0  0  0  0  0  0  0  0
    2.9398    1.7671    0.6041 H   0  0  0  0  0  0  0  0  0  0  0  0
    5.3100    0.7455    2.4950 H   0  0  0  0  0  0  0  0  0  0  0  0
    5.5399   -0.9578    2.1753 H   0  0  0  0  0  0  0  0  0  0  0  0
    5.9793   -1.7140   -0.2778 H   0  0  0  0  0  0  0  0  0  0  0  0
    7.3603   -1.1785   -2.2535 H   0  0  0  0  0  0  0  0  0  0  0  0
    8.2001    1.1294   -2.6024 H   0  0  0  0  0  0  0  0  0  0  0  0
    7.6514    2.9093   -0.9652 H   0  0  0  0  0  0  0  0  0  0  0  0
    6.2745    2.3955    1.0167 H   0  0  0  0  0  0  0  0  0  0  0  0
   -1.4397    0.2227   -1.9394 H   0  0  0  0  0  0  0  0  0  0  0  0
   -2.6265   -1.0634   -1.9076 H   0  0  0  0  0  0  0  0  0  0  0  0
   -5.0228    2.5017   -2.2273 H   0  0  0  0  0  0  0  0  0  0  0  0
   -7.3972    2.5883   -1.5738 H   0  0  0  0  0  0  0  0  0  0  0  0
   -8.3179    0.8266   -0.0850 H   0  0  0  0  0  0  0  0  0  0  0  0
   -6.8983   -0.9373    0.7505 H   0  0  0  0  0  0  0  0  0  0  0  0
  1  2  1  0
  2  3  1  0
  3  4  2  0
  3  5  1  0
  5  6  1  0
  6  7  1  0
  7  8  2  0
  7  9  1  0
  9 10  1  0
 10 11  2  0
 11 12  1  0
 12 13  1  0
 13 14  2  0
 14 15  1  0
 15 16  2  0
 16 17  1  0
 17 18  2  0
 11 19  1  0
 19 20  1  0
  5 21  1  0
 21 22  1  0
 22 23  1  0
 23 24  2  0
 24 25  1  0
 25 26  2  0
 26 27  1  0
 27 28  2  0
 28  2  1  0
 20  9  2  0
 28 23  1  0
 18 13  1  0
  1 29  1  0
  1 30  1  0
  1 31  1  0
  5 32  1  1
  6 33  1  0
 10 34  1  0
 12 35  1  0
 12 36  1  0
 14 37  1  0
 15 38  1  0
 16 39  1  0
 17 40  1  0
 18 41  1  0
 21 42  1  0
 21 43  1  0
 24 44  1  0
 25 45  1  0
 26 46  1  0
 27 47  1  0
M  END
$$$$
