
     RDKit          3D

 48 50  0  0  0  0  0  0  0  0999 V2000
    7.6174    2.6208    0.1613 C   0  0  0  0  0  0  0  0  0  0  0  0
    6.5999    2.1533    1.0382 O   0  0  0  0  0  0  0  0  0  0  0  0
    5.7975    1.1467    0.5770 C   0  0  0  0  0  0  0  0  0  0  0  0
    4.8605    0.6789    1.5052 C   0  0  0  0  0  0  0  0  0  0  0  0
    3.9749   -0.3459    1.1694 C   0  0  0  0  0  0  0  0  0  0  0  0
    4.0271   -0.8996   -0.1109 C   0  0  0  0  0  0  0  0  0  0  0  0
    2.8847   -2.1880   -0.5382 S   0  0  0  0  0  6  0  0  0  0  0  0
    3.0170   -2.4722   -1.9516 O   0  0  0  0  0  0  0  0  0  0  0  0
    3.0182   -3.2272    0.4581 O   0  0  0  0  0  0  0  0  0  0  0  0
    1.3694   -1.4270   -0.3252 N   0  0  0  0  0  0  0  0  0  0  0  0
    1.0720   -0.3287   -1.2956 C   0  0  0  0  0  0  0  0  0  0  0  0
   -0.0955    0.4984   -0.7753 C   0  0  0  0  0  0  0  0  0  0  0  0
   -1.1780   -0.3794   -0.3814 N   0  0  0  0  0  0  0  0  0  0  0  0
   -2.4261    0.0937   -0.2231 N   0  0  0  0  0  0  0  0  0  0  0  0
   -3.1272   -0.9856    0.1908 C   0  0  0  0  0  0  0  0  0  0  0  0
   -4.5666   -0.9148    0.4907 C   0  0  0  0  0  0  0  0  0  0  0  0
   -5.2304   -1.8963    0.8089 O   0  0  0  0  0  0  0  0  0  0  0  0
   -5.0830    0.3572    0.3617 N   0  0  0  0  0  0  0  0  0  0  0  0
   -6.5027    0.6427    0.4205 C   0  0  0  0  0  0  0  0  0  0  0  0
   -7.1657    0.3502   -0.9234 C   0  0  0  0  0  0  0  0  0  0  0  0
   -6.7285    2.0935    0.8316 C   0  0  0  0  0  0  0  0  0  0  0  0
   -2.2939   -2.1340    0.2698 C   0  0  0  0  0  0  0  0  0  0  0  0
   -1.0397   -1.7084   -0.1072 C   0  0  0  0  0  0  0  0  0  0  0  0
    0.2606   -2.4184   -0.2548 C   0  0  0  0  0  0  0  0  0  0  0  0
    4.9590   -0.4463   -1.0470 C   0  0  0  0  0  0  0  0  0  0  0  0
    5.8441    0.5799   -0.6995 C   0  0  0  0  0  0  0  0  0  0  0  0
    8.3153    1.8180   -0.0985 H   0  0  0  0  0  0  0  0  0  0  0  0
    7.1850    3.0755   -0.7360 H   0  0  0  0  0  0  0  0  0  0  0  0
    8.1824    3.3959    0.6880 H   0  0  0  0  0  0  0  0  0  0  0  0
    4.8272    1.1151    2.5014 H   0  0  0  0  0  0  0  0  0  0  0  0
    3.2571   -0.7069    1.9026 H   0  0  0  0  0  0  0  0  0  0  0  0
    0.8299   -0.7598   -2.2752 H   0  0  0  0  0  0  0  0  0  0  0  0
    1.9358    0.3306   -1.4199 H   0  0  0  0  0  0  0  0  0  0  0  0
    0.1872    1.0669    0.1176 H   0  0  0  0  0  0  0  0  0  0  0  0
   -0.4650    1.1850   -1.5433 H   0  0  0  0  0  0  0  0  0  0  0  0
   -4.4324    1.0354   -0.0279 H   0  0  0  0  0  0  0  0  0  0  0  0
   -6.9493   -0.0127    1.1777 H   0  0  0  0  0  0  0  0  0  0  0  0
   -7.0329   -0.6995   -1.2069 H   0  0  0  0  0  0  0  0  0  0  0  0
   -8.2407    0.5540   -0.8812 H   0  0  0  0  0  0  0  0  0  0  0  0
   -6.7317    0.9635   -1.7210 H   0  0  0  0  0  0  0  0  0  0  0  0
   -6.2664    2.2966    1.8040 H   0  0  0  0  0  0  0  0  0  0  0  0
   -6.2875    2.7865    0.1064 H   0  0  0  0  0  0  0  0  0  0  0  0
   -7.7975    2.3163    0.9112 H   0  0  0  0  0  0  0  0  0  0  0  0
   -2.5922   -3.1314    0.5644 H   0  0  0  0  0  0  0  0  0  0  0  0
    0.4057   -3.0700    0.6137 H   0  0  0  0  0  0  0  0  0  0  0  0
    0.2388   -3.0314   -1.1632 H   0  0  0  0  0  0  0  0  0  0  0  0
    5.0079   -0.8837   -2.0420 H   0  0  0  0  0  0  0  0  0  0  0  0
    6.5581    0.9123   -1.4464 H   0  0  0  0  0  0  0  0  0  0  0  0
  1  2  1  0
  2  3  1  0
  3  4  2  0
  4  5  1  0
  5  6  2  0
  6  7  1  0
  7  8  2  0
  7  9  2  0
  7 10  1  0
 10 11  1  0
 11 12  1  0
 12 13  1  0
 13 14  1  0
 14 15  2  0
 15 16  1  0
 16 17  2  0
 16 18  1  0
 18 19  1  0
 19 20  1  0
 19 21  1  0
 15 22  1  0
 22 23  2  0
 23 24  1  0
  6 25  1  0
 25 26  2  0
 26  3  1  0
 24 10  1  0
 23 13  1  0
  1 27  1  0
  1 28  1  0
  1 29  1  0
  4 30  1  0
  5 31  1  0
 11 32  1  0
 11 33  1  0
 12 34  1  0
 12 35  1  0
 18 36  1  0
 19 37  1  0
 20 38  1  0
 20 39  1  0
 20 40  1  0
 21 41  1  0
 21 42  1  0
 21 43  1  0
 22 44  1  0
 24 45  1  0
 24 46  1  0
 25 47  1  0
 26 48  1  0
M  END
$$$$
