
     RDKit          3D

 69 71  0  0  0  0  0  0  0  0999 V2000
    7.1810    2.5465    2.0234 C   0  0  0  0  0  0  0  0  0  0  0  0
    7.1860    1.0840    2.4360 C   0  0  0  0  0  0  0  0  0  0  0  0
    7.1002    0.2189    1.3064 O   0  0  0  0  0  0  0  0  0  0  0  0
    5.9108    0.0548    0.6527 C   0  0  0  0  0  0  0  0  0  0  0  0
    4.6632    0.3991    1.1926 C   0  0  0  0  0  0  0  0  0  0  0  0
    3.4631    0.1723    0.4884 C   0  0  0  0  0  0  0  0  0  0  0  0
    2.1561    0.5403    1.1623 C   0  0  0  0  0  0  0  0  0  0  0  0
    0.9193    0.5908    0.2758 C   0  0  0  0  0  0  0  0  0  0  0  0
    0.8735    1.2404   -0.7643 O   0  0  0  0  0  0  0  0  0  0  0  0
   -0.1420   -0.1489    0.7656 N   0  0  0  0  0  0  0  0  0  0  0  0
   -1.4638   -0.1203    0.1293 C   0  0  1  0  0  0  0  0  0  0  0  0
   -1.4951   -0.7805   -1.2745 C   0  0  0  0  0  0  0  0  0  0  0  0
   -1.2819   -2.3010   -1.4544 C   0  0  0  0  0  0  0  0  0  0  0  0
   -0.0352   -2.8521   -0.7704 C   0  0  0  0  0  0  0  0  0  0  0  0
   -2.5134   -3.1374   -1.1072 C   0  0  0  0  0  0  0  0  0  0  0  0
   -2.5737   -0.5896    1.0713 C   0  0  0  0  0  0  0  0  0  0  0  0
   -2.3328   -1.5676    2.0599 C   0  0  0  0  0  0  0  0  0  0  0  0
   -3.3407   -1.9874    2.9289 C   0  0  0  0  0  0  0  0  0  0  0  0
   -4.6125   -1.4408    2.8282 C   0  0  0  0  0  0  0  0  0  0  0  0
   -4.8790   -0.4842    1.8499 C   0  0  0  0  0  0  0  0  0  0  0  0
   -3.8797   -0.0527    0.9579 C   0  0  0  0  0  0  0  0  0  0  0  0
   -4.1520    0.9108   -0.0379 N   0  0  0  0  0  0  0  0  0  0  0  0
   -4.3122    2.2622    0.5261 C   0  0  0  0  0  0  0  0  0  0  0  0
   -4.3380    3.2799   -0.6149 C   0  0  0  0  0  0  0  0  0  0  0  0
   -5.4190    2.9388   -1.6396 C   0  0  0  0  0  0  0  0  0  0  0  0
   -5.2734    1.4979   -2.1270 C   0  0  0  0  0  0  0  0  0  0  0  0
   -5.2396    0.5218   -0.9511 C   0  0  0  0  0  0  0  0  0  0  0  0
    3.5308   -0.4336   -0.7689 C   0  0  0  0  0  0  0  0  0  0  0  0
    4.7645   -0.7851   -1.3188 C   0  0  0  0  0  0  0  0  0  0  0  0
    5.9551   -0.5452   -0.6159 C   0  0  0  0  0  0  0  0  0  0  0  0
    7.2525   -0.9029   -1.2474 C   0  0  0  0  0  0  0  0  0  0  0  0
    8.3345   -0.3698   -1.0961 O   0  0  0  0  0  0  0  0  0  0  0  0
    7.1243   -1.9617   -2.0740 O   0  0  0  0  0  0  0  0  0  0  0  0
    6.2270    2.8322    1.5711 H   0  0  0  0  0  0  0  0  0  0  0  0
    7.3571    3.1917    2.8889 H   0  0  0  0  0  0  0  0  0  0  0  0
    7.9580    2.7376    1.2763 H   0  0  0  0  0  0  0  0  0  0  0  0
    8.1490    0.8678    2.9130 H   0  0  0  0  0  0  0  0  0  0  0  0
    6.4256    0.8572    3.1904 H   0  0  0  0  0  0  0  0  0  0  0  0
    4.5903    0.8443    2.1797 H   0  0  0  0  0  0  0  0  0  0  0  0
    2.2492    1.5390    1.6091 H   0  0  0  0  0  0  0  0  0  0  0  0
    1.9963   -0.1718    1.9817 H   0  0  0  0  0  0  0  0  0  0  0  0
   -0.1360   -0.3109    1.7617 H   0  0  0  0  0  0  0  0  0  0  0  0
   -1.6295    0.9529   -0.0372 H   0  0  0  0  0  0  0  0  0  0  0  0
   -2.4473   -0.5236   -1.7573 H   0  0  0  0  0  0  0  0  0  0  0  0
   -0.7323   -0.2895   -1.8931 H   0  0  0  0  0  0  0  0  0  0  0  0
   -1.1276   -2.4433   -2.5340 H   0  0  0  0  0  0  0  0  0  0  0  0
    0.1393   -3.8905   -1.0738 H   0  0  0  0  0  0  0  0  0  0  0  0
   -0.1231   -2.8428    0.3183 H   0  0  0  0  0  0  0  0  0  0  0  0
    0.8505   -2.2762   -1.0534 H   0  0  0  0  0  0  0  0  0  0  0  0
   -2.6690   -3.2260   -0.0315 H   0  0  0  0  0  0  0  0  0  0  0  0
   -3.4179   -2.7142   -1.5561 H   0  0  0  0  0  0  0  0  0  0  0  0
   -2.3995   -4.1553   -1.4971 H   0  0  0  0  0  0  0  0  0  0  0  0
   -1.3583   -2.0395    2.1501 H   0  0  0  0  0  0  0  0  0  0  0  0
   -3.1320   -2.7467    3.6781 H   0  0  0  0  0  0  0  0  0  0  0  0
   -5.4008   -1.7619    3.5032 H   0  0  0  0  0  0  0  0  0  0  0  0
   -5.8815   -0.0694    1.7905 H   0  0  0  0  0  0  0  0  0  0  0  0
   -3.4736    2.5036    1.1908 H   0  0  0  0  0  0  0  0  0  0  0  0
   -5.2375    2.3362    1.1117 H   0  0  0  0  0  0  0  0  0  0  0  0
   -3.3603    3.2941   -1.1135 H   0  0  0  0  0  0  0  0  0  0  0  0
   -4.5107    4.2848   -0.2130 H   0  0  0  0  0  0  0  0  0  0  0  0
   -5.3586    3.6272   -2.4895 H   0  0  0  0  0  0  0  0  0  0  0  0
   -6.4076    3.0731   -1.1848 H   0  0  0  0  0  0  0  0  0  0  0  0
   -6.1024    1.2459   -2.7976 H   0  0  0  0  0  0  0  0  0  0  0  0
   -4.3462    1.4051   -2.7070 H   0  0  0  0  0  0  0  0  0  0  0  0
   -6.2117    0.5307   -0.4425 H   0  0  0  0  0  0  0  0  0  0  0  0
   -5.0696   -0.4905   -1.3382 H   0  0  0  0  0  0  0  0  0  0  0  0
    2.6324   -0.6306   -1.3507 H   0  0  0  0  0  0  0  0  0  0  0  0
    4.7892   -1.2384   -2.3073 H   0  0  0  0  0  0  0  0  0  0  0  0
    8.0381   -2.1000   -2.4006 H   0  0  0  0  0  0  0  0  0  0  0  0
  1  2  1  0
  2  3  1  0
  3  4  1  0
  4  5  2  0
  5  6  1  0
  6  7  1  0
  7  8  1  0
  8  9  2  0
  8 10  1  0
 10 11  1  0
 11 12  1  0
 12 13  1  0
 13 14  1  0
 13 15  1  0
 11 16  1  0
 16 17  2  0
 17 18  1  0
 18 19  2  0
 19 20  1  0
 20 21  2  0
 21 22  1  0
 22 23  1  0
 23 24  1  0
 24 25  1  0
 25 26  1  0
 26 27  1  0
  6 28  2  0
 28 29  1  0
 29 30  2  0
 30 31  1  0
 31 32  2  0
 31 33  1  0
 30  4  1  0
 21 16  1  0
 27 22  1  0
  1 34  1  0
  1 35  1  0
  1 36  1  0
  2 37  1  0
  2 38  1  0
  5 39  1  0
  7 40  1  0
  7 41  1  0
 10 42  1  0
 11 43  1  6
 12 44  1  0
 12 45  1  0
 13 46  1  0
 14 47  1  0
 14 48  1  0
 14 49  1  0
 15 50  1  0
 15 51  1  0
 15 52  1  0
 17 53  1  0
 18 54  1  0
 19 55  1  0
 20 56  1  0
 23 57  1  0
 23 58  1  0
 24 59  1  0
 24 60  1  0
 25 61  1  0
 25 62  1  0
 26 63  1  0
 26 64  1  0
 27 65  1  0
 27 66  1  0
 28 67  1  0
 29 68  1  0
 33 69  1  0
M  END
$$$$
