
     RDKit          3D

 57 60  0  0  0  0  0  0  0  0999 V2000
   -6.9763   -3.7075   -0.1070 C   0  0  0  0  0  0  0  0  0  0  0  0
   -6.0085   -3.0192   -1.0566 C   0  0  0  0  0  0  0  0  0  0  0  0
   -5.8595   -1.6394   -0.6879 O   0  0  0  0  0  0  0  0  0  0  0  0
   -4.9048   -1.3782    0.2544 C   0  0  0  0  0  0  0  0  0  0  0  0
   -4.2106   -2.2291    0.7972 O   0  0  0  0  0  0  0  0  0  0  0  0
   -4.8314    0.1327    0.5079 C   0  0  0  0  0  0  0  0  0  0  0  0
   -6.0464    0.5547    1.3290 C   0  0  0  0  0  0  0  0  0  0  0  0
   -3.6446    0.4400    1.2619 O   0  0  0  0  0  0  0  0  0  0  0  0
   -2.9067    1.4243    0.6532 C   0  0  0  0  0  0  0  0  0  0  0  0
   -3.1968    2.7533    0.9779 C   0  0  0  0  0  0  0  0  0  0  0  0
   -2.4750    3.7901    0.3893 C   0  0  0  0  0  0  0  0  0  0  0  0
   -1.4575    3.4976   -0.5172 C   0  0  0  0  0  0  0  0  0  0  0  0
   -1.1496    2.1624   -0.8183 C   0  0  0  0  0  0  0  0  0  0  0  0
   -0.0535    1.8595   -1.7776 C   0  0  0  0  0  0  0  0  0  0  0  0
    0.5884    2.7775   -2.2801 O   0  0  0  0  0  0  0  0  0  0  0  0
    0.2039    0.5078   -2.0337 N   0  0  0  0  0  0  0  0  0  0  0  0
    1.2526    0.1713   -3.0079 C   0  0  0  0  0  0  0  0  0  0  0  0
    2.6522   -0.0733   -2.4189 C   0  0  0  0  0  0  0  0  0  0  0  0
    3.5558   -0.4770   -3.1466 O   0  0  0  0  0  0  0  0  0  0  0  0
    2.7591    0.2112   -1.0697 N   0  0  0  0  0  0  0  0  0  0  0  0
    3.8990    0.1313   -0.2478 C   0  0  0  0  0  0  0  0  0  0  0  0
    3.7343    0.4857    1.1003 C   0  0  0  0  0  0  0  0  0  0  0  0
    4.8104    0.4372    1.9901 C   0  0  0  0  0  0  0  0  0  0  0  0
    6.0617    0.0323    1.5385 C   0  0  0  0  0  0  0  0  0  0  0  0
    6.2401   -0.3047    0.1921 C   0  0  0  0  0  0  0  0  0  0  0  0
    5.1604   -0.2692   -0.6951 C   0  0  0  0  0  0  0  0  0  0  0  0
    7.4523   -0.6863   -0.3296 O   0  0  0  0  0  0  0  0  0  0  0  0
    8.5284   -0.3464    0.5497 C   0  0  0  0  0  0  0  0  0  0  0  0
    8.1967   -0.7470    1.9786 C   0  0  0  0  0  0  0  0  0  0  0  0
    7.0702   -0.0064    2.4641 O   0  0  0  0  0  0  0  0  0  0  0  0
   -0.4879   -0.5111   -1.4046 C   0  0  0  0  0  0  0  0  0  0  0  0
   -1.4667   -0.2706   -0.5258 C   0  0  0  0  0  0  0  0  0  0  0  0
   -1.8573    1.1083   -0.2225 C   0  0  0  0  0  0  0  0  0  0  0  0
   -7.9473   -3.1978   -0.1122 H   0  0  0  0  0  0  0  0  0  0  0  0
   -6.6077   -3.6770    0.9250 H   0  0  0  0  0  0  0  0  0  0  0  0
   -7.1262   -4.7527   -0.3924 H   0  0  0  0  0  0  0  0  0  0  0  0
   -6.4128   -3.0415   -2.0766 H   0  0  0  0  0  0  0  0  0  0  0  0
   -5.0359   -3.5311   -1.0829 H   0  0  0  0  0  0  0  0  0  0  0  0
   -4.8292    0.6317   -0.4734 H   0  0  0  0  0  0  0  0  0  0  0  0
   -6.0847    0.0027    2.2766 H   0  0  0  0  0  0  0  0  0  0  0  0
   -6.9796    0.3655    0.7883 H   0  0  0  0  0  0  0  0  0  0  0  0
   -6.0040    1.6205    1.5824 H   0  0  0  0  0  0  0  0  0  0  0  0
   -3.9791    2.9849    1.6953 H   0  0  0  0  0  0  0  0  0  0  0  0
   -2.7006    4.8233    0.6424 H   0  0  0  0  0  0  0  0  0  0  0  0
   -0.8944    4.3092   -0.9768 H   0  0  0  0  0  0  0  0  0  0  0  0
    1.3479    0.9867   -3.7353 H   0  0  0  0  0  0  0  0  0  0  0  0
    0.9478   -0.7296   -3.5552 H   0  0  0  0  0  0  0  0  0  0  0  0
    1.9103    0.5501   -0.6316 H   0  0  0  0  0  0  0  0  0  0  0  0
    2.7637    0.8019    1.4802 H   0  0  0  0  0  0  0  0  0  0  0  0
    4.6674    0.7047    3.0361 H   0  0  0  0  0  0  0  0  0  0  0  0
    5.3414   -0.5457   -1.7308 H   0  0  0  0  0  0  0  0  0  0  0  0
    9.4204   -0.8804    0.2048 H   0  0  0  0  0  0  0  0  0  0  0  0
    8.7202    0.7316    0.4672 H   0  0  0  0  0  0  0  0  0  0  0  0
    7.9687   -1.8178    2.0541 H   0  0  0  0  0  0  0  0  0  0  0  0
    9.0437   -0.5330    2.6408 H   0  0  0  0  0  0  0  0  0  0  0  0
   -0.1955   -1.5316   -1.6415 H   0  0  0  0  0  0  0  0  0  0  0  0
   -1.9671   -1.0866   -0.0163 H   0  0  0  0  0  0  0  0  0  0  0  0
  1  2  1  0
  2  3  1  0
  3  4  1  0
  4  5  2  0
  4  6  1  0
  6  7  1  0
  6  8  1  0
  8  9  1  0
  9 10  2  0
 10 11  1  0
 11 12  2  0
 12 13  1  0
 13 14  1  0
 14 15  2  0
 14 16  1  0
 16 17  1  0
 17 18  1  0
 18 19  2  0
 18 20  1  0
 20 21  1  0
 21 22  2  0
 22 23  1  0
 23 24  2  0
 24 25  1  0
 25 26  2  0
 25 27  1  0
 27 28  1  0
 28 29  1  0
 29 30  1  0
 16 31  1  0
 31 32  2  0
 32 33  1  0
 33  9  1  0
 33 13  2  0
 26 21  1  0
 30 24  1  0
  1 34  1  0
  1 35  1  0
  1 36  1  0
  2 37  1  0
  2 38  1  0
  6 39  1  0
  7 40  1  0
  7 41  1  0
  7 42  1  0
 10 43  1  0
 11 44  1  0
 12 45  1  0
 17 46  1  0
 17 47  1  0
 20 48  1  0
 22 49  1  0
 23 50  1  0
 26 51  1  0
 28 52  1  0
 28 53  1  0
 29 54  1  0
 29 55  1  0
 31 56  1  0
 32 57  1  0
M  END
$$$$
