
     RDKit          3D

 41 42  0  0  0  0  0  0  0  0999 V2000
   -5.1353   -0.6781   -1.5846 C   0  0  0  0  0  0  0  0  0  0  0  0
   -4.7835   -0.0530   -0.2353 C   0  0  0  0  0  0  0  0  0  0  0  0
   -4.9548    1.4629   -0.2880 C   0  0  0  0  0  0  0  0  0  0  0  0
   -3.3729   -0.4634    0.1663 C   0  0  0  0  0  0  0  0  0  0  0  0
   -2.3754    0.3560    0.0839 N   0  0  0  0  0  0  0  0  0  0  0  0
   -1.1180   -0.0909    0.4477 C   0  0  0  0  0  0  0  0  0  0  0  0
   -0.0402    0.9870    0.3080 C   0  0  0  0  0  0  0  0  0  0  0  0
    1.3803    0.7372    0.5620 N   0  0  0  0  0  0  0  0  0  0  0  0
    1.7123    0.5065    1.9595 C   0  0  0  0  0  0  0  0  0  0  0  0
    2.0060   -0.1897   -0.3814 C   0  0  0  0  0  0  0  0  0  0  0  0
    3.5114   -0.0335   -0.4590 C   0  0  0  0  0  0  0  0  0  0  0  0
    4.0801    1.1857   -0.8584 C   0  0  0  0  0  0  0  0  0  0  0  0
    5.4656    1.3297   -0.9414 C   0  0  0  0  0  0  0  0  0  0  0  0
    6.2979    0.2566   -0.6290 C   0  0  0  0  0  0  0  0  0  0  0  0
    5.7458   -0.9603   -0.2327 C   0  0  0  0  0  0  0  0  0  0  0  0
    4.3597   -1.1062   -0.1484 C   0  0  0  0  0  0  0  0  0  0  0  0
   -0.9009   -1.3456    0.8707 C   0  0  0  0  0  0  0  0  0  0  0  0
   -2.0351   -2.2738    0.9514 C   0  0  0  0  0  0  0  0  0  0  0  0
   -1.8936   -3.4298    1.3306 O   0  0  0  0  0  0  0  0  0  0  0  0
   -3.2362   -1.7588    0.5786 N   0  0  0  0  0  0  0  0  0  0  0  0
   -5.0758   -1.7710   -1.5440 H   0  0  0  0  0  0  0  0  0  0  0  0
   -4.4468   -0.3413   -2.3677 H   0  0  0  0  0  0  0  0  0  0  0  0
   -6.1535   -0.4100   -1.8855 H   0  0  0  0  0  0  0  0  0  0  0  0
   -5.4725   -0.4523    0.5202 H   0  0  0  0  0  0  0  0  0  0  0  0
   -4.3212    1.9143   -1.0596 H   0  0  0  0  0  0  0  0  0  0  0  0
   -4.6877    1.9188    0.6715 H   0  0  0  0  0  0  0  0  0  0  0  0
   -5.9942    1.7281   -0.5085 H   0  0  0  0  0  0  0  0  0  0  0  0
   -0.3463    1.8284    0.9461 H   0  0  0  0  0  0  0  0  0  0  0  0
   -0.1185    1.3842   -0.7144 H   0  0  0  0  0  0  0  0  0  0  0  0
    1.4160   -0.4831    2.3162 H   0  0  0  0  0  0  0  0  0  0  0  0
    2.7893    0.6108    2.1293 H   0  0  0  0  0  0  0  0  0  0  0  0
    1.2350    1.2554    2.6018 H   0  0  0  0  0  0  0  0  0  0  0  0
    1.7568   -1.2296   -0.1447 H   0  0  0  0  0  0  0  0  0  0  0  0
    1.6274   -0.0119   -1.3971 H   0  0  0  0  0  0  0  0  0  0  0  0
    3.4373    2.0305   -1.0973 H   0  0  0  0  0  0  0  0  0  0  0  0
    5.8940    2.2803   -1.2476 H   0  0  0  0  0  0  0  0  0  0  0  0
    7.3768    0.3694   -0.6931 H   0  0  0  0  0  0  0  0  0  0  0  0
    6.3954   -1.7967    0.0115 H   0  0  0  0  0  0  0  0  0  0  0  0
    3.9468   -2.0627    0.1630 H   0  0  0  0  0  0  0  0  0  0  0  0
    0.0548   -1.7450    1.1667 H   0  0  0  0  0  0  0  0  0  0  0  0
   -4.0263   -2.3838    0.6330 H   0  0  0  0  0  0  0  0  0  0  0  0
  1  2  1  0
  2  3  1  0
  2  4  1  0
  4  5  2  0
  5  6  1  0
  6  7  1  0
  7  8  1  0
  8  9  1  0
  8 10  1  0
 10 11  1  0
 11 12  2  0
 12 13  1  0
 13 14  2  0
 14 15  1  0
 15 16  2  0
  6 17  2  0
 17 18  1  0
 18 19  2  0
 18 20  1  0
 20  4  1  0
 16 11  1  0
  1 21  1  0
  1 22  1  0
  1 23  1  0
  2 24  1  0
  3 25  1  0
  3 26  1  0
  3 27  1  0
  7 28  1  0
  7 29  1  0
  9 30  1  0
  9 31  1  0
  9 32  1  0
 10 33  1  0
 10 34  1  0
 12 35  1  0
 13 36  1  0
 14 37  1  0
 15 38  1  0
 16 39  1  0
 17 40  1  0
 20 41  1  0
M  END
$$$$
