
     RDKit          3D

 44 47  0  0  0  0  0  0  0  0999 V2000
    2.2079    0.6058   -3.0582 C   0  0  0  0  0  0  0  0  0  0  0  0
    2.9155    0.4870   -1.7320 C   0  0  0  0  0  0  0  0  0  0  0  0
    4.2053    0.3516   -1.7199 N   0  0  0  0  0  0  0  0  0  0  0  0
    4.8482    0.2349   -0.4774 C   0  0  0  0  0  0  0  0  0  0  0  0
    6.2348    0.0687   -0.4543 C   0  0  0  0  0  0  0  0  0  0  0  0
    6.9193   -0.0493    0.7591 C   0  0  0  0  0  0  0  0  0  0  0  0
    6.2203   -0.0013    1.9653 C   0  0  0  0  0  0  0  0  0  0  0  0
    4.8362    0.1644    1.9590 C   0  0  0  0  0  0  0  0  0  0  0  0
    4.1611    0.2803    0.7382 C   0  0  0  0  0  0  0  0  0  0  0  0
    2.6986    0.4589    0.6957 C   0  0  0  0  0  0  0  0  0  0  0  0
    2.0453    0.5507    1.7334 O   0  0  0  0  0  0  0  0  0  0  0  0
    2.1528    0.5317   -0.5820 N   0  0  0  0  0  0  0  0  0  0  0  0
    0.7542    0.6812   -0.6579 N   0  0  0  0  0  0  0  0  0  0  0  0
   -0.0091   -0.4645   -0.6107 C   0  0  0  0  0  0  0  0  0  0  0  0
    0.4412   -1.5790   -0.8882 O   0  0  0  0  0  0  0  0  0  0  0  0
   -1.4443   -0.2933   -0.2098 C   0  0  0  0  0  0  0  0  0  0  0  0
   -2.2400   -1.3811   -0.1878 C   0  0  0  0  0  0  0  0  0  0  0  0
   -1.8256   -2.6643   -0.5122 O   0  0  0  0  0  0  0  0  0  0  0  0
   -3.6563   -1.2751    0.1958 C   0  0  0  0  0  0  0  0  0  0  0  0
   -4.4883   -2.4089    0.2146 C   0  0  0  0  0  0  0  0  0  0  0  0
   -5.8301   -2.3103    0.5795 C   0  0  0  0  0  0  0  0  0  0  0  0
   -6.3574   -1.0750    0.9310 C   0  0  0  0  0  0  0  0  0  0  0  0
   -5.5433    0.0597    0.9171 C   0  0  0  0  0  0  0  0  0  0  0  0
   -4.1887   -0.0261    0.5507 C   0  0  0  0  0  0  0  0  0  0  0  0
   -3.3415    1.1203    0.5291 N   0  0  0  0  0  0  0  0  0  0  0  0
   -3.8807    2.4212    0.9028 C   0  0  0  0  0  0  0  0  0  0  0  0
   -2.0037    1.0395    0.1648 C   0  0  0  0  0  0  0  0  0  0  0  0
   -1.2617    2.0255    0.1354 O   0  0  0  0  0  0  0  0  0  0  0  0
    1.5916   -0.2813   -3.2281 H   0  0  0  0  0  0  0  0  0  0  0  0
    1.5733    1.4963   -3.0718 H   0  0  0  0  0  0  0  0  0  0  0  0
    2.9363    0.6854   -3.8706 H   0  0  0  0  0  0  0  0  0  0  0  0
    6.7840    0.0302   -1.3920 H   0  0  0  0  0  0  0  0  0  0  0  0
    7.9990   -0.1794    0.7600 H   0  0  0  0  0  0  0  0  0  0  0  0
    6.7536   -0.0938    2.9085 H   0  0  0  0  0  0  0  0  0  0  0  0
    4.2876    0.2014    2.8974 H   0  0  0  0  0  0  0  0  0  0  0  0
    0.3875    1.5261   -0.2093 H   0  0  0  0  0  0  0  0  0  0  0  0
   -0.8650   -2.6457   -0.7253 H   0  0  0  0  0  0  0  0  0  0  0  0
   -4.0929   -3.3863   -0.0564 H   0  0  0  0  0  0  0  0  0  0  0  0
   -6.4573   -3.1981    0.5888 H   0  0  0  0  0  0  0  0  0  0  0  0
   -7.4029   -0.9917    1.2174 H   0  0  0  0  0  0  0  0  0  0  0  0
   -6.0002    1.0029    1.2001 H   0  0  0  0  0  0  0  0  0  0  0  0
   -3.1262    3.2109    0.8478 H   0  0  0  0  0  0  0  0  0  0  0  0
   -4.2456    2.3814    1.9341 H   0  0  0  0  0  0  0  0  0  0  0  0
   -4.6927    2.6885    0.2190 H   0  0  0  0  0  0  0  0  0  0  0  0
  1  2  1  0
  2  3  2  0
  3  4  1  0
  4  5  2  0
  5  6  1  0
  6  7  2  0
  7  8  1  0
  8  9  2  0
  9 10  1  0
 10 11  2  0
 10 12  1  0
 12 13  1  0
 13 14  1  0
 14 15  2  0
 14 16  1  0
 16 17  2  0
 17 18  1  0
 17 19  1  0
 19 20  2  0
 20 21  1  0
 21 22  2  0
 22 23  1  0
 23 24  2  0
 24 25  1  0
 25 26  1  0
 25 27  1  0
 27 28  2  0
 12  2  1  0
 27 16  1  0
  9  4  1  0
 24 19  1  0
  1 29  1  0
  1 30  1  0
  1 31  1  0
  5 32  1  0
  6 33  1  0
  7 34  1  0
  8 35  1  0
 13 36  1  0
 18 37  1  0
 20 38  1  0
 21 39  1  0
 22 40  1  0
 23 41  1  0
 26 42  1  0
 26 43  1  0
 26 44  1  0
M  END
$$$$
