
     RDKit          3D

 62 64  0  0  0  0  0  0  0  0999 V2000
    3.4994   -5.3480    0.6293 C   0  0  0  0  0  0  0  0  0  0  0  0
    2.3484   -4.3555    0.6571 C   0  0  0  0  0  0  0  0  0  0  0  0
    2.3322   -3.4818   -0.5987 C   0  0  0  0  0  0  0  0  0  0  0  0
    1.2414   -2.5108   -0.5626 N   0  0  0  0  0  0  0  0  0  0  0  0
    0.0048   -2.8892   -1.0801 C   0  0  0  0  0  0  0  0  0  0  0  0
   -0.2328   -4.0011   -1.5455 O   0  0  0  0  0  0  0  0  0  0  0  0
   -1.0807   -1.8760   -1.0411 C   0  0  0  0  0  0  0  0  0  0  0  0
   -2.3320   -2.1779   -1.5938 C   0  0  0  0  0  0  0  0  0  0  0  0
   -3.3558   -1.2304   -1.5591 C   0  0  0  0  0  0  0  0  0  0  0  0
   -3.1329    0.0170   -0.9623 C   0  0  0  0  0  0  0  0  0  0  0  0
   -4.1990    1.0566   -0.9097 C   0  0  0  0  0  0  0  0  0  0  0  0
   -3.8965    2.2430   -0.8781 O   0  0  0  0  0  0  0  0  0  0  0  0
   -5.5005    0.5953   -0.8722 N   0  0  0  0  0  0  0  0  0  0  0  0
   -6.6247    1.5073   -0.6964 C   0  0  0  0  0  0  0  0  0  0  0  0
   -7.8865    0.9036   -1.3075 C   0  0  0  0  0  0  0  0  0  0  0  0
   -6.8115    1.9015    0.7793 C   0  0  0  0  0  0  0  0  0  0  0  0
   -7.1371    0.7409    1.7117 C   0  0  0  0  0  0  0  0  0  0  0  0
   -1.8713    0.3202   -0.4233 C   0  0  0  0  0  0  0  0  0  0  0  0
   -0.8410   -0.6274   -0.4558 C   0  0  0  0  0  0  0  0  0  0  0  0
    0.4313   -0.3972    0.0738 N   0  0  0  0  0  0  0  0  0  0  0  0
    0.9454    0.7151    0.7040 C   0  0  0  0  0  0  0  0  0  0  0  0
    0.4054    1.7786    0.9633 O   0  0  0  0  0  0  0  0  0  0  0  0
    2.2639    0.3657    1.0231 N   0  0  0  0  0  0  0  0  0  0  0  0
    3.2693    1.2745    1.5094 C   0  0  0  0  0  0  0  0  0  0  0  0
    4.0061    1.9431    0.3472 C   0  0  0  0  0  0  0  0  0  0  0  0
    3.5644    2.0129   -0.7969 O   0  0  0  0  0  0  0  0  0  0  0  0
    5.2146    2.5136    0.7196 N   0  0  0  0  0  0  0  0  0  0  0  0
    6.1028    3.1171   -0.2652 C   0  0  0  0  0  0  0  0  0  0  0  0
    7.0408    4.1099    0.4165 C   0  0  0  0  0  0  0  0  0  0  0  0
    6.8978    2.0427   -1.0054 C   0  0  0  0  0  0  0  0  0  0  0  0
    2.5528   -0.9016    0.5726 N   0  0  0  0  0  0  0  0  0  0  0  0
    1.4380   -1.2940    0.0275 C   0  0  0  0  0  0  0  0  0  0  0  0
    4.4627   -4.8304    0.5822 H   0  0  0  0  0  0  0  0  0  0  0  0
    3.4906   -5.9649    1.5333 H   0  0  0  0  0  0  0  0  0  0  0  0
    3.4234   -6.0130   -0.2369 H   0  0  0  0  0  0  0  0  0  0  0  0
    2.4344   -3.7273    1.5517 H   0  0  0  0  0  0  0  0  0  0  0  0
    1.4014   -4.9008    0.7457 H   0  0  0  0  0  0  0  0  0  0  0  0
    3.2863   -2.9506   -0.6969 H   0  0  0  0  0  0  0  0  0  0  0  0
    2.2245   -4.1129   -1.4891 H   0  0  0  0  0  0  0  0  0  0  0  0
   -2.5077   -3.1456   -2.0614 H   0  0  0  0  0  0  0  0  0  0  0  0
   -4.3074   -1.4690   -2.0271 H   0  0  0  0  0  0  0  0  0  0  0  0
   -5.6602   -0.3800   -0.6579 H   0  0  0  0  0  0  0  0  0  0  0  0
   -6.3933    2.4255   -1.2516 H   0  0  0  0  0  0  0  0  0  0  0  0
   -8.1157   -0.0801   -0.8852 H   0  0  0  0  0  0  0  0  0  0  0  0
   -7.7561    0.7660   -2.3864 H   0  0  0  0  0  0  0  0  0  0  0  0
   -8.7504    1.5576   -1.1525 H   0  0  0  0  0  0  0  0  0  0  0  0
   -5.9005    2.3917    1.1447 H   0  0  0  0  0  0  0  0  0  0  0  0
   -7.6157    2.6443    0.8511 H   0  0  0  0  0  0  0  0  0  0  0  0
   -8.0710    0.2447    1.4292 H   0  0  0  0  0  0  0  0  0  0  0  0
   -7.2560    1.1091    2.7365 H   0  0  0  0  0  0  0  0  0  0  0  0
   -6.3353   -0.0042    1.7174 H   0  0  0  0  0  0  0  0  0  0  0  0
   -1.7174    1.3048    0.0155 H   0  0  0  0  0  0  0  0  0  0  0  0
    3.9718    0.7116    2.1321 H   0  0  0  0  0  0  0  0  0  0  0  0
    2.7937    2.0577    2.1081 H   0  0  0  0  0  0  0  0  0  0  0  0
    5.6146    2.2459    1.6104 H   0  0  0  0  0  0  0  0  0  0  0  0
    5.4857    3.6591   -0.9920 H   0  0  0  0  0  0  0  0  0  0  0  0
    6.4703    4.8868    0.9382 H   0  0  0  0  0  0  0  0  0  0  0  0
    7.6768    3.6121    1.1582 H   0  0  0  0  0  0  0  0  0  0  0  0
    7.6909    4.6004   -0.3155 H   0  0  0  0  0  0  0  0  0  0  0  0
    6.2313    1.3530   -1.5343 H   0  0  0  0  0  0  0  0  0  0  0  0
    7.5027    1.4477   -0.3114 H   0  0  0  0  0  0  0  0  0  0  0  0
    7.5691    2.4930   -1.7444 H   0  0  0  0  0  0  0  0  0  0  0  0
  1  2  1  0
  2  3  1  0
  3  4  1  0
  4  5  1  0
  5  6  2  0
  5  7  1  0
  7  8  2  0
  8  9  1  0
  9 10  2  0
 10 11  1  0
 11 12  2  0
 11 13  1  0
 13 14  1  0
 14 15  1  0
 14 16  1  0
 16 17  1  0
 10 18  1  0
 18 19  2  0
 19 20  1  0
 20 21  1  0
 21 22  2  0
 21 23  1  0
 23 24  1  0
 24 25  1  0
 25 26  2  0
 25 27  1  0
 27 28  1  0
 28 29  1  0
 28 30  1  0
 23 31  1  0
 31 32  2  0
 32  4  1  0
 19  7  1  0
 32 20  1  0
  1 33  1  0
  1 34  1  0
  1 35  1  0
  2 36  1  0
  2 37  1  0
  3 38  1  0
  3 39  1  0
  8 40  1  0
  9 41  1  0
 13 42  1  0
 14 43  1  0
 15 44  1  0
 15 45  1  0
 15 46  1  0
 16 47  1  0
 16 48  1  0
 17 49  1  0
 17 50  1  0
 17 51  1  0
 18 52  1  0
 24 53  1  0
 24 54  1  0
 27 55  1  0
 28 56  1  0
 29 57  1  0
 29 58  1  0
 29 59  1  0
 30 60  1  0
 30 61  1  0
 30 62  1  0
M  END
$$$$
