
     RDKit          3D

 52 54  0  0  0  0  0  0  0  0999 V2000
   -2.6916    3.0146   -2.2742 C   0  0  0  0  0  0  0  0  0  0  0  0
   -1.2779    3.0850   -1.1470 S   0  0  0  0  0  0  0  0  0  0  0  0
   -0.8372    1.3524   -1.0686 C   0  0  0  0  0  0  0  0  0  0  0  0
    0.3935    0.9960   -1.6463 C   0  0  0  0  0  0  0  0  0  0  0  0
    0.8557   -0.3228   -1.6057 C   0  0  0  0  0  0  0  0  0  0  0  0
    0.0984   -1.2965   -0.9541 C   0  0  0  0  0  0  0  0  0  0  0  0
    0.6703   -2.9791   -0.8905 S   0  0  0  0  0  6  0  0  0  0  0  0
    1.6582   -3.1525   -1.9334 O   0  0  0  0  0  0  0  0  0  0  0  0
   -0.5049   -3.8225   -0.8263 O   0  0  0  0  0  0  0  0  0  0  0  0
    1.4109   -3.0718    0.6219 N   0  0  0  0  0  0  0  0  0  0  0  0
    2.4537   -2.1612    0.9451 C   0  0  0  0  0  0  0  0  0  0  0  0
    2.2486   -1.2198    1.9509 C   0  0  0  0  0  0  0  0  0  0  0  0
    3.2532   -0.2959    2.2638 C   0  0  0  0  0  0  0  0  0  0  0  0
    4.4684   -0.3075    1.5763 C   0  0  0  0  0  0  0  0  0  0  0  0
    5.5295    0.5846    1.8320 N   0  0  0  0  0  0  0  0  0  0  0  0
    5.5752    1.5878    2.7836 C   0  0  0  0  0  0  0  0  0  0  0  0
    6.8783    2.3471    2.7491 C   0  0  0  0  0  0  0  0  0  0  0  0
    4.6922    1.8934    3.5763 O   0  0  0  0  0  0  0  0  0  0  0  0
    4.6629   -1.2586    0.5667 C   0  0  0  0  0  0  0  0  0  0  0  0
    3.6609   -2.1816    0.2524 C   0  0  0  0  0  0  0  0  0  0  0  0
   -1.1299   -0.9721   -0.3775 C   0  0  0  0  0  0  0  0  0  0  0  0
   -1.5988    0.3480   -0.4471 C   0  0  0  0  0  0  0  0  0  0  0  0
   -2.8808    0.6318    0.2266 C   0  0  0  0  0  0  0  0  0  0  0  0
   -2.8605    1.2147    1.3053 O   0  0  0  0  0  0  0  0  0  0  0  0
   -4.0378    0.1834   -0.3814 N   0  0  0  0  0  0  0  0  0  0  0  0
   -4.1724   -0.5060   -1.6587 C   0  0  0  0  0  0  0  0  0  0  0  0
   -5.6433   -0.8938   -1.7255 C   0  0  0  0  0  0  0  0  0  0  0  0
   -6.3249    0.2043   -0.9197 C   0  0  0  0  0  0  0  0  0  0  0  0
   -5.3362    0.4609    0.2077 C   0  0  0  0  0  0  0  0  0  0  0  0
   -2.9257    4.0277   -2.6125 H   0  0  0  0  0  0  0  0  0  0  0  0
   -3.5729    2.6164   -1.7683 H   0  0  0  0  0  0  0  0  0  0  0  0
   -2.4619    2.4026   -3.1506 H   0  0  0  0  0  0  0  0  0  0  0  0
    1.0115    1.7515   -2.1303 H   0  0  0  0  0  0  0  0  0  0  0  0
    1.8105   -0.5723   -2.0647 H   0  0  0  0  0  0  0  0  0  0  0  0
    0.7553   -3.3221    1.3608 H   0  0  0  0  0  0  0  0  0  0  0  0
    1.3113   -1.1784    2.4995 H   0  0  0  0  0  0  0  0  0  0  0  0
    3.0494    0.4238    3.0514 H   0  0  0  0  0  0  0  0  0  0  0  0
    6.3527    0.4715    1.2538 H   0  0  0  0  0  0  0  0  0  0  0  0
    6.8381    3.1003    1.9580 H   0  0  0  0  0  0  0  0  0  0  0  0
    7.7194    1.6705    2.5723 H   0  0  0  0  0  0  0  0  0  0  0  0
    7.0372    2.8406    3.7123 H   0  0  0  0  0  0  0  0  0  0  0  0
    5.5964   -1.3018    0.0113 H   0  0  0  0  0  0  0  0  0  0  0  0
    3.8396   -2.9183   -0.5274 H   0  0  0  0  0  0  0  0  0  0  0  0
   -1.7226   -1.7302    0.1311 H   0  0  0  0  0  0  0  0  0  0  0  0
   -3.5159   -1.3772   -1.7152 H   0  0  0  0  0  0  0  0  0  0  0  0
   -3.9064    0.1955   -2.4558 H   0  0  0  0  0  0  0  0  0  0  0  0
   -6.0138   -0.9660   -2.7516 H   0  0  0  0  0  0  0  0  0  0  0  0
   -5.7984   -1.8623   -1.2349 H   0  0  0  0  0  0  0  0  0  0  0  0
   -7.3151   -0.0823   -0.5557 H   0  0  0  0  0  0  0  0  0  0  0  0
   -6.4314    1.1040   -1.5378 H   0  0  0  0  0  0  0  0  0  0  0  0
   -5.3878    1.4840    0.5921 H   0  0  0  0  0  0  0  0  0  0  0  0
   -5.4834   -0.2402    1.0366 H   0  0  0  0  0  0  0  0  0  0  0  0
  1  2  1  0
  2  3  1  0
  3  4  2  0
  4  5  1  0
  5  6  2  0
  6  7  1  0
  7  8  2  0
  7  9  2  0
  7 10  1  0
 10 11  1  0
 11 12  2  0
 12 13  1  0
 13 14  2  0
 14 15  1  0
 15 16  1  0
 16 17  1  0
 16 18  2  0
 14 19  1  0
 19 20  2  0
  6 21  1  0
 21 22  2  0
 22 23  1  0
 23 24  2  0
 23 25  1  0
 25 26  1  0
 26 27  1  0
 27 28  1  0
 28 29  1  0
 22  3  1  0
 29 25  1  0
 20 11  1  0
  1 30  1  0
  1 31  1  0
  1 32  1  0
  4 33  1  0
  5 34  1  0
 10 35  1  0
 12 36  1  0
 13 37  1  0
 15 38  1  0
 17 39  1  0
 17 40  1  0
 17 41  1  0
 19 42  1  0
 20 43  1  0
 21 44  1  0
 26 45  1  0
 26 46  1  0
 27 47  1  0
 27 48  1  0
 28 49  1  0
 28 50  1  0
 29 51  1  0
 29 52  1  0
M  END
$$$$
