
     RDKit          3D

101106  0  0  0  0  0  0  0  0999 V2000
    7.1326    2.9811    2.6563 C   0  0  0  0  0  0  0  0  0  0  0  0
    6.7655    2.1372    1.5163 N   0  0  0  0  0  0  0  0  0  0  0  0
    5.3703    2.3794    1.1521 C   0  0  0  0  0  0  0  0  0  0  0  0
    7.6687    2.3656    0.3760 C   0  0  0  0  0  0  0  0  0  0  0  0
    7.6573    1.2290   -0.6723 C   0  0  0  0  0  0  0  0  0  0  0  0
    8.2221   -0.1042   -0.1452 C   0  0  2  0  0  0  0  0  0  0  0  0
    8.6752   -1.0845   -1.2494 C   0  0  0  0  0  0  0  0  0  0  0  0
   10.2827   -0.6535   -2.0148 S   0  0  0  0  0  0  0  0  0  0  0  0
   11.4825   -0.9856   -0.7261 C   0  0  0  0  0  0  0  0  0  0  0  0
   12.7470   -0.3977   -0.8767 C   0  0  0  0  0  0  0  0  0  0  0  0
   13.7477   -0.5963    0.0786 C   0  0  0  0  0  0  0  0  0  0  0  0
   13.4969   -1.3805    1.2010 C   0  0  0  0  0  0  0  0  0  0  0  0
   12.2480   -1.9759    1.3616 C   0  0  0  0  0  0  0  0  0  0  0  0
   11.2521   -1.7855    0.3995 C   0  0  0  0  0  0  0  0  0  0  0  0
    7.3446   -0.7499    0.8491 N   0  0  0  0  0  0  0  0  0  0  0  0
    6.0750   -1.2973    0.6805 C   0  0  0  0  0  0  0  0  0  0  0  0
    5.4934   -1.4929   -0.5842 C   0  0  0  0  0  0  0  0  0  0  0  0
    4.2642   -2.1485   -0.7569 C   0  0  0  0  0  0  0  0  0  0  0  0
    3.5825   -2.6440    0.3535 C   0  0  0  0  0  0  0  0  0  0  0  0
    2.1134   -3.6067    0.1217 S   0  0  0  0  0  6  0  0  0  0  0  0
    2.2172   -4.3370   -1.1222 O   0  0  0  0  0  0  0  0  0  0  0  0
    1.8580   -4.3050    1.3704 O   0  0  0  0  0  0  0  0  0  0  0  0
    0.9125   -2.4605    0.0379 N   0  0  0  0  0  0  0  0  0  0  0  0
    0.5941   -1.6998   -1.0958 C   0  0  0  0  0  0  0  0  0  0  0  0
    1.2837   -1.6617   -2.1054 O   0  0  0  0  0  0  0  0  0  0  0  0
   -0.6849   -0.9439   -1.0050 C   0  0  0  0  0  0  0  0  0  0  0  0
   -1.2228   -0.5227    0.2104 C   0  0  0  0  0  0  0  0  0  0  0  0
   -2.4946    0.0702    0.2522 C   0  0  0  0  0  0  0  0  0  0  0  0
   -3.2834    0.2439   -0.8987 C   0  0  0  0  0  0  0  0  0  0  0  0
   -4.6101    0.7544   -0.8588 N   0  0  0  0  0  0  0  0  0  0  0  0
   -5.5684   -0.0226   -1.7053 C   0  0  0  0  0  0  0  0  0  0  0  0
   -7.0155    0.5233   -1.6229 C   0  0  0  0  0  0  0  0  0  0  0  0
   -7.4881    0.5985   -0.2228 N   0  0  0  0  0  0  0  0  0  0  0  0
   -8.9080    0.9838   -0.1266 C   0  0  0  0  0  0  0  0  0  0  0  0
   -9.8902   -0.1885   -0.1822 C   0  0  0  0  0  0  0  0  0  0  0  0
   -9.4427   -1.5192   -0.3397 C   0  0  0  0  0  0  0  0  0  0  0  0
  -10.3364   -2.5925   -0.3721 C   0  0  0  0  0  0  0  0  0  0  0  0
  -11.6988   -2.3670   -0.2311 C   0  0  0  0  0  0  0  0  0  0  0  0
  -12.1649   -1.0636   -0.0602 C   0  0  0  0  0  0  0  0  0  0  0  0
  -11.2840    0.0386   -0.0345 C   0  0  0  0  0  0  0  0  0  0  0  0
  -11.8533    1.3759    0.1913 C   0  0  0  0  0  0  0  0  0  0  0  0
  -12.0227    1.8654    1.4975 C   0  0  0  0  0  0  0  0  0  0  0  0
  -12.5959    3.1177    1.7277 C   0  0  0  0  0  0  0  0  0  0  0  0
  -13.0122    3.8897    0.6419 C   0  0  0  0  0  0  0  0  0  0  0  0
  -13.7387    5.4239    0.9199 Cl  0  0  0  0  0  0  0  0  0  0  0  0
  -12.8435    3.4276   -0.6613 C   0  0  0  0  0  0  0  0  0  0  0  0
  -12.2690    2.1737   -0.8853 C   0  0  0  0  0  0  0  0  0  0  0  0
   -6.6124    1.5581    0.4699 C   0  0  0  0  0  0  0  0  0  0  0  0
   -5.1519    1.0543    0.4956 C   0  0  0  0  0  0  0  0  0  0  0  0
   -2.6771   -0.1077   -2.1194 C   0  0  0  0  0  0  0  0  0  0  0  0
   -1.4010   -0.6965   -2.1798 C   0  0  0  0  0  0  0  0  0  0  0  0
    4.1121   -2.4763    1.6307 C   0  0  0  0  0  0  0  0  0  0  0  0
    5.3471   -1.8161    1.7821 C   0  0  0  0  0  0  0  0  0  0  0  0
    5.8745   -1.7073    3.1471 N   0  0  0  0  0  4  0  0  0  0  0  0
    6.5339   -0.7015    3.4481 O   0  0  0  0  0  0  0  0  0  0  0  0
    5.5911   -2.6271    3.9365 O   0  0  0  0  0  1  0  0  0  0  0  0
    8.1402    2.7259    3.0004 H   0  0  0  0  0  0  0  0  0  0  0  0
    7.1095    4.0506    2.4189 H   0  0  0  0  0  0  0  0  0  0  0  0
    6.4567    2.8032    3.4995 H   0  0  0  0  0  0  0  0  0  0  0  0
    5.1800    3.4183    0.8516 H   0  0  0  0  0  0  0  0  0  0  0  0
    4.7142    2.1462    1.9981 H   0  0  0  0  0  0  0  0  0  0  0  0
    5.0509    1.7257    0.3355 H   0  0  0  0  0  0  0  0  0  0  0  0
    8.7039    2.4669    0.7290 H   0  0  0  0  0  0  0  0  0  0  0  0
    7.4291    3.3170   -0.1227 H   0  0  0  0  0  0  0  0  0  0  0  0
    8.2796    1.5710   -1.5088 H   0  0  0  0  0  0  0  0  0  0  0  0
    6.6543    1.0980   -1.0863 H   0  0  0  0  0  0  0  0  0  0  0  0
    9.1178    0.1576    0.4304 H   0  0  0  0  0  0  0  0  0  0  0  0
    8.7166   -2.1142   -0.8819 H   0  0  0  0  0  0  0  0  0  0  0  0
    7.9698   -1.0882   -2.0881 H   0  0  0  0  0  0  0  0  0  0  0  0
   12.9646    0.2222   -1.7451 H   0  0  0  0  0  0  0  0  0  0  0  0
   14.7193   -0.1267   -0.0570 H   0  0  0  0  0  0  0  0  0  0  0  0
   14.2730   -1.5282    1.9432 H   0  0  0  0  0  0  0  0  0  0  0  0
   12.0473   -2.5901    2.2353 H   0  0  0  0  0  0  0  0  0  0  0  0
   10.2992   -2.2766    0.5665 H   0  0  0  0  0  0  0  0  0  0  0  0
    7.3702   -0.1840    1.7158 H   0  0  0  0  0  0  0  0  0  0  0  0
    5.9718   -1.1331   -1.4888 H   0  0  0  0  0  0  0  0  0  0  0  0
    3.8633   -2.2892   -1.7625 H   0  0  0  0  0  0  0  0  0  0  0  0
    0.2410   -2.5988    0.7913 H   0  0  0  0  0  0  0  0  0  0  0  0
   -0.6773   -0.6351    1.1393 H   0  0  0  0  0  0  0  0  0  0  0  0
   -2.8558    0.3578    1.2348 H   0  0  0  0  0  0  0  0  0  0  0  0
   -5.5699   -1.0779   -1.3913 H   0  0  0  0  0  0  0  0  0  0  0  0
   -5.2784    0.0126   -2.7623 H   0  0  0  0  0  0  0  0  0  0  0  0
   -7.0661    1.5153   -2.0984 H   0  0  0  0  0  0  0  0  0  0  0  0
   -7.6617   -0.1401   -2.2086 H   0  0  0  0  0  0  0  0  0  0  0  0
   -9.1647    1.7215   -0.9014 H   0  0  0  0  0  0  0  0  0  0  0  0
   -9.0688    1.4653    0.8473 H   0  0  0  0  0  0  0  0  0  0  0  0
   -8.3801   -1.7370   -0.4375 H   0  0  0  0  0  0  0  0  0  0  0  0
   -9.9649   -3.6095   -0.4924 H   0  0  0  0  0  0  0  0  0  0  0  0
  -12.3978   -3.1994   -0.2594 H   0  0  0  0  0  0  0  0  0  0  0  0
  -13.2335   -0.9074    0.0740 H   0  0  0  0  0  0  0  0  0  0  0  0
  -11.7148    1.2556    2.3425 H   0  0  0  0  0  0  0  0  0  0  0  0
  -12.7214    3.4751    2.7409 H   0  0  0  0  0  0  0  0  0  0  0  0
  -13.1777    4.0267   -1.5057 H   0  0  0  0  0  0  0  0  0  0  0  0
  -12.1650    1.8171   -1.9045 H   0  0  0  0  0  0  0  0  0  0  0  0
   -6.9346    1.6771    1.5126 H   0  0  0  0  0  0  0  0  0  0  0  0
   -6.6647    2.5471   -0.0047 H   0  0  0  0  0  0  0  0  0  0  0  0
   -4.5428    1.8348    0.9754 H   0  0  0  0  0  0  0  0  0  0  0  0
   -5.1204    0.1451    1.1143 H   0  0  0  0  0  0  0  0  0  0  0  0
   -3.1894    0.0776   -3.0661 H   0  0  0  0  0  0  0  0  0  0  0  0
   -0.9904   -0.9852   -3.1515 H   0  0  0  0  0  0  0  0  0  0  0  0
    3.5926   -2.8818    2.4976 H   0  0  0  0  0  0  0  0  0  0  0  0
  1  2  1  0
  2  3  1  0
  2  4  1  0
  4  5  1  0
  5  6  1  0
  6  7  1  0
  7  8  1  0
  8  9  1  0
  9 10  2  0
 10 11  1  0
 11 12  2  0
 12 13  1  0
 13 14  2  0
  6 15  1  0
 15 16  1  0
 16 17  2  0
 17 18  1  0
 18 19  2  0
 19 20  1  0
 20 21  2  0
 20 22  2  0
 20 23  1  0
 23 24  1  0
 24 25  2  0
 24 26  1  0
 26 27  2  0
 27 28  1  0
 28 29  2  0
 29 30  1  0
 30 31  1  0
 31 32  1  0
 32 33  1  0
 33 34  1  0
 34 35  1  0
 35 36  2  0
 36 37  1  0
 37 38  2  0
 38 39  1  0
 39 40  2  0
 40 41  1  0
 41 42  2  0
 42 43  1  0
 43 44  2  0
 44 45  1  0
 44 46  1  0
 46 47  2  0
 33 48  1  0
 48 49  1  0
 29 50  1  0
 50 51  2  0
 19 52  1  0
 52 53  2  0
 53 54  1  0
 54 55  2  0
 54 56  1  0
 14  9  1  0
 53 16  1  0
 51 26  1  0
 49 30  1  0
 40 35  1  0
 47 41  1  0
  1 57  1  0
  1 58  1  0
  1 59  1  0
  3 60  1  0
  3 61  1  0
  3 62  1  0
  4 63  1  0
  4 64  1  0
  5 65  1  0
  5 66  1  0
  6 67  1  1
  7 68  1  0
  7 69  1  0
 10 70  1  0
 11 71  1  0
 12 72  1  0
 13 73  1  0
 14 74  1  0
 15 75  1  0
 17 76  1  0
 18 77  1  0
 23 78  1  0
 27 79  1  0
 28 80  1  0
 31 81  1  0
 31 82  1  0
 32 83  1  0
 32 84  1  0
 34 85  1  0
 34 86  1  0
 36 87  1  0
 37 88  1  0
 38 89  1  0
 39 90  1  0
 42 91  1  0
 43 92  1  0
 46 93  1  0
 47 94  1  0
 48 95  1  0
 48 96  1  0
 49 97  1  0
 49 98  1  0
 50 99  1  0
 51100  1  0
 52101  1  0
M  CHG  2  54   1  56  -1
M  END
$$$$
