
     RDKit          3D

 53 56  0  0  0  0  0  0  0  0999 V2000
   -4.9564   -1.1718    0.4302 C   0  0  0  0  0  0  0  0  0  0  0  0
   -3.4426   -1.0278    0.5214 C   0  0  0  0  0  0  0  0  0  0  0  0
   -2.8678   -0.0374   -0.5129 C   0  0  2  0  0  0  0  0  0  0  0  0
   -1.4126   -0.0425   -0.4815 N   0  0  0  0  0  0  0  0  0  0  0  0
   -0.6728   -1.0472   -1.0575 C   0  0  0  0  0  0  0  0  0  0  0  0
   -1.1341   -2.0185   -1.6388 O   0  0  0  0  0  0  0  0  0  0  0  0
    0.7899   -0.8692   -0.9347 C   0  0  0  0  0  0  0  0  0  0  0  0
    1.4036   -1.0948    0.3108 C   0  0  0  0  0  0  0  0  0  0  0  0
    0.6204   -1.5837    1.4977 C   0  0  0  0  0  0  0  0  0  0  0  0
    2.7696   -0.8253    0.3843 C   0  0  0  0  0  0  0  0  0  0  0  0
    3.5651   -0.9378    1.6176 C   0  0  0  0  0  0  0  0  0  0  0  0
    3.3024   -0.1291    2.7367 C   0  0  0  0  0  0  0  0  0  0  0  0
    4.0636   -0.2469    3.9027 C   0  0  0  0  0  0  0  0  0  0  0  0
    5.1053   -1.1697    3.9649 C   0  0  0  0  0  0  0  0  0  0  0  0
    5.3920   -1.9691    2.8610 C   0  0  0  0  0  0  0  0  0  0  0  0
    4.6305   -1.8501    1.6959 C   0  0  0  0  0  0  0  0  0  0  0  0
    3.4952   -0.4264   -0.6917 N   0  0  0  0  0  0  0  0  0  0  0  0
    2.8968   -0.2561   -1.8794 C   0  0  0  0  0  0  0  0  0  0  0  0
    3.6733    0.1516   -2.9565 C   0  0  0  0  0  0  0  0  0  0  0  0
    3.1272    0.3648   -4.2241 C   0  0  0  0  0  0  0  0  0  0  0  0
    1.7696    0.1673   -4.4275 C   0  0  0  0  0  0  0  0  0  0  0  0
    0.9706   -0.2411   -3.3615 C   0  0  0  0  0  0  0  0  0  0  0  0
    1.5226   -0.4597   -2.0725 C   0  0  0  0  0  0  0  0  0  0  0  0
   -3.3551    1.3910   -0.3320 C   0  0  0  0  0  0  0  0  0  0  0  0
   -3.8843    2.0888   -1.4292 C   0  0  0  0  0  0  0  0  0  0  0  0
   -4.3194    3.4084   -1.2927 C   0  0  0  0  0  0  0  0  0  0  0  0
   -4.2250    4.0507   -0.0605 C   0  0  0  0  0  0  0  0  0  0  0  0
   -3.6924    3.3762    1.0356 C   0  0  0  0  0  0  0  0  0  0  0  0
   -3.2563    2.0566    0.9013 C   0  0  0  0  0  0  0  0  0  0  0  0
   -5.3036   -1.9348    1.1343 H   0  0  0  0  0  0  0  0  0  0  0  0
   -5.2607   -1.4774   -0.5759 H   0  0  0  0  0  0  0  0  0  0  0  0
   -5.4664   -0.2357    0.6763 H   0  0  0  0  0  0  0  0  0  0  0  0
   -2.9993   -2.0188    0.3627 H   0  0  0  0  0  0  0  0  0  0  0  0
   -3.1651   -0.7385    1.5420 H   0  0  0  0  0  0  0  0  0  0  0  0
   -3.1655   -0.3938   -1.5082 H   0  0  0  0  0  0  0  0  0  0  0  0
   -0.9393    0.7579   -0.0818 H   0  0  0  0  0  0  0  0  0  0  0  0
    0.2074   -0.7355    2.0524 H   0  0  0  0  0  0  0  0  0  0  0  0
   -0.2004   -2.2421    1.1954 H   0  0  0  0  0  0  0  0  0  0  0  0
    1.2396   -2.1829    2.1727 H   0  0  0  0  0  0  0  0  0  0  0  0
    2.5058    0.6106    2.7009 H   0  0  0  0  0  0  0  0  0  0  0  0
    3.8482    0.3873    4.7587 H   0  0  0  0  0  0  0  0  0  0  0  0
    5.7007   -1.2591    4.8699 H   0  0  0  0  0  0  0  0  0  0  0  0
    6.2117   -2.6816    2.9015 H   0  0  0  0  0  0  0  0  0  0  0  0
    4.8718   -2.4723    0.8356 H   0  0  0  0  0  0  0  0  0  0  0  0
    4.7388    0.3095   -2.8029 H   0  0  0  0  0  0  0  0  0  0  0  0
    3.7656    0.6816   -5.0445 H   0  0  0  0  0  0  0  0  0  0  0  0
    1.3321    0.3242   -5.4101 H   0  0  0  0  0  0  0  0  0  0  0  0
   -0.0907   -0.4022   -3.5449 H   0  0  0  0  0  0  0  0  0  0  0  0
   -3.9609    1.6071   -2.4021 H   0  0  0  0  0  0  0  0  0  0  0  0
   -4.7308    3.9353   -2.1500 H   0  0  0  0  0  0  0  0  0  0  0  0
   -4.5645    5.0778    0.0446 H   0  0  0  0  0  0  0  0  0  0  0  0
   -3.6158    3.8788    1.9964 H   0  0  0  0  0  0  0  0  0  0  0  0
   -2.8379    1.5536    1.7697 H   0  0  0  0  0  0  0  0  0  0  0  0
  1  2  1  0
  2  3  1  0
  3  4  1  0
  4  5  1  0
  5  6  2  0
  5  7  1  0
  7  8  2  0
  8  9  1  0
  8 10  1  0
 10 11  1  0
 11 12  2  0
 12 13  1  0
 13 14  2  0
 14 15  1  0
 15 16  2  0
 10 17  2  0
 17 18  1  0
 18 19  2  0
 19 20  1  0
 20 21  2  0
 21 22  1  0
 22 23  2  0
  3 24  1  0
 24 25  2  0
 25 26  1  0
 26 27  2  0
 27 28  1  0
 28 29  2  0
 23  7  1  0
 29 24  1  0
 16 11  1  0
 23 18  1  0
  1 30  1  0
  1 31  1  0
  1 32  1  0
  2 33  1  0
  2 34  1  0
  3 35  1  6
  4 36  1  0
  9 37  1  0
  9 38  1  0
  9 39  1  0
 12 40  1  0
 13 41  1  0
 14 42  1  0
 15 43  1  0
 16 44  1  0
 19 45  1  0
 20 46  1  0
 21 47  1  0
 22 48  1  0
 25 49  1  0
 26 50  1  0
 27 51  1  0
 28 52  1  0
 29 53  1  0
M  END
$$$$
