
     RDKit          3D

 42 43  0  0  0  0  0  0  0  0999 V2000
    3.0427    2.5045   -0.3313 C   0  0  0  0  0  0  0  0  0  0  0  0
    3.9861    2.0550    0.7744 C   0  0  0  0  0  0  0  0  0  0  0  0
    3.2599    1.6932    2.0634 C   0  0  0  0  0  0  0  0  0  0  0  0
    3.0300   -0.0617    2.3551 S   0  0  0  0  0  6  0  0  0  0  0  0
    2.3474   -0.1871    3.6274 O   0  0  0  0  0  0  0  0  0  0  0  0
    4.2899   -0.7374    2.1318 O   0  0  0  0  0  0  0  0  0  0  0  0
    1.9537   -0.5482    1.1768 N   0  0  0  0  0  0  0  0  0  0  0  0
    2.4336   -1.0272   -0.1241 C   0  0  0  0  0  0  0  0  0  0  0  0
    0.5544   -0.0893    1.2344 C   0  0  0  0  0  0  0  0  0  0  0  0
   -0.4349   -1.2149    1.0986 C   0  0  0  0  0  0  0  0  0  0  0  0
   -0.4125   -2.2863    2.0019 C   0  0  0  0  0  0  0  0  0  0  0  0
   -1.3330   -3.3208    1.8767 C   0  0  0  0  0  0  0  0  0  0  0  0
   -2.2549   -3.2532    0.8477 C   0  0  0  0  0  0  0  0  0  0  0  0
   -2.3155   -2.2382   -0.0389 N   0  0  0  0  0  0  0  0  0  0  0  0
   -1.4181   -1.2342    0.1109 C   0  0  0  0  0  0  0  0  0  0  0  0
   -1.4173   -0.1961   -0.8126 O   0  0  0  0  0  0  0  0  0  0  0  0
   -2.6139    0.1365   -1.4019 C   0  0  0  0  0  0  0  0  0  0  0  0
   -2.6134    0.3071   -2.7870 C   0  0  0  0  0  0  0  0  0  0  0  0
   -3.7794    0.7090   -3.4396 C   0  0  0  0  0  0  0  0  0  0  0  0
   -4.9395    0.9559   -2.7050 C   0  0  0  0  0  0  0  0  0  0  0  0
   -4.9343    0.8050   -1.3179 C   0  0  0  0  0  0  0  0  0  0  0  0
   -3.7690    0.4032   -0.6629 C   0  0  0  0  0  0  0  0  0  0  0  0
    2.4569    3.3739   -0.0152 H   0  0  0  0  0  0  0  0  0  0  0  0
    2.3481    1.7153   -0.6224 H   0  0  0  0  0  0  0  0  0  0  0  0
    3.6152    2.7916   -1.2193 H   0  0  0  0  0  0  0  0  0  0  0  0
    4.6183    1.2371    0.4162 H   0  0  0  0  0  0  0  0  0  0  0  0
    4.6571    2.8974    0.9845 H   0  0  0  0  0  0  0  0  0  0  0  0
    3.8682    2.0260    2.9137 H   0  0  0  0  0  0  0  0  0  0  0  0
    2.2857    2.1835    2.1536 H   0  0  0  0  0  0  0  0  0  0  0  0
    3.4642   -0.7217   -0.3203 H   0  0  0  0  0  0  0  0  0  0  0  0
    2.3905   -2.1202   -0.1448 H   0  0  0  0  0  0  0  0  0  0  0  0
    1.8214   -0.6400   -0.9444 H   0  0  0  0  0  0  0  0  0  0  0  0
    0.3434    0.4148    2.1850 H   0  0  0  0  0  0  0  0  0  0  0  0
    0.4104    0.6787    0.4668 H   0  0  0  0  0  0  0  0  0  0  0  0
    0.3293   -2.3156    2.7990 H   0  0  0  0  0  0  0  0  0  0  0  0
   -1.3266   -4.1603    2.5631 H   0  0  0  0  0  0  0  0  0  0  0  0
   -2.9916   -4.0383    0.7034 H   0  0  0  0  0  0  0  0  0  0  0  0
   -1.7096    0.1175   -3.3583 H   0  0  0  0  0  0  0  0  0  0  0  0
   -3.7837    0.8290   -4.5196 H   0  0  0  0  0  0  0  0  0  0  0  0
   -5.8488    1.2660   -3.2136 H   0  0  0  0  0  0  0  0  0  0  0  0
   -5.8382    0.9981   -0.7462 H   0  0  0  0  0  0  0  0  0  0  0  0
   -3.7726    0.2922    0.4175 H   0  0  0  0  0  0  0  0  0  0  0  0
  1  2  1  0
  2  3  1  0
  3  4  1  0
  4  5  2  0
  4  6  2  0
  4  7  1  0
  7  8  1  0
  7  9  1  0
  9 10  1  0
 10 11  2  0
 11 12  1  0
 12 13  2  0
 13 14  1  0
 14 15  2  0
 15 16  1  0
 16 17  1  0
 17 18  2  0
 18 19  1  0
 19 20  2  0
 20 21  1  0
 21 22  2  0
 15 10  1  0
 22 17  1  0
  1 23  1  0
  1 24  1  0
  1 25  1  0
  2 26  1  0
  2 27  1  0
  3 28  1  0
  3 29  1  0
  8 30  1  0
  8 31  1  0
  8 32  1  0
  9 33  1  0
  9 34  1  0
 11 35  1  0
 12 36  1  0
 13 37  1  0
 18 38  1  0
 19 39  1  0
 20 40  1  0
 21 41  1  0
 22 42  1  0
M  END
$$$$
