
     RDKit          3D

 53 56  0  0  0  0  0  0  0  0999 V2000
    3.0378    0.4454   -1.5226 O   0  0  0  0  0  0  0  0  0  0  0  0
    2.9116    0.0787   -0.3564 C   0  0  0  0  0  0  0  0  0  0  0  0
    3.8243   -0.6838    0.3297 N   0  0  0  0  0  0  0  0  0  0  0  0
    5.0686   -1.1695   -0.1273 C   0  0  0  0  0  0  0  0  0  0  0  0
    5.6603   -0.8046   -1.3375 C   0  0  0  0  0  0  0  0  0  0  0  0
    6.8967   -1.3439   -1.7121 C   0  0  0  0  0  0  0  0  0  0  0  0
    7.5544   -2.2478   -0.8771 C   0  0  0  0  0  0  0  0  0  0  0  0
    6.9749   -2.6102    0.3364 C   0  0  0  0  0  0  0  0  0  0  0  0
    7.7918   -3.7235    1.3657 Cl  0  0  0  0  0  0  0  0  0  0  0  0
    5.7447   -2.0710    0.7062 C   0  0  0  0  0  0  0  0  0  0  0  0
    5.1840   -2.4136    1.8796 F   0  0  0  0  0  0  0  0  0  0  0  0
    1.7926    0.4270    0.3748 N   0  0  0  0  0  0  0  0  0  0  0  0
    1.4345    0.0099    1.7174 C   0  0  0  0  0  0  0  0  0  0  0  0
    0.2080    0.8301    2.0884 C   0  0  0  0  0  0  0  0  0  0  0  0
   -0.4126    1.2890    0.7589 C   0  0  0  0  0  0  0  0  0  0  0  0
   -1.7576    0.7373    0.4626 N   0  0  0  0  0  0  0  0  0  0  0  0
   -1.8983   -0.6596    0.4330 C   0  0  0  0  0  0  0  0  0  0  0  0
   -0.9738   -1.4173    0.7107 O   0  0  0  0  0  0  0  0  0  0  0  0
   -3.2221   -1.2714    0.0997 C   0  0  0  0  0  0  0  0  0  0  0  0
   -3.3533   -2.7724   -0.0574 C   0  0  0  0  0  0  0  0  0  0  0  0
   -3.9305   -2.0968    1.1504 C   0  0  0  0  0  0  0  0  0  0  0  0
   -2.7565    1.7066   -0.0550 C   0  0  0  0  0  0  0  0  0  0  0  0
   -2.8985    1.6599   -1.5787 C   0  0  0  0  0  0  0  0  0  0  0  0
   -3.9607    2.6299   -2.0956 C   0  0  0  0  0  0  0  0  0  0  0  0
   -4.7467    3.2072   -1.0546 O   0  0  0  0  0  0  0  0  0  0  0  0
   -5.2303    2.2269   -0.1466 C   0  0  0  0  0  0  0  0  0  0  0  0
   -4.0873    1.7041    0.7090 C   0  0  0  0  0  0  0  0  0  0  0  0
    0.6495    0.9979   -0.3128 C   0  0  0  0  0  0  0  0  0  0  0  0
    3.5216   -1.0665    1.2142 H   0  0  0  0  0  0  0  0  0  0  0  0
    5.1862   -0.0987   -2.0138 H   0  0  0  0  0  0  0  0  0  0  0  0
    7.3440   -1.0518   -2.6593 H   0  0  0  0  0  0  0  0  0  0  0  0
    8.5127   -2.6613   -1.1781 H   0  0  0  0  0  0  0  0  0  0  0  0
    2.2634    0.1885    2.4096 H   0  0  0  0  0  0  0  0  0  0  0  0
    1.2283   -1.0649    1.7049 H   0  0  0  0  0  0  0  0  0  0  0  0
    0.5415    1.7168    2.6423 H   0  0  0  0  0  0  0  0  0  0  0  0
   -0.4784    0.2874    2.7477 H   0  0  0  0  0  0  0  0  0  0  0  0
   -0.5200    2.3765    0.8416 H   0  0  0  0  0  0  0  0  0  0  0  0
   -3.8488   -0.7182   -0.5849 H   0  0  0  0  0  0  0  0  0  0  0  0
   -4.0357   -3.1438   -0.8119 H   0  0  0  0  0  0  0  0  0  0  0  0
   -2.4748   -3.3933    0.0876 H   0  0  0  0  0  0  0  0  0  0  0  0
   -5.0067   -2.0203    1.2237 H   0  0  0  0  0  0  0  0  0  0  0  0
   -3.4345   -2.2579    2.0996 H   0  0  0  0  0  0  0  0  0  0  0  0
   -2.3465    2.7054    0.1470 H   0  0  0  0  0  0  0  0  0  0  0  0
   -3.1378    0.6559   -1.9399 H   0  0  0  0  0  0  0  0  0  0  0  0
   -1.9368    1.8951   -2.0513 H   0  0  0  0  0  0  0  0  0  0  0  0
   -4.6275    2.1262   -2.8063 H   0  0  0  0  0  0  0  0  0  0  0  0
   -3.4836    3.4565   -2.6391 H   0  0  0  0  0  0  0  0  0  0  0  0
   -5.9935    2.6901    0.4874 H   0  0  0  0  0  0  0  0  0  0  0  0
   -5.7165    1.4142   -0.7007 H   0  0  0  0  0  0  0  0  0  0  0  0
   -3.9620    2.3579    1.5854 H   0  0  0  0  0  0  0  0  0  0  0  0
   -4.3624    0.7359    1.1328 H   0  0  0  0  0  0  0  0  0  0  0  0
    0.3021    0.2905   -1.0751 H   0  0  0  0  0  0  0  0  0  0  0  0
    0.9601    1.9151   -0.8268 H   0  0  0  0  0  0  0  0  0  0  0  0
  1  2  2  0
  2  3  1  0
  3  4  1  0
  4  5  2  0
  5  6  1  0
  6  7  2  0
  7  8  1  0
  8  9  1  0
  8 10  2  0
 10 11  1  0
  2 12  1  0
 12 13  1  0
 13 14  1  0
 14 15  1  0
 15 16  1  0
 16 17  1  0
 17 18  2  0
 17 19  1  0
 19 20  1  0
 20 21  1  0
 16 22  1  0
 22 23  1  0
 23 24  1  0
 24 25  1  0
 25 26  1  0
 26 27  1  0
 15 28  1  0
 10  4  1  0
 28 12  1  0
 21 19  1  0
 27 22  1  0
  3 29  1  0
  5 30  1  0
  6 31  1  0
  7 32  1  0
 13 33  1  0
 13 34  1  0
 14 35  1  0
 14 36  1  0
 15 37  1  0
 19 38  1  0
 20 39  1  0
 20 40  1  0
 21 41  1  0
 21 42  1  0
 22 43  1  0
 23 44  1  0
 23 45  1  0
 24 46  1  0
 24 47  1  0
 26 48  1  0
 26 49  1  0
 27 50  1  0
 27 51  1  0
 28 52  1  0
 28 53  1  0
M  END
$$$$
