
     RDKit          3D

 84 85  0  0  0  0  0  0  0  0999 V2000
    8.1809   -1.6522   -0.4868 N   0  0  0  0  0  0  0  0  0  0  0  0
    7.8563   -1.2765    0.6934 C   0  0  0  0  0  0  0  0  0  0  0  0
    8.6377   -0.4943    1.4642 N   0  0  0  0  0  0  0  0  0  0  0  0
    6.7021   -1.5918    1.3265 N   0  0  0  0  0  0  0  0  0  0  0  0
    5.7628   -2.5528    0.7676 C   0  0  0  0  0  0  0  0  0  0  0  0
    4.9404   -1.9435   -0.3713 C   0  0  0  0  0  0  0  0  0  0  0  0
    4.0766   -0.7639    0.0942 C   0  0  0  0  0  0  0  0  0  0  0  0
    3.3304   -0.0836   -1.0636 C   0  0  2  0  0  0  0  0  0  0  0  0
    2.7300    1.2167   -0.7038 N   0  0  0  0  0  0  0  0  0  0  0  0
    1.8902    1.3116    0.3776 C   0  0  0  0  0  0  0  0  0  0  0  0
    2.3369    1.3501    1.5222 O   0  0  0  0  0  0  0  0  0  0  0  0
    0.3967    1.5552    0.0614 C   0  0  2  0  0  0  0  0  0  0  0  0
    0.2437    3.0152   -0.3990 C   0  0  0  0  0  0  0  0  0  0  0  0
   -1.1776    3.3599   -0.8494 C   0  0  0  0  0  0  0  0  0  0  0  0
   -1.3444    4.8256   -1.2634 C   0  0  0  0  0  0  0  0  0  0  0  0
   -1.3008    5.7889   -0.0763 C   0  0  0  0  0  0  0  0  0  0  0  0
   -1.5805    7.1483   -0.5214 N   0  0  0  0  0  0  0  0  0  0  0  0
   -0.3469    1.3255    1.3159 N   0  0  0  0  0  0  0  0  0  0  0  0
   -0.9177    0.1149    1.6236 C   0  0  0  0  0  0  0  0  0  0  0  0
   -0.4957   -0.4884    2.6106 O   0  0  0  0  0  0  0  0  0  0  0  0
   -2.2406   -0.3018    0.9439 C   0  0  1  0  0  0  0  0  0  0  0  0
   -3.3677    0.4184    1.7187 C   0  0  0  0  0  0  0  0  0  0  0  0
   -4.7161   -0.2460    1.5598 C   0  0  0  0  0  0  0  0  0  0  0  0
   -5.5643    0.0975    0.5004 C   0  0  0  0  0  0  0  0  0  0  0  0
   -6.8058   -0.5254    0.3604 C   0  0  0  0  0  0  0  0  0  0  0  0
   -7.2108   -1.4958    1.2753 C   0  0  0  0  0  0  0  0  0  0  0  0
   -6.3730   -1.8474    2.3319 C   0  0  0  0  0  0  0  0  0  0  0  0
   -5.1296   -1.2283    2.4719 C   0  0  0  0  0  0  0  0  0  0  0  0
   -2.2951    0.0357   -0.4782 N   0  0  0  0  0  0  0  0  0  0  0  0
   -1.8782   -0.6260   -1.5851 C   0  0  0  0  0  0  0  0  0  0  0  0
   -1.8341    0.0386   -2.6272 O   0  0  0  0  0  0  0  0  0  0  0  0
   -1.6150   -2.1433   -1.6486 C   0  0  2  0  0  0  0  0  0  0  0  0
   -2.8122   -2.8144   -2.3346 C   0  0  0  0  0  0  0  0  0  0  0  0
   -4.1123   -2.5582   -1.6358 C   0  0  0  0  0  0  0  0  0  0  0  0
   -5.1077   -2.0614   -2.1342 O   0  0  0  0  0  0  0  0  0  0  0  0
   -4.1095   -2.9949   -0.3625 O   0  0  0  0  0  0  0  0  0  0  0  0
   -1.2361   -2.8524   -0.4264 N   0  0  0  0  0  0  0  0  0  0  0  0
   -0.0559   -3.0374    0.2199 C   0  0  0  0  0  0  0  0  0  0  0  0
   -0.0760   -3.8038    1.1883 O   0  0  0  0  0  0  0  0  0  0  0  0
    1.2200   -2.2394   -0.0877 C   0  0  0  0  0  0  0  0  0  0  0  0
    1.4509   -1.7938   -1.4445 N   0  0  0  0  0  0  0  0  0  0  0  0
    2.4183   -0.9767   -1.9379 C   0  0  0  0  0  0  0  0  0  0  0  0
    2.5040   -0.9270   -3.1699 O   0  0  0  0  0  0  0  0  0  0  0  0
    9.1098   -1.3010   -0.7207 H   0  0  0  0  0  0  0  0  0  0  0  0
    9.3950   -0.0370    0.9711 H   0  0  0  0  0  0  0  0  0  0  0  0
    8.1027    0.1764    2.0048 H   0  0  0  0  0  0  0  0  0  0  0  0
    6.8407   -1.7245    2.3219 H   0  0  0  0  0  0  0  0  0  0  0  0
    5.0850   -2.8813    1.5632 H   0  0  0  0  0  0  0  0  0  0  0  0
    6.2932   -3.4455    0.4175 H   0  0  0  0  0  0  0  0  0  0  0  0
    5.6006   -1.6143   -1.1814 H   0  0  0  0  0  0  0  0  0  0  0  0
    4.3006   -2.7285   -0.7893 H   0  0  0  0  0  0  0  0  0  0  0  0
    3.3953   -1.0933    0.8822 H   0  0  0  0  0  0  0  0  0  0  0  0
    4.7262   -0.0129    0.5641 H   0  0  0  0  0  0  0  0  0  0  0  0
    4.1224    0.2160   -1.7677 H   0  0  0  0  0  0  0  0  0  0  0  0
    3.5239    1.8098   -0.4831 H   0  0  0  0  0  0  0  0  0  0  0  0
    0.1002    0.8453   -0.7085 H   0  0  0  0  0  0  0  0  0  0  0  0
    0.5486    3.6796    0.4190 H   0  0  0  0  0  0  0  0  0  0  0  0
    0.9298    3.2155   -1.2313 H   0  0  0  0  0  0  0  0  0  0  0  0
   -1.8972    3.1275   -0.0567 H   0  0  0  0  0  0  0  0  0  0  0  0
   -1.4331    2.7336   -1.7129 H   0  0  0  0  0  0  0  0  0  0  0  0
   -2.3147    4.9255   -1.7681 H   0  0  0  0  0  0  0  0  0  0  0  0
   -0.5762    5.0920   -2.0001 H   0  0  0  0  0  0  0  0  0  0  0  0
   -0.3196    5.7684    0.4068 H   0  0  0  0  0  0  0  0  0  0  0  0
   -2.0484    5.4986    0.6694 H   0  0  0  0  0  0  0  0  0  0  0  0
   -0.8676    7.4505   -1.1849 H   0  0  0  0  0  0  0  0  0  0  0  0
   -1.5231    7.7854    0.2717 H   0  0  0  0  0  0  0  0  0  0  0  0
    0.2879    1.5392    2.0881 H   0  0  0  0  0  0  0  0  0  0  0  0
   -2.3441   -1.3792    1.0656 H   0  0  0  0  0  0  0  0  0  0  0  0
   -3.4427    1.4692    1.4074 H   0  0  0  0  0  0  0  0  0  0  0  0
   -3.1333    0.4537    2.7918 H   0  0  0  0  0  0  0  0  0  0  0  0
   -5.2673    0.8471   -0.2297 H   0  0  0  0  0  0  0  0  0  0  0  0
   -7.4555   -0.2545   -0.4691 H   0  0  0  0  0  0  0  0  0  0  0  0
   -8.1823   -1.9716    1.1665 H   0  0  0  0  0  0  0  0  0  0  0  0
   -6.6902   -2.5976    3.0519 H   0  0  0  0  0  0  0  0  0  0  0  0
   -4.4883   -1.5111    3.3057 H   0  0  0  0  0  0  0  0  0  0  0  0
   -2.4458    1.0154   -0.6809 H   0  0  0  0  0  0  0  0  0  0  0  0
   -0.7814   -2.2652   -2.3408 H   0  0  0  0  0  0  0  0  0  0  0  0
   -2.9146   -2.4263   -3.3550 H   0  0  0  0  0  0  0  0  0  0  0  0
   -2.6732   -3.8975   -2.4180 H   0  0  0  0  0  0  0  0  0  0  0  0
   -4.9915   -2.7285   -0.0118 H   0  0  0  0  0  0  0  0  0  0  0  0
   -1.9841   -3.3839    0.0159 H   0  0  0  0  0  0  0  0  0  0  0  0
    1.2344   -1.3735    0.5744 H   0  0  0  0  0  0  0  0  0  0  0  0
    2.0638   -2.8889    0.1700 H   0  0  0  0  0  0  0  0  0  0  0  0
    1.1396   -2.4144   -2.1828 H   0  0  0  0  0  0  0  0  0  0  0  0
  1  2  2  3
  2  3  1  0
  2  4  1  0
  4  5  1  0
  5  6  1  0
  6  7  1  0
  7  8  1  0
  8  9  1  0
  9 10  1  0
 10 11  2  0
 10 12  1  0
 12 13  1  0
 13 14  1  0
 14 15  1  0
 15 16  1  0
 16 17  1  0
 12 18  1  0
 18 19  1  0
 19 20  2  0
 19 21  1  0
 21 22  1  0
 22 23  1  0
 23 24  2  0
 24 25  1  0
 25 26  2  0
 26 27  1  0
 27 28  2  0
 21 29  1  0
 29 30  1  0
 30 31  2  0
 30 32  1  0
 32 33  1  0
 33 34  1  0
 34 35  2  0
 34 36  1  0
 32 37  1  0
 37 38  1  0
 38 39  2  0
 38 40  1  0
 40 41  1  0
 41 42  1  0
 42 43  2  0
 42  8  1  0
 28 23  1  0
  1 44  1  0
  3 45  1  0
  3 46  1  0
  4 47  1  0
  5 48  1  0
  5 49  1  0
  6 50  1  0
  6 51  1  0
  7 52  1  0
  7 53  1  0
  8 54  1  6
  9 55  1  0
 12 56  1  6
 13 57  1  0
 13 58  1  0
 14 59  1  0
 14 60  1  0
 15 61  1  0
 15 62  1  0
 16 63  1  0
 16 64  1  0
 17 65  1  0
 17 66  1  0
 18 67  1  0
 21 68  1  6
 22 69  1  0
 22 70  1  0
 24 71  1  0
 25 72  1  0
 26 73  1  0
 27 74  1  0
 28 75  1  0
 29 76  1  0
 32 77  1  6
 33 78  1  0
 33 79  1  0
 36 80  1  0
 37 81  1  0
 40 82  1  0
 40 83  1  0
 41 84  1  0
M  END
$$$$
