
     RDKit          3D

 36 38  0  0  0  0  0  0  0  0999 V2000
    5.4191    2.3212   -1.7558 C   0  0  0  0  0  0  0  0  0  0  0  0
    5.2588    0.9115   -1.8547 O   0  0  0  0  0  0  0  0  0  0  0  0
    4.1699    0.3688   -1.2332 C   0  0  0  0  0  0  0  0  0  0  0  0
    4.0480   -1.0133   -1.3650 C   0  0  0  0  0  0  0  0  0  0  0  0
    2.9774   -1.6999   -0.7787 C   0  0  0  0  0  0  0  0  0  0  0  0
    2.0052   -1.0192   -0.0346 C   0  0  0  0  0  0  0  0  0  0  0  0
    0.8945   -1.7061    0.5629 N   0  0  0  0  0  0  0  0  0  0  0  0
   -0.3775   -1.1263    0.5259 C   0  0  0  0  0  0  0  0  0  0  0  0
   -0.6852   -0.0557    0.0172 O   0  0  0  0  0  0  0  0  0  0  0  0
   -1.3822   -2.0245    1.1698 C   0  0  0  0  0  0  0  0  0  0  0  0
   -2.6894   -1.7984    1.3704 C   0  0  0  0  0  0  0  0  0  0  0  0
   -3.4350   -0.5951    0.9928 C   0  0  0  0  0  0  0  0  0  0  0  0
   -3.9051    0.2631    1.9953 C   0  0  0  0  0  0  0  0  0  0  0  0
   -4.6338    1.4063    1.6602 C   0  0  0  0  0  0  0  0  0  0  0  0
   -4.8956    1.6898    0.3245 C   0  0  0  0  0  0  0  0  0  0  0  0
   -5.6110    2.8229    0.0557 O   0  0  0  0  0  0  0  0  0  0  0  0
   -4.4383    0.8367   -0.6810 C   0  0  0  0  0  0  0  0  0  0  0  0
   -4.7938    1.2096   -2.5040 Br  0  0  0  0  0  0  0  0  0  0  0  0
   -3.7134   -0.3090   -0.3498 C   0  0  0  0  0  0  0  0  0  0  0  0
   -0.6267   -3.4840    1.6755 S   0  0  0  0  0  0  0  0  0  0  0  0
    0.9819   -2.9358    1.2063 C   0  0  0  0  0  0  0  0  0  0  0  0
    2.3182   -3.8427    1.6502 S   0  0  0  0  0  0  0  0  0  0  0  0
    2.1318    0.3746    0.0760 C   0  0  0  0  0  0  0  0  0  0  0  0
    3.2038    1.0624   -0.5113 C   0  0  0  0  0  0  0  0  0  0  0  0
    5.5508    2.6313   -0.7139 H   0  0  0  0  0  0  0  0  0  0  0  0
    6.3277    2.5934   -2.3014 H   0  0  0  0  0  0  0  0  0  0  0  0
    4.5800    2.8477   -2.2225 H   0  0  0  0  0  0  0  0  0  0  0  0
    4.7885   -1.5651   -1.9400 H   0  0  0  0  0  0  0  0  0  0  0  0
    2.9106   -2.7686   -0.9630 H   0  0  0  0  0  0  0  0  0  0  0  0
   -3.2981   -2.5456    1.8779 H   0  0  0  0  0  0  0  0  0  0  0  0
   -3.7047    0.0535    3.0438 H   0  0  0  0  0  0  0  0  0  0  0  0
   -4.9933    2.0745    2.4379 H   0  0  0  0  0  0  0  0  0  0  0  0
   -5.6853    2.8934   -0.9136 H   0  0  0  0  0  0  0  0  0  0  0  0
   -3.3542   -0.9700   -1.1344 H   0  0  0  0  0  0  0  0  0  0  0  0
    1.4092    0.9595    0.6422 H   0  0  0  0  0  0  0  0  0  0  0  0
    3.2470    2.1390   -0.3825 H   0  0  0  0  0  0  0  0  0  0  0  0
  1  2  1  0
  2  3  1  0
  3  4  2  0
  4  5  1  0
  5  6  2  0
  6  7  1  0
  7  8  1  0
  8  9  2  0
  8 10  1  0
 10 11  2  0
 11 12  1  0
 12 13  2  0
 13 14  1  0
 14 15  2  0
 15 16  1  0
 15 17  1  0
 17 18  1  0
 17 19  2  0
 10 20  1  0
 20 21  1  0
 21 22  2  0
  6 23  1  0
 23 24  2  0
 24  3  1  0
 21  7  1  0
 19 12  1  0
  1 25  1  0
  1 26  1  0
  1 27  1  0
  4 28  1  0
  5 29  1  0
 11 30  1  0
 13 31  1  0
 14 32  1  0
 16 33  1  0
 19 34  1  0
 23 35  1  0
 24 36  1  0
M  END
$$$$
