
     RDKit          3D

 39 42  0  0  0  0  0  0  0  0999 V2000
    5.4140   -0.3833    1.6455 C   0  0  0  0  0  0  0  0  0  0  0  0
    4.0738    0.0876    1.3612 N   0  0  0  0  0  0  0  0  0  0  0  0
    3.9176    1.4328    0.9257 N   0  0  0  0  0  0  0  0  0  0  0  0
    2.7998    1.8327    0.3643 C   0  0  0  0  0  0  0  0  0  0  0  0
    2.5561    3.1125   -0.0337 N   0  0  0  0  0  0  0  0  0  0  0  0
    1.7177    0.9056    0.1186 C   0  0  0  0  0  0  0  0  0  0  0  0
    0.4502    0.9183   -0.4258 C   0  0  0  0  0  0  0  0  0  0  0  0
   -0.0372   -0.3933   -0.3817 N   0  0  0  0  0  0  0  0  0  0  0  0
   -1.3568   -0.8466   -0.8028 C   0  0  2  0  0  0  0  0  0  0  0  0
   -1.8568    0.0414   -1.8358 O   0  0  0  0  0  0  0  0  0  0  0  0
   -3.2403    0.3401   -1.5451 C   0  0  2  0  0  0  0  0  0  0  0  0
   -3.3541    1.8157   -1.1503 C   0  0  0  0  0  0  0  0  0  0  0  0
   -4.7007    2.1411   -0.8341 O   0  0  0  0  0  0  0  0  0  0  0  0
   -3.6730   -0.6065   -0.4263 C   0  0  1  0  0  0  0  0  0  0  0  0
   -4.0842   -1.8779   -0.9674 O   0  0  0  0  0  0  0  0  0  0  0  0
   -2.3796   -0.8218    0.3379 C   0  0  1  0  0  0  0  0  0  0  0  0
   -2.4392   -2.0157    1.1129 O   0  0  0  0  0  0  0  0  0  0  0  0
    0.9214   -1.2258    0.1618 C   0  0  0  0  0  0  0  0  0  0  0  0
    0.9074   -2.5534    0.3681 N   0  0  0  0  0  0  0  0  0  0  0  0
    2.0745   -2.9596    0.9453 C   0  0  0  0  0  0  0  0  0  0  0  0
    3.1673   -2.2282    1.3043 N   0  0  0  0  0  0  0  0  0  0  0  0
    3.1125   -0.8978    1.0696 C   0  0  0  0  0  0  0  0  0  0  0  0
    1.9662   -0.4112    0.4843 C   0  0  0  0  0  0  0  0  0  0  0  0
    5.8692   -0.8246    0.7510 H   0  0  0  0  0  0  0  0  0  0  0  0
    6.0512    0.4460    1.9750 H   0  0  0  0  0  0  0  0  0  0  0  0
    5.4126   -1.1284    2.4500 H   0  0  0  0  0  0  0  0  0  0  0  0
    1.5910    3.4112    0.0148 H   0  0  0  0  0  0  0  0  0  0  0  0
    3.1996    3.7691    0.3937 H   0  0  0  0  0  0  0  0  0  0  0  0
   -0.1431    1.7128   -0.8598 H   0  0  0  0  0  0  0  0  0  0  0  0
   -1.2410   -1.8452   -1.2413 H   0  0  0  0  0  0  0  0  0  0  0  0
   -3.8252    0.1550   -2.4542 H   0  0  0  0  0  0  0  0  0  0  0  0
   -2.7200    2.0454   -0.2857 H   0  0  0  0  0  0  0  0  0  0  0  0
   -3.0187    2.4526   -1.9763 H   0  0  0  0  0  0  0  0  0  0  0  0
   -4.7102    3.0590   -0.5066 H   0  0  0  0  0  0  0  0  0  0  0  0
   -4.4868   -0.2421    0.2075 H   0  0  0  0  0  0  0  0  0  0  0  0
   -4.9767   -1.7393   -1.3388 H   0  0  0  0  0  0  0  0  0  0  0  0
   -2.1938    0.0193    1.0168 H   0  0  0  0  0  0  0  0  0  0  0  0
   -2.9078   -2.6718    0.5546 H   0  0  0  0  0  0  0  0  0  0  0  0
    2.1430   -4.0256    1.1493 H   0  0  0  0  0  0  0  0  0  0  0  0
  1  2  1  0
  2  3  1  0
  3  4  2  0
  4  5  1  0
  4  6  1  0
  6  7  2  0
  7  8  1  0
  8  9  1  0
  9 10  1  0
 10 11  1  0
 11 12  1  0
 12 13  1  0
 11 14  1  0
 14 15  1  0
 14 16  1  0
 16 17  1  0
  8 18  1  0
 18 19  1  0
 19 20  2  0
 20 21  1  0
 21 22  2  0
 22 23  1  0
 22  2  1  0
 23  6  1  0
 16  9  1  0
 23 18  2  0
  1 24  1  0
  1 25  1  0
  1 26  1  0
  5 27  1  0
  5 28  1  0
  7 29  1  0
  9 30  1  6
 11 31  1  6
 12 32  1  0
 12 33  1  0
 13 34  1  0
 14 35  1  1
 15 36  1  0
 16 37  1  1
 17 38  1  0
 20 39  1  0
M  END
$$$$
