
     RDKit          3D

 42 44  0  0  0  0  0  0  0  0999 V2000
   -2.6446    2.6416    0.8889 C   0  0  0  0  0  0  0  0  0  0  0  0
   -2.2393    1.2382    0.5802 C   0  0  0  0  0  0  0  0  0  0  0  0
   -3.0437    0.1608    0.4545 C   0  0  0  0  0  0  0  0  0  0  0  0
   -4.5239    0.0522    0.6185 C   0  0  0  0  0  0  0  0  0  0  0  0
   -5.2358    0.0105   -0.7171 C   0  0  0  0  0  0  0  0  0  0  0  0
   -4.8426    0.4204   -1.7960 O   0  0  0  0  0  0  0  0  0  0  0  0
   -6.4729   -0.5212   -0.6096 O   0  0  0  0  0  0  0  0  0  0  0  0
   -2.1937   -0.9978    0.1318 C   0  0  0  0  0  0  0  0  0  0  0  0
   -2.5593   -2.3188   -0.0890 C   0  0  0  0  0  0  0  0  0  0  0  0
   -1.5539   -3.2363   -0.3769 C   0  0  0  0  0  0  0  0  0  0  0  0
   -1.8799   -4.5178   -0.5929 F   0  0  0  0  0  0  0  0  0  0  0  0
   -0.2117   -2.8547   -0.4443 C   0  0  0  0  0  0  0  0  0  0  0  0
    0.1525   -1.5237   -0.2231 C   0  0  0  0  0  0  0  0  0  0  0  0
   -0.8441   -0.6000    0.0619 C   0  0  0  0  0  0  0  0  0  0  0  0
   -0.8410    0.8460    0.3442 C   0  0  0  0  0  0  0  0  0  0  0  0
    0.1980    1.6991    0.3888 C   0  0  0  0  0  0  0  0  0  0  0  0
    1.6061    1.3851    0.1499 C   0  0  0  0  0  0  0  0  0  0  0  0
    2.4371    1.0226    1.2138 C   0  0  0  0  0  0  0  0  0  0  0  0
    3.7827    0.7251    0.9827 C   0  0  0  0  0  0  0  0  0  0  0  0
    4.3071    0.7856   -0.3127 C   0  0  0  0  0  0  0  0  0  0  0  0
    6.0465    0.4066   -0.6286 S   0  0  0  0  0  4  0  0  0  0  0  0
    5.7897   -1.2283   -1.3650 C   0  0  0  0  0  0  0  0  0  0  0  0
    6.6748    0.1929    0.7177 O   0  0  0  0  0  0  0  0  0  0  0  0
    3.4768    1.1614   -1.3749 C   0  0  0  0  0  0  0  0  0  0  0  0
    2.1308    1.4582   -1.1446 C   0  0  0  0  0  0  0  0  0  0  0  0
   -2.3267    3.3196    0.0898 H   0  0  0  0  0  0  0  0  0  0  0  0
   -3.7280    2.7510    0.9879 H   0  0  0  0  0  0  0  0  0  0  0  0
   -2.1943    2.9741    1.8300 H   0  0  0  0  0  0  0  0  0  0  0  0
   -4.7675   -0.8542    1.1846 H   0  0  0  0  0  0  0  0  0  0  0  0
   -4.9289    0.8984    1.1822 H   0  0  0  0  0  0  0  0  0  0  0  0
   -6.8279   -0.4701   -1.5225 H   0  0  0  0  0  0  0  0  0  0  0  0
   -3.5887   -2.6516   -0.0450 H   0  0  0  0  0  0  0  0  0  0  0  0
    0.5433   -3.6019   -0.6690 H   0  0  0  0  0  0  0  0  0  0  0  0
    1.1970   -1.2439   -0.2763 H   0  0  0  0  0  0  0  0  0  0  0  0
    0.0350    2.7502    0.6152 H   0  0  0  0  0  0  0  0  0  0  0  0
    2.0443    0.9674    2.2267 H   0  0  0  0  0  0  0  0  0  0  0  0
    4.4192    0.4477    1.8209 H   0  0  0  0  0  0  0  0  0  0  0  0
    6.7670   -1.6813   -1.5486 H   0  0  0  0  0  0  0  0  0  0  0  0
    5.2587   -1.1270   -2.3144 H   0  0  0  0  0  0  0  0  0  0  0  0
    5.2210   -1.8631   -0.6808 H   0  0  0  0  0  0  0  0  0  0  0  0
    3.8670    1.2319   -2.3872 H   0  0  0  0  0  0  0  0  0  0  0  0
    1.4936    1.7454   -1.9786 H   0  0  0  0  0  0  0  0  0  0  0  0
  1  2  1  0
  2  3  2  0
  3  4  1  0
  4  5  1  0
  5  6  2  0
  5  7  1  0
  3  8  1  0
  8  9  2  0
  9 10  1  0
 10 11  1  0
 10 12  2  0
 12 13  1  0
 13 14  2  0
 14 15  1  0
 15 16  2  0
 16 17  1  0
 17 18  2  0
 18 19  1  0
 19 20  2  0
 20 21  1  0
 21 22  1  0
 21 23  2  0
 20 24  1  0
 24 25  2  0
 15  2  1  0
 25 17  1  0
 14  8  1  0
  1 26  1  0
  1 27  1  0
  1 28  1  0
  4 29  1  0
  4 30  1  0
  7 31  1  0
  9 32  1  0
 12 33  1  0
 13 34  1  0
 16 35  1  0
 18 36  1  0
 19 37  1  0
 22 38  1  0
 22 39  1  0
 22 40  1  0
 24 41  1  0
 25 42  1  0
M  END
$$$$
