
     RDKit          3D

 68 70  0  0  0  0  0  0  0  0999 V2000
   -4.9299    3.4130    0.9532 C   0  0  0  0  0  0  0  0  0  0  0  0
   -3.8598    2.9460    1.8196 N   0  0  0  0  0  0  0  0  0  0  0  0
   -3.8034    3.5747    3.1272 C   0  0  0  0  0  0  0  0  0  0  0  0
   -3.3664    1.6541    1.7248 C   0  0  0  0  0  0  0  0  0  0  0  0
   -3.1469    0.9684    2.7242 O   0  0  0  0  0  0  0  0  0  0  0  0
   -3.0935    1.1816    0.4589 N   0  0  0  0  0  0  0  0  0  0  0  0
   -2.7254    1.9997   -0.6915 C   0  0  0  0  0  0  0  0  0  0  0  0
   -1.7195    1.1538   -1.4668 C   0  0  0  0  0  0  0  0  0  0  0  0
   -2.2004   -0.2822   -1.1884 C   0  0  0  0  0  0  0  0  0  0  0  0
   -1.3378   -1.4000   -1.6327 N   0  0  0  0  0  0  0  0  0  0  0  0
    0.1132   -1.1562   -1.5479 C   0  0  0  0  0  0  0  0  0  0  0  0
    0.7442   -1.0971   -0.1396 C   0  0  0  0  0  0  0  0  0  0  0  0
    2.2112   -1.0575   -0.1681 N   0  0  0  0  0  0  0  0  0  0  0  0
    2.8856   -2.3432   -0.3036 C   0  0  0  0  0  0  0  0  0  0  0  0
    2.7963    0.1624   -0.4869 C   0  0  0  0  0  0  0  0  0  0  0  0
    2.1375    1.1695   -0.7330 O   0  0  0  0  0  0  0  0  0  0  0  0
    4.1649    0.1545   -0.5272 N   0  0  0  0  0  0  0  0  0  0  0  0
    4.9039    1.3615   -0.8310 C   0  0  0  0  0  0  0  0  0  0  0  0
    5.3672    2.0541    0.4274 C   0  0  0  0  0  0  0  0  0  0  0  0
    4.4742    2.8435    1.1706 C   0  0  0  0  0  0  0  0  0  0  0  0
    4.8935    3.4725    2.3436 C   0  0  0  0  0  0  0  0  0  0  0  0
    6.2038    3.3115    2.7754 C   0  0  0  0  0  0  0  0  0  0  0  0
    6.6082    3.9164    3.9000 F   0  0  0  0  0  0  0  0  0  0  0  0
    7.1022    2.5296    2.0589 C   0  0  0  0  0  0  0  0  0  0  0  0
    6.6846    1.8968    0.8867 C   0  0  0  0  0  0  0  0  0  0  0  0
   -1.7948   -2.7337   -1.1601 C   0  0  0  0  0  0  0  0  0  0  0  0
   -3.2288   -3.0254   -1.6676 C   0  0  0  0  0  0  0  0  0  0  0  0
   -3.5603   -4.5132   -1.7038 C   0  0  0  0  0  0  0  0  0  0  0  0
   -2.8200   -5.2047   -0.7089 O   0  0  0  0  0  0  0  0  0  0  0  0
   -1.4274   -5.2359   -1.0099 C   0  0  0  0  0  0  0  0  0  0  0  0
   -0.9004   -3.9159   -1.5774 C   0  0  0  0  0  0  0  0  0  0  0  0
   -2.5905   -0.1761    0.3000 C   0  0  0  0  0  0  0  0  0  0  0  0
   -4.6453    4.3827    0.5369 H   0  0  0  0  0  0  0  0  0  0  0  0
   -5.1584    2.7084    0.1524 H   0  0  0  0  0  0  0  0  0  0  0  0
   -5.8425    3.5294    1.5472 H   0  0  0  0  0  0  0  0  0  0  0  0
   -2.8763    3.3031    3.6417 H   0  0  0  0  0  0  0  0  0  0  0  0
   -3.8377    4.6617    3.0085 H   0  0  0  0  0  0  0  0  0  0  0  0
   -4.6553    3.2366    3.7257 H   0  0  0  0  0  0  0  0  0  0  0  0
   -2.3098    2.9645   -0.3876 H   0  0  0  0  0  0  0  0  0  0  0  0
   -3.6210    2.1591   -1.2996 H   0  0  0  0  0  0  0  0  0  0  0  0
   -0.7248    1.3404   -1.0499 H   0  0  0  0  0  0  0  0  0  0  0  0
   -1.7020    1.4015   -2.5322 H   0  0  0  0  0  0  0  0  0  0  0  0
   -3.1380   -0.3802   -1.7554 H   0  0  0  0  0  0  0  0  0  0  0  0
    0.3610   -0.2423   -2.1004 H   0  0  0  0  0  0  0  0  0  0  0  0
    0.6301   -1.9181   -2.1428 H   0  0  0  0  0  0  0  0  0  0  0  0
    0.3997   -0.1995    0.3838 H   0  0  0  0  0  0  0  0  0  0  0  0
    0.4428   -1.9558    0.4697 H   0  0  0  0  0  0  0  0  0  0  0  0
    2.7672   -2.6941   -1.3332 H   0  0  0  0  0  0  0  0  0  0  0  0
    3.9521   -2.2831   -0.0810 H   0  0  0  0  0  0  0  0  0  0  0  0
    2.4339   -3.0641    0.3846 H   0  0  0  0  0  0  0  0  0  0  0  0
    4.5979   -0.4398    0.1607 H   0  0  0  0  0  0  0  0  0  0  0  0
    4.3084    2.0456   -1.4461 H   0  0  0  0  0  0  0  0  0  0  0  0
    5.7685    1.0591   -1.4326 H   0  0  0  0  0  0  0  0  0  0  0  0
    3.4446    2.9665    0.8363 H   0  0  0  0  0  0  0  0  0  0  0  0
    4.2060    4.0830    2.9199 H   0  0  0  0  0  0  0  0  0  0  0  0
    8.1202    2.4194    2.4174 H   0  0  0  0  0  0  0  0  0  0  0  0
    7.3937    1.2853    0.3332 H   0  0  0  0  0  0  0  0  0  0  0  0
   -1.8115   -2.7286   -0.0616 H   0  0  0  0  0  0  0  0  0  0  0  0
   -3.9484   -2.5250   -1.0088 H   0  0  0  0  0  0  0  0  0  0  0  0
   -3.3939   -2.6154   -2.6719 H   0  0  0  0  0  0  0  0  0  0  0  0
   -3.3433   -4.9449   -2.6892 H   0  0  0  0  0  0  0  0  0  0  0  0
   -4.6281   -4.6658   -1.5140 H   0  0  0  0  0  0  0  0  0  0  0  0
   -1.2269   -6.0595   -1.7044 H   0  0  0  0  0  0  0  0  0  0  0  0
   -0.9075   -5.4714   -0.0751 H   0  0  0  0  0  0  0  0  0  0  0  0
    0.1366   -3.8048   -1.2452 H   0  0  0  0  0  0  0  0  0  0  0  0
   -0.8714   -3.9802   -2.6734 H   0  0  0  0  0  0  0  0  0  0  0  0
   -1.7348   -0.3115    0.9671 H   0  0  0  0  0  0  0  0  0  0  0  0
   -3.3709   -0.8848    0.5934 H   0  0  0  0  0  0  0  0  0  0  0  0
  1  2  1  0
  2  3  1  0
  2  4  1  0
  4  5  2  0
  4  6  1  0
  6  7  1  0
  7  8  1  0
  8  9  1  0
  9 10  1  0
 10 11  1  0
 11 12  1  0
 12 13  1  0
 13 14  1  0
 13 15  1  0
 15 16  2  0
 15 17  1  0
 17 18  1  0
 18 19  1  0
 19 20  2  0
 20 21  1  0
 21 22  2  0
 22 23  1  0
 22 24  1  0
 24 25  2  0
 10 26  1  0
 26 27  1  0
 27 28  1  0
 28 29  1  0
 29 30  1  0
 30 31  1  0
  9 32  1  0
 32  6  1  0
 25 19  1  0
 31 26  1  0
  1 33  1  0
  1 34  1  0
  1 35  1  0
  3 36  1  0
  3 37  1  0
  3 38  1  0
  7 39  1  0
  7 40  1  0
  8 41  1  0
  8 42  1  0
  9 43  1  0
 11 44  1  0
 11 45  1  0
 12 46  1  0
 12 47  1  0
 14 48  1  0
 14 49  1  0
 14 50  1  0
 17 51  1  0
 18 52  1  0
 18 53  1  0
 20 54  1  0
 21 55  1  0
 24 56  1  0
 25 57  1  0
 26 58  1  0
 27 59  1  0
 27 60  1  0
 28 61  1  0
 28 62  1  0
 30 63  1  0
 30 64  1  0
 31 65  1  0
 31 66  1  0
 32 67  1  0
 32 68  1  0
M  END
$$$$
