
     RDKit          3D

 57 60  0  0  0  0  0  0  0  0999 V2000
    9.0144   -0.3357    0.6034 C   0  0  0  0  0  0  0  0  0  0  0  0
    8.1331   -1.4509    0.6350 O   0  0  0  0  0  0  0  0  0  0  0  0
    6.8115   -1.1994    0.3882 C   0  0  0  0  0  0  0  0  0  0  0  0
    5.9760   -2.3136    0.4889 C   0  0  0  0  0  0  0  0  0  0  0  0
    4.6024   -2.2000    0.2606 C   0  0  0  0  0  0  0  0  0  0  0  0
    4.0436   -0.9638   -0.0828 C   0  0  0  0  0  0  0  0  0  0  0  0
    2.5600   -0.8322   -0.3323 C   0  0  0  0  0  0  0  0  0  0  0  0
    1.7525   -0.3736    0.8768 C   0  0  0  0  0  0  0  0  0  0  0  0
    2.2199   -0.3018    2.0122 O   0  0  0  0  0  0  0  0  0  0  0  0
    0.4331   -0.0466    0.6280 N   0  0  0  0  0  0  0  0  0  0  0  0
   -0.4532    0.4069    1.6986 C   0  0  0  0  0  0  0  0  0  0  0  0
   -1.6707    0.9984    0.9617 C   0  0  1  0  0  0  0  0  0  0  0  0
   -1.3876    2.4782    0.6787 C   0  0  0  0  0  0  0  0  0  0  0  0
   -2.3187    3.1190   -0.3325 C   0  0  0  0  0  0  0  0  0  0  0  0
   -2.0284    2.6262   -1.7383 C   0  0  0  0  0  0  0  0  0  0  0  0
   -2.8357    1.4045   -2.0909 C   0  0  0  0  0  0  0  0  0  0  0  0
   -3.5872    1.4534   -3.0676 O   0  0  0  0  0  0  0  0  0  0  0  0
   -2.7148    0.2713   -1.3076 N   0  0  0  0  0  0  0  0  0  0  0  0
   -3.6235   -0.8431   -1.6117 C   0  0  0  0  0  0  0  0  0  0  0  0
   -4.7251   -0.9640   -0.5825 C   0  0  0  0  0  0  0  0  0  0  0  0
   -5.7236    0.0179   -0.4992 C   0  0  0  0  0  0  0  0  0  0  0  0
   -6.7358   -0.0787    0.4562 C   0  0  0  0  0  0  0  0  0  0  0  0
   -6.7616   -1.1574    1.3376 C   0  0  0  0  0  0  0  0  0  0  0  0
   -5.7775   -2.1414    1.2628 C   0  0  0  0  0  0  0  0  0  0  0  0
   -4.7643   -2.0471    0.3071 C   0  0  0  0  0  0  0  0  0  0  0  0
   -1.7476    0.0339   -0.2347 C   0  0  1  0  0  0  0  0  0  0  0  0
   -0.2816   -0.1554   -0.6416 C   0  0  0  0  0  0  0  0  0  0  0  0
    4.8829    0.1544   -0.1744 C   0  0  0  0  0  0  0  0  0  0  0  0
    6.2584    0.0371    0.0570 C   0  0  0  0  0  0  0  0  0  0  0  0
    8.7401    0.4070    1.3598 H   0  0  0  0  0  0  0  0  0  0  0  0
    9.0497    0.1107   -0.3958 H   0  0  0  0  0  0  0  0  0  0  0  0
   10.0194   -0.6970    0.8416 H   0  0  0  0  0  0  0  0  0  0  0  0
    6.3983   -3.2791    0.7558 H   0  0  0  0  0  0  0  0  0  0  0  0
    3.9760   -3.0830    0.3605 H   0  0  0  0  0  0  0  0  0  0  0  0
    2.1609   -1.7986   -0.6637 H   0  0  0  0  0  0  0  0  0  0  0  0
    2.4105   -0.1231   -1.1555 H   0  0  0  0  0  0  0  0  0  0  0  0
   -0.7372   -0.4750    2.2849 H   0  0  0  0  0  0  0  0  0  0  0  0
    0.0576    1.1143    2.3598 H   0  0  0  0  0  0  0  0  0  0  0  0
   -2.5756    0.9264    1.5767 H   0  0  0  0  0  0  0  0  0  0  0  0
   -1.4768    3.0256    1.6264 H   0  0  0  0  0  0  0  0  0  0  0  0
   -0.3496    2.6265    0.3531 H   0  0  0  0  0  0  0  0  0  0  0  0
   -2.1494    4.2026   -0.3048 H   0  0  0  0  0  0  0  0  0  0  0  0
   -3.3657    2.9525   -0.0531 H   0  0  0  0  0  0  0  0  0  0  0  0
   -0.9663    2.4469   -1.9233 H   0  0  0  0  0  0  0  0  0  0  0  0
   -2.3290    3.4142   -2.4417 H   0  0  0  0  0  0  0  0  0  0  0  0
   -4.0853   -0.7338   -2.5997 H   0  0  0  0  0  0  0  0  0  0  0  0
   -3.0275   -1.7630   -1.6642 H   0  0  0  0  0  0  0  0  0  0  0  0
   -5.7165    0.8630   -1.1858 H   0  0  0  0  0  0  0  0  0  0  0  0
   -7.5054    0.6867    0.5093 H   0  0  0  0  0  0  0  0  0  0  0  0
   -7.5515   -1.2329    2.0803 H   0  0  0  0  0  0  0  0  0  0  0  0
   -5.8015   -2.9844    1.9485 H   0  0  0  0  0  0  0  0  0  0  0  0
   -4.0069   -2.8262    0.2628 H   0  0  0  0  0  0  0  0  0  0  0  0
   -2.0420   -0.9288    0.2115 H   0  0  0  0  0  0  0  0  0  0  0  0
   -0.1039   -1.1318   -1.1021 H   0  0  0  0  0  0  0  0  0  0  0  0
    0.0893    0.6213   -1.3142 H   0  0  0  0  0  0  0  0  0  0  0  0
    4.4713    1.1308   -0.4206 H   0  0  0  0  0  0  0  0  0  0  0  0
    6.8660    0.9316   -0.0258 H   0  0  0  0  0  0  0  0  0  0  0  0
  1  2  1  0
  2  3  1  0
  3  4  2  0
  4  5  1  0
  5  6  2  0
  6  7  1  0
  7  8  1  0
  8  9  2  0
  8 10  1  0
 10 11  1  0
 11 12  1  0
 12 13  1  0
 13 14  1  0
 14 15  1  0
 15 16  1  0
 16 17  2  0
 16 18  1  0
 18 19  1  0
 19 20  1  0
 20 21  2  0
 21 22  1  0
 22 23  2  0
 23 24  1  0
 24 25  2  0
 18 26  1  0
 26 27  1  0
  6 28  1  0
 28 29  2  0
 29  3  1  0
 27 10  1  0
 26 12  1  0
 25 20  1  0
  1 30  1  0
  1 31  1  0
  1 32  1  0
  4 33  1  0
  5 34  1  0
  7 35  1  0
  7 36  1  0
 11 37  1  0
 11 38  1  0
 12 39  1  1
 13 40  1  0
 13 41  1  0
 14 42  1  0
 14 43  1  0
 15 44  1  0
 15 45  1  0
 19 46  1  0
 19 47  1  0
 21 48  1  0
 22 49  1  0
 23 50  1  0
 24 51  1  0
 25 52  1  0
 26 53  1  1
 27 54  1  0
 27 55  1  0
 28 56  1  0
 29 57  1  0
M  END
$$$$
