
     RDKit          3D

 56 59  0  0  0  0  0  0  0  0999 V2000
   -3.5568   -2.9717   -3.0266 C   0  0  0  0  0  0  0  0  0  0  0  0
   -3.5517   -2.0870   -1.8161 C   0  0  0  0  0  0  0  0  0  0  0  0
   -4.7150   -1.8976   -1.0682 C   0  0  0  0  0  0  0  0  0  0  0  0
   -4.7211   -1.0257    0.0273 C   0  0  0  0  0  0  0  0  0  0  0  0
   -3.5672   -0.3172    0.4224 C   0  0  0  0  0  0  0  0  0  0  0  0
   -3.6271    0.5935    1.5756 C   0  0  0  0  0  0  0  0  0  0  0  0
   -4.7670    1.2944    1.7531 N   0  0  0  0  0  0  0  0  0  0  0  0
   -4.8056    2.1157    2.8184 C   0  0  0  0  0  0  0  0  0  0  0  0
   -3.7748    2.2435    3.7172 C   0  0  0  0  0  0  0  0  0  0  0  0
   -2.6740    1.4608    3.4682 C   0  0  0  0  0  0  0  0  0  0  0  0
   -2.5810    0.6196    2.4227 N   0  0  0  0  0  0  0  0  0  0  0  0
   -2.4007   -0.5284   -0.3364 C   0  0  0  0  0  0  0  0  0  0  0  0
   -1.1678    0.2478   -0.0820 C   0  0  0  0  0  0  0  0  0  0  0  0
   -1.2077    1.4491   -0.3421 O   0  0  0  0  0  0  0  0  0  0  0  0
   -0.0197   -0.4172    0.3584 N   0  0  0  0  0  0  0  0  0  0  0  0
    1.1919    0.3730    0.5620 C   0  0  0  0  0  0  0  0  0  0  0  0
    2.3677   -0.1863   -0.2598 C   0  0  2  0  0  0  0  0  0  0  0  0
    2.4530    0.4684   -1.6486 C   0  0  0  0  0  0  0  0  0  0  0  0
    2.6952    1.8752   -1.5596 O   0  0  0  0  0  0  0  0  0  0  0  0
    4.0215    2.2389   -1.4650 C   0  0  0  0  0  0  0  0  0  0  0  0
    4.2760    3.6045   -1.4338 C   0  0  0  0  0  0  0  0  0  0  0  0
    5.5968    4.0334   -1.3286 C   0  0  0  0  0  0  0  0  0  0  0  0
    6.6018    3.0819   -1.2573 C   0  0  0  0  0  0  0  0  0  0  0  0
    7.8826    3.4570   -1.1556 F   0  0  0  0  0  0  0  0  0  0  0  0
    6.2591    1.7411   -1.2916 C   0  0  0  0  0  0  0  0  0  0  0  0
    4.9847    1.2929   -1.3921 N   0  0  0  0  0  0  0  0  0  0  0  0
    2.3008   -1.7191   -0.3982 C   0  0  0  0  0  0  0  0  0  0  0  0
    1.5193   -2.3413    0.7536 C   0  0  0  0  0  0  0  0  0  0  0  0
    0.0599   -1.8409    0.7485 C   0  0  1  0  0  0  0  0  0  0  0  0
   -0.5763   -2.1064    2.1132 C   0  0  0  0  0  0  0  0  0  0  0  0
   -2.4020   -1.3769   -1.4597 C   0  0  0  0  0  0  0  0  0  0  0  0
   -2.5714   -3.4230   -3.1834 H   0  0  0  0  0  0  0  0  0  0  0  0
   -3.8260   -2.3908   -3.9140 H   0  0  0  0  0  0  0  0  0  0  0  0
   -4.2738   -3.7910   -2.9086 H   0  0  0  0  0  0  0  0  0  0  0  0
   -5.6343   -2.4139   -1.3379 H   0  0  0  0  0  0  0  0  0  0  0  0
   -5.6498   -0.8906    0.5816 H   0  0  0  0  0  0  0  0  0  0  0  0
   -5.7217    2.6883    2.9288 H   0  0  0  0  0  0  0  0  0  0  0  0
   -3.8260    2.9143    4.5626 H   0  0  0  0  0  0  0  0  0  0  0  0
   -1.8055    1.4865    4.1194 H   0  0  0  0  0  0  0  0  0  0  0  0
    1.4261    0.3149    1.6329 H   0  0  0  0  0  0  0  0  0  0  0  0
    1.0273    1.4338    0.3489 H   0  0  0  0  0  0  0  0  0  0  0  0
    3.2771    0.0715    0.2978 H   0  0  0  0  0  0  0  0  0  0  0  0
    1.4896    0.3546   -2.1611 H   0  0  0  0  0  0  0  0  0  0  0  0
    3.1884   -0.0287   -2.2944 H   0  0  0  0  0  0  0  0  0  0  0  0
    3.4586    4.3152   -1.4901 H   0  0  0  0  0  0  0  0  0  0  0  0
    5.8412    5.0895   -1.3021 H   0  0  0  0  0  0  0  0  0  0  0  0
    7.0250    0.9748   -1.2368 H   0  0  0  0  0  0  0  0  0  0  0  0
    3.3176   -2.1278   -0.4280 H   0  0  0  0  0  0  0  0  0  0  0  0
    1.8226   -2.0024   -1.3448 H   0  0  0  0  0  0  0  0  0  0  0  0
    2.0141   -2.0886    1.7004 H   0  0  0  0  0  0  0  0  0  0  0  0
    1.5345   -3.4348    0.6746 H   0  0  0  0  0  0  0  0  0  0  0  0
   -0.4841   -2.4264    0.0016 H   0  0  0  0  0  0  0  0  0  0  0  0
   -0.1413   -1.4636    2.8861 H   0  0  0  0  0  0  0  0  0  0  0  0
   -0.4301   -3.1495    2.4136 H   0  0  0  0  0  0  0  0  0  0  0  0
   -1.6530   -1.9238    2.0961 H   0  0  0  0  0  0  0  0  0  0  0  0
   -1.4998   -1.4637   -2.0624 H   0  0  0  0  0  0  0  0  0  0  0  0
  1  2  1  0
  2  3  2  0
  3  4  1  0
  4  5  2  0
  5  6  1  0
  6  7  2  0
  7  8  1  0
  8  9  2  0
  9 10  1  0
 10 11  2  0
  5 12  1  0
 12 13  1  0
 13 14  2  0
 13 15  1  0
 15 16  1  0
 16 17  1  0
 17 18  1  0
 18 19  1  0
 19 20  1  0
 20 21  2  0
 21 22  1  0
 22 23  2  0
 23 24  1  0
 23 25  1  0
 25 26  2  0
 17 27  1  0
 27 28  1  0
 28 29  1  0
 29 30  1  0
 12 31  2  0
 31  2  1  0
 11  6  1  0
 29 15  1  0
 26 20  1  0
  1 32  1  0
  1 33  1  0
  1 34  1  0
  3 35  1  0
  4 36  1  0
  8 37  1  0
  9 38  1  0
 10 39  1  0
 16 40  1  0
 16 41  1  0
 17 42  1  1
 18 43  1  0
 18 44  1  0
 21 45  1  0
 22 46  1  0
 25 47  1  0
 27 48  1  0
 27 49  1  0
 28 50  1  0
 28 51  1  0
 29 52  1  6
 30 53  1  0
 30 54  1  0
 30 55  1  0
 31 56  1  0
M  END
$$$$
