
     RDKit          3D

 50 53  0  0  0  0  0  0  0  0999 V2000
   -0.3622   -0.7471    1.2196 O   0  0  0  0  0  0  0  0  0  0  0  0
   -0.8578   -0.4329    0.1455 C   0  0  0  0  0  0  0  0  0  0  0  0
   -2.3614   -0.3399   -0.0469 C   0  0  0  0  0  0  0  0  0  0  0  0
   -3.1225   -0.3726    1.2826 C   0  0  2  0  0  0  0  0  0  0  0  0
   -4.4273   -1.0089    1.1673 N   0  0  0  0  0  0  0  0  0  0  0  0
   -5.4407   -0.6893    0.3173 C   0  0  0  0  0  0  0  0  0  0  0  0
   -6.2893   -1.5447    0.0755 O   0  0  0  0  0  0  0  0  0  0  0  0
   -5.5340    0.6547   -0.3032 C   0  0  0  0  0  0  0  0  0  0  0  0
   -6.3726    0.7343   -1.4354 C   0  0  0  0  0  0  0  0  0  0  0  0
   -6.6621    1.9557   -2.0416 C   0  0  0  0  0  0  0  0  0  0  0  0
   -6.1348    3.1231   -1.5104 C   0  0  0  0  0  0  0  0  0  0  0  0
   -5.3070    3.0605   -0.3886 C   0  0  0  0  0  0  0  0  0  0  0  0
   -4.9739    1.8315    0.2134 C   0  0  0  0  0  0  0  0  0  0  0  0
   -4.1004    1.9377    1.3062 N   0  0  0  0  0  0  0  0  0  0  0  0
   -3.2747    1.0202    1.8838 C   0  0  0  0  0  0  0  0  0  0  0  0
   -2.5606    1.4060    2.8129 O   0  0  0  0  0  0  0  0  0  0  0  0
   -0.1891   -0.1663   -1.0274 N   0  0  0  0  0  0  0  0  0  0  0  0
    1.1653   -0.1993   -1.1851 C   0  0  0  0  0  0  0  0  0  0  0  0
    1.7182    0.0770   -2.3697 N   0  0  0  0  0  0  0  0  0  0  0  0
    3.0256   -0.0680   -2.0986 N   0  0  0  0  0  0  0  0  0  0  0  0
    3.2260   -0.4189   -0.7953 C   0  0  0  0  0  0  0  0  0  0  0  0
    4.5767   -0.6541   -0.2032 C   0  0  0  0  0  0  0  0  0  0  0  0
    4.8002   -2.1540    0.0673 C   0  0  0  0  0  0  0  0  0  0  0  0
    5.8000   -2.4309    1.1937 C   0  0  0  0  0  0  0  0  0  0  0  0
    6.8367   -1.3240    1.3208 C   0  0  0  0  0  0  0  0  0  0  0  0
    6.1901    0.0265    1.6325 C   0  0  0  0  0  0  0  0  0  0  0  0
    4.7723    0.1711    1.0730 C   0  0  0  0  0  0  0  0  0  0  0  0
    2.0551   -0.5070   -0.2038 N   0  0  0  0  0  0  0  0  0  0  0  0
   -2.5798    0.5683   -0.6193 H   0  0  0  0  0  0  0  0  0  0  0  0
   -2.6467   -1.2010   -0.6654 H   0  0  0  0  0  0  0  0  0  0  0  0
   -2.5992   -0.9811    2.0292 H   0  0  0  0  0  0  0  0  0  0  0  0
   -4.4888   -1.9710    1.4828 H   0  0  0  0  0  0  0  0  0  0  0  0
   -6.8308   -0.1684   -1.8395 H   0  0  0  0  0  0  0  0  0  0  0  0
   -7.3163    1.9922   -2.9094 H   0  0  0  0  0  0  0  0  0  0  0  0
   -6.3677    4.0836   -1.9639 H   0  0  0  0  0  0  0  0  0  0  0  0
   -4.9037    3.9944   -0.0002 H   0  0  0  0  0  0  0  0  0  0  0  0
   -3.9563    2.8581    1.7079 H   0  0  0  0  0  0  0  0  0  0  0  0
   -0.6793    0.0738   -1.8739 H   0  0  0  0  0  0  0  0  0  0  0  0
    3.7086    0.0837   -2.8318 H   0  0  0  0  0  0  0  0  0  0  0  0
    5.3339   -0.3242   -0.9289 H   0  0  0  0  0  0  0  0  0  0  0  0
    5.1573   -2.6243   -0.8586 H   0  0  0  0  0  0  0  0  0  0  0  0
    3.8587   -2.6633    0.3122 H   0  0  0  0  0  0  0  0  0  0  0  0
    6.2924   -3.3942    1.0190 H   0  0  0  0  0  0  0  0  0  0  0  0
    5.2582   -2.5257    2.1432 H   0  0  0  0  0  0  0  0  0  0  0  0
    7.4005   -1.2497    0.3822 H   0  0  0  0  0  0  0  0  0  0  0  0
    7.5644   -1.5721    2.1017 H   0  0  0  0  0  0  0  0  0  0  0  0
    6.8299    0.8226    1.2332 H   0  0  0  0  0  0  0  0  0  0  0  0
    6.1553    0.1792    2.7177 H   0  0  0  0  0  0  0  0  0  0  0  0
    4.0520   -0.1536    1.8365 H   0  0  0  0  0  0  0  0  0  0  0  0
    4.5613    1.2323    0.8911 H   0  0  0  0  0  0  0  0  0  0  0  0
  1  2  2  0
  2  3  1  0
  3  4  1  0
  4  5  1  0
  5  6  1  0
  6  7  2  0
  6  8  1  0
  8  9  2  0
  9 10  1  0
 10 11  2  0
 11 12  1  0
 12 13  2  0
 13 14  1  0
 14 15  1  0
 15 16  2  0
  2 17  1  0
 17 18  1  0
 18 19  2  0
 19 20  1  0
 20 21  1  0
 21 22  1  0
 22 23  1  0
 23 24  1  0
 24 25  1  0
 25 26  1  0
 26 27  1  0
 21 28  2  0
 15  4  1  0
 28 18  1  0
 13  8  1  0
 27 22  1  0
  3 29  1  0
  3 30  1  0
  4 31  1  1
  5 32  1  0
  9 33  1  0
 10 34  1  0
 11 35  1  0
 12 36  1  0
 14 37  1  0
 17 38  1  0
 20 39  1  0
 22 40  1  0
 23 41  1  0
 23 42  1  0
 24 43  1  0
 24 44  1  0
 25 45  1  0
 25 46  1  0
 26 47  1  0
 26 48  1  0
 27 49  1  0
 27 50  1  0
M  END
$$$$
