
     RDKit          3D

136142  0  0  0  0  0  0  0  0999 V2000
   -2.3973   -5.4246   -0.4077 C   0  0  0  0  0  0  0  0  0  0  0  0
   -3.7527   -5.5344   -1.0935 C   0  0  0  0  0  0  0  0  0  0  0  0
   -4.9814   -5.3831   -0.1638 C   0  0  0  0  0  0  0  0  0  0  0  0
   -5.0648   -6.5521    0.8234 C   0  0  0  0  0  0  0  0  0  0  0  0
   -5.0173   -4.0131    0.5590 C   0  0  0  0  0  0  0  0  0  0  0  0
   -4.9253   -2.9818   -0.4230 O   0  0  0  0  0  0  0  0  0  0  0  0
   -4.5835   -1.6812    0.1001 C   0  0  0  0  0  0  0  0  0  0  0  0
   -5.0153   -1.5410    1.5798 C   0  0  0  0  0  0  0  0  0  0  0  0
   -6.3217   -2.2664    1.8684 C   0  0  0  0  0  0  0  0  0  0  0  0
   -6.2808   -3.7397    1.4134 C   0  0  0  0  0  0  0  0  0  0  0  0
   -7.6013   -4.0614    0.6993 C   0  0  0  0  0  0  0  0  0  0  0  0
   -5.3022   -0.7152   -0.8559 C   0  0  0  0  0  0  0  0  0  0  0  0
   -4.7909    0.7205   -0.8212 C   0  0  0  0  0  0  0  0  0  0  0  0
   -3.2659    0.7550   -0.8068 C   0  0  0  0  0  0  0  0  0  0  0  0
   -2.6884   -0.1975    0.2399 C   0  0  0  0  0  0  0  0  0  0  0  0
   -1.1349   -0.2059    0.2347 C   0  0  0  0  0  0  0  0  0  0  0  0
   -0.5630    0.7101    1.2919 C   0  0  0  0  0  0  0  0  0  0  0  0
    0.4780    1.5695    1.2293 C   0  0  0  0  0  0  0  0  0  0  0  0
    0.8465    2.3501    2.4703 C   0  0  0  0  0  0  0  0  0  0  0  0
    1.4171    1.8285    0.0522 C   0  0  0  0  0  0  0  0  0  0  0  0
    1.8933    0.5550   -0.4188 O   0  0  0  0  0  0  0  0  0  0  0  0
    3.2873    0.3262   -0.2035 C   0  0  0  0  0  0  0  0  0  0  0  0
    3.9749    0.3080   -1.5621 C   0  0  0  0  0  0  0  0  0  0  0  0
    5.4860    0.1314   -1.4068 C   0  0  0  0  0  0  0  0  0  0  0  0
    6.0635    1.4441   -1.5752 O   0  0  0  0  0  0  0  0  0  0  0  0
    7.4626    1.4245   -1.8359 C   0  0  0  0  0  0  0  0  0  0  0  0
    5.8647   -0.4660   -0.0304 C   0  0  0  0  0  0  0  0  0  0  0  0
    7.1822   -1.0282   -0.1227 O   0  0  0  0  0  0  0  0  0  0  0  0
    7.8074   -1.2679    1.1367 C   0  0  0  0  0  0  0  0  0  0  0  0
    9.3209   -1.0912    0.9640 C   0  0  0  0  0  0  0  0  0  0  0  0
   10.0633   -2.0124    1.9202 C   0  0  0  0  0  0  0  0  0  0  0  0
   11.4905   -1.8666    1.8162 O   0  0  0  0  0  0  0  0  0  0  0  0
   11.9922   -0.7253    2.5015 C   0  0  0  0  0  0  0  0  0  0  0  0
    9.7171   -3.4753    1.5690 C   0  0  0  0  0  0  0  0  0  0  0  0
   10.5790   -3.9471    0.5214 O   0  0  0  0  0  0  0  0  0  0  0  0
    8.2545   -3.6045    1.1068 C   0  0  0  0  0  0  0  0  0  0  0  0
    7.6565   -4.9343    1.5478 C   0  0  0  0  0  0  0  0  0  0  0  0
    7.4594   -2.5501    1.6597 O   0  0  0  0  0  0  0  0  0  0  0  0
    4.7884   -1.4746    0.4274 C   0  0  0  0  0  0  0  0  0  0  0  0
    4.7473   -2.7507   -0.4167 C   0  0  0  0  0  0  0  0  0  0  0  0
    3.4611   -0.9248    0.4665 O   0  0  0  0  0  0  0  0  0  0  0  0
    0.8684    2.6462   -1.1700 C   0  0  0  0  0  0  0  0  0  0  0  0
    1.8590    3.7479   -1.5819 C   0  0  0  0  0  0  0  0  0  0  0  0
   -0.5259    3.2112   -1.0296 C   0  0  0  0  0  0  0  0  0  0  0  0
   -0.9143    4.1999   -0.2080 C   0  0  0  0  0  0  0  0  0  0  0  0
   -2.3026    4.5093    0.0470 C   0  0  0  0  0  0  0  0  0  0  0  0
   -3.2442    4.8016   -0.8633 C   0  0  0  0  0  0  0  0  0  0  0  0
   -3.0547    5.0038   -2.3388 C   0  0  0  0  0  0  0  0  0  0  0  0
   -4.3451    5.3919   -2.8548 O   0  0  0  0  0  0  0  0  0  0  0  0
   -5.0830    5.9195   -1.7307 C   0  0  0  0  0  0  0  0  0  0  0  0
   -6.5952    6.0184   -2.0382 C   0  0  0  0  0  0  0  0  0  0  0  0
   -7.1221    7.2206   -1.4691 O   0  0  0  0  0  0  0  0  0  0  0  0
   -7.4528    4.8792   -1.5347 C   0  0  0  0  0  0  0  0  0  0  0  0
   -8.9306    4.9924   -1.7981 C   0  0  0  0  0  0  0  0  0  0  0  0
   -6.9393    3.8068   -0.9066 C   0  0  0  0  0  0  0  0  0  0  0  0
   -5.4612    3.6420   -0.6514 C   0  0  0  0  0  0  0  0  0  0  0  0
   -5.2548    2.7319    0.5693 C   0  0  0  0  0  0  0  0  0  0  0  0
   -5.1547    3.1311    1.7242 O   0  0  0  0  0  0  0  0  0  0  0  0
   -5.3138    1.3838    0.3531 O   0  0  0  0  0  0  0  0  0  0  0  0
   -4.7117    4.9997   -0.5604 C   0  0  0  0  0  0  0  0  0  0  0  0
   -4.9082    5.6806    0.6702 O   0  0  0  0  0  0  0  0  0  0  0  0
   -3.1626   -1.5251   -0.0232 O   0  0  0  0  0  0  0  0  0  0  0  0
   -2.2912   -6.1570    0.3982 H   0  0  0  0  0  0  0  0  0  0  0  0
   -1.5982   -5.6127   -1.1332 H   0  0  0  0  0  0  0  0  0  0  0  0
   -2.2358   -4.4260    0.0055 H   0  0  0  0  0  0  0  0  0  0  0  0
   -3.8035   -4.7826   -1.8909 H   0  0  0  0  0  0  0  0  0  0  0  0
   -3.8096   -6.5086   -1.5956 H   0  0  0  0  0  0  0  0  0  0  0  0
   -5.8480   -5.4463   -0.8353 H   0  0  0  0  0  0  0  0  0  0  0  0
   -4.9628   -7.5085    0.3016 H   0  0  0  0  0  0  0  0  0  0  0  0
   -4.2806   -6.4927    1.5863 H   0  0  0  0  0  0  0  0  0  0  0  0
   -6.0284   -6.5703    1.3414 H   0  0  0  0  0  0  0  0  0  0  0  0
   -4.1347   -3.9640    1.2105 H   0  0  0  0  0  0  0  0  0  0  0  0
   -5.1020   -0.4955    1.8856 H   0  0  0  0  0  0  0  0  0  0  0  0
   -4.2323   -1.9567    2.2302 H   0  0  0  0  0  0  0  0  0  0  0  0
   -7.1413   -1.7241    1.3815 H   0  0  0  0  0  0  0  0  0  0  0  0
   -6.5312   -2.2251    2.9450 H   0  0  0  0  0  0  0  0  0  0  0  0
   -6.2303   -4.3739    2.3086 H   0  0  0  0  0  0  0  0  0  0  0  0
   -7.7012   -3.4913   -0.2302 H   0  0  0  0  0  0  0  0  0  0  0  0
   -7.6854   -5.1245    0.4577 H   0  0  0  0  0  0  0  0  0  0  0  0
   -8.4529   -3.8131    1.3422 H   0  0  0  0  0  0  0  0  0  0  0  0
   -6.3852   -0.7443   -0.6796 H   0  0  0  0  0  0  0  0  0  0  0  0
   -5.1548   -1.0828   -1.8822 H   0  0  0  0  0  0  0  0  0  0  0  0
   -5.1817    1.2086   -1.7172 H   0  0  0  0  0  0  0  0  0  0  0  0
   -2.9043    0.4682   -1.8009 H   0  0  0  0  0  0  0  0  0  0  0  0
   -2.9273    1.7660   -0.5903 H   0  0  0  0  0  0  0  0  0  0  0  0
   -3.0327    0.0994    1.2369 H   0  0  0  0  0  0  0  0  0  0  0  0
   -0.7540    0.0393   -0.7629 H   0  0  0  0  0  0  0  0  0  0  0  0
   -0.7834   -1.2209    0.4614 H   0  0  0  0  0  0  0  0  0  0  0  0
   -1.0680    0.6169    2.2540 H   0  0  0  0  0  0  0  0  0  0  0  0
    0.1167    2.2255    3.2781 H   0  0  0  0  0  0  0  0  0  0  0  0
    0.8987    3.4207    2.2486 H   0  0  0  0  0  0  0  0  0  0  0  0
    1.8228    2.0244    2.8459 H   0  0  0  0  0  0  0  0  0  0  0  0
    2.2617    2.4041    0.4519 H   0  0  0  0  0  0  0  0  0  0  0  0
    3.7236    1.0990    0.4411 H   0  0  0  0  0  0  0  0  0  0  0  0
    3.7321    1.2124   -2.1307 H   0  0  0  0  0  0  0  0  0  0  0  0
    3.5702   -0.5284   -2.1433 H   0  0  0  0  0  0  0  0  0  0  0  0
    5.8489   -0.5022   -2.2262 H   0  0  0  0  0  0  0  0  0  0  0  0
    8.0215    1.2454   -0.9130 H   0  0  0  0  0  0  0  0  0  0  0  0
    7.7181    0.6742   -2.5893 H   0  0  0  0  0  0  0  0  0  0  0  0
    7.7488    2.4055   -2.2195 H   0  0  0  0  0  0  0  0  0  0  0  0
    5.9020    0.3676    0.6850 H   0  0  0  0  0  0  0  0  0  0  0  0
    7.4674   -0.5302    1.8734 H   0  0  0  0  0  0  0  0  0  0  0  0
    9.6286   -1.2987   -0.0705 H   0  0  0  0  0  0  0  0  0  0  0  0
    9.5846   -0.0386    1.1182 H   0  0  0  0  0  0  0  0  0  0  0  0
    9.7465   -1.8128    2.9534 H   0  0  0  0  0  0  0  0  0  0  0  0
   11.6154    0.1984    2.0553 H   0  0  0  0  0  0  0  0  0  0  0  0
   13.0820   -0.7289    2.4127 H   0  0  0  0  0  0  0  0  0  0  0  0
   11.7318   -0.7673    3.5642 H   0  0  0  0  0  0  0  0  0  0  0  0
    9.9269   -4.1032    2.4446 H   0  0  0  0  0  0  0  0  0  0  0  0
   11.4353   -3.4983    0.6814 H   0  0  0  0  0  0  0  0  0  0  0  0
    8.1900   -3.5612    0.0098 H   0  0  0  0  0  0  0  0  0  0  0  0
    7.6376   -5.0126    2.6398 H   0  0  0  0  0  0  0  0  0  0  0  0
    8.2214   -5.7797    1.1428 H   0  0  0  0  0  0  0  0  0  0  0  0
    6.6168   -5.0168    1.2107 H   0  0  0  0  0  0  0  0  0  0  0  0
    5.0141   -1.7834    1.4545 H   0  0  0  0  0  0  0  0  0  0  0  0
    5.7345   -3.2055   -0.5154 H   0  0  0  0  0  0  0  0  0  0  0  0
    4.3549   -2.5627   -1.4202 H   0  0  0  0  0  0  0  0  0  0  0  0
    4.0732   -3.4828    0.0436 H   0  0  0  0  0  0  0  0  0  0  0  0
    0.8280    1.9596   -2.0291 H   0  0  0  0  0  0  0  0  0  0  0  0
    2.8542    3.3329   -1.7624 H   0  0  0  0  0  0  0  0  0  0  0  0
    1.9566    4.5160   -0.8068 H   0  0  0  0  0  0  0  0  0  0  0  0
    1.5339    4.2362   -2.5067 H   0  0  0  0  0  0  0  0  0  0  0  0
   -1.2648    2.6774   -1.6178 H   0  0  0  0  0  0  0  0  0  0  0  0
   -0.1931    4.7008    0.4344 H   0  0  0  0  0  0  0  0  0  0  0  0
   -2.5856    4.4416    1.0993 H   0  0  0  0  0  0  0  0  0  0  0  0
   -2.3445    5.8090   -2.5509 H   0  0  0  0  0  0  0  0  0  0  0  0
   -2.7568    4.0897   -2.8570 H   0  0  0  0  0  0  0  0  0  0  0  0
   -4.7056    6.9360   -1.5505 H   0  0  0  0  0  0  0  0  0  0  0  0
   -6.7345    6.0919   -3.1240 H   0  0  0  0  0  0  0  0  0  0  0  0
   -6.7474    7.9648   -1.9662 H   0  0  0  0  0  0  0  0  0  0  0  0
   -9.1151    5.1457   -2.8672 H   0  0  0  0  0  0  0  0  0  0  0  0
   -9.3576    5.8345   -1.2441 H   0  0  0  0  0  0  0  0  0  0  0  0
   -9.4715    4.0882   -1.4985 H   0  0  0  0  0  0  0  0  0  0  0  0
   -7.5989    3.0049   -0.5777 H   0  0  0  0  0  0  0  0  0  0  0  0
   -5.0619    3.1310   -1.5305 H   0  0  0  0  0  0  0  0  0  0  0  0
   -4.2587    6.3994    0.7405 H   0  0  0  0  0  0  0  0  0  0  0  0
  1  2  1  0
  2  3  1  0
  3  4  1  0
  3  5  1  0
  5  6  1  0
  6  7  1  0
  7  8  1  0
  8  9  1  0
  9 10  1  0
 10 11  1  0
  7 12  1  0
 12 13  1  0
 13 14  1  0
 14 15  1  0
 15 16  1  0
 16 17  1  0
 17 18  2  0
 18 19  1  0
 18 20  1  0
 20 21  1  0
 21 22  1  0
 22 23  1  0
 23 24  1  0
 24 25  1  0
 25 26  1  0
 24 27  1  0
 27 28  1  0
 28 29  1  0
 29 30  1  0
 30 31  1  0
 31 32  1  0
 32 33  1  0
 31 34  1  0
 34 35  1  0
 34 36  1  0
 36 37  1  0
 36 38  1  0
 27 39  1  0
 39 40  1  0
 39 41  1  0
 20 42  1  0
 42 43  1  0
 42 44  1  0
 44 45  2  0
 45 46  1  0
 46 47  2  0
 47 48  1  0
 48 49  1  0
 49 50  1  0
 50 51  1  0
 51 52  1  0
 51 53  1  0
 53 54  1  0
 53 55  2  0
 55 56  1  0
 56 57  1  0
 57 58  2  0
 57 59  1  0
 56 60  1  0
 60 61  1  0
 15 62  1  0
 10  5  1  0
 59 13  1  0
 62  7  1  0
 41 22  1  0
 60 47  1  0
 38 29  1  0
 60 50  1  0
  1 63  1  0
  1 64  1  0
  1 65  1  0
  2 66  1  0
  2 67  1  0
  3 68  1  0
  4 69  1  0
  4 70  1  0
  4 71  1  0
  5 72  1  0
  8 73  1  0
  8 74  1  0
  9 75  1  0
  9 76  1  0
 10 77  1  0
 11 78  1  0
 11 79  1  0
 11 80  1  0
 12 81  1  0
 12 82  1  0
 13 83  1  0
 14 84  1  0
 14 85  1  0
 15 86  1  0
 16 87  1  0
 16 88  1  0
 17 89  1  0
 19 90  1  0
 19 91  1  0
 19 92  1  0
 20 93  1  0
 22 94  1  0
 23 95  1  0
 23 96  1  0
 24 97  1  0
 26 98  1  0
 26 99  1  0
 26100  1  0
 27101  1  0
 29102  1  0
 30103  1  0
 30104  1  0
 31105  1  0
 33106  1  0
 33107  1  0
 33108  1  0
 34109  1  0
 35110  1  0
 36111  1  0
 37112  1  0
 37113  1  0
 37114  1  0
 39115  1  0
 40116  1  0
 40117  1  0
 40118  1  0
 42119  1  0
 43120  1  0
 43121  1  0
 43122  1  0
 44123  1  0
 45124  1  0
 46125  1  0
 48126  1  0
 48127  1  0
 50128  1  0
 51129  1  0
 52130  1  0
 54131  1  0
 54132  1  0
 54133  1  0
 55134  1  0
 56135  1  0
 61136  1  0
M  END
$$$$
