
     RDKit          3D

 17 18  0  0  0  0  0  0  0  0999 V2000
   -2.1262    2.1840    0.6383 O   0  0  0  0  0  0  0  0  0  0  0  0
   -2.3500    1.0199    0.2721 N   0  0  0  0  0  4  0  0  0  0  0  0
   -3.4756    0.5349    0.0999 O   0  0  0  0  0  1  0  0  0  0  0  0
   -1.1832    0.1678    0.0296 C   0  0  0  0  0  0  0  0  0  0  0  0
   -1.3656   -1.1629   -0.3876 C   0  0  0  0  0  0  0  0  0  0  0  0
   -0.2688   -1.9937   -0.6249 C   0  0  0  0  0  0  0  0  0  0  0  0
    1.0400   -1.5234   -0.4537 C   0  0  0  0  0  0  0  0  0  0  0  0
    1.2450   -0.1936   -0.0364 C   0  0  0  0  0  0  0  0  0  0  0  0
    2.3475    0.6442    0.2451 C   0  0  0  0  0  0  0  0  0  0  0  0
    4.1438    0.1009    0.1105 Br  0  0  0  0  0  0  0  0  0  0  0  0
    1.9921    1.8732    0.6203 N   0  0  0  0  0  0  0  0  0  0  0  0
    0.6501    1.8331    0.5823 N   0  0  0  0  0  0  0  0  0  0  0  0
    0.1374    0.6187    0.1949 C   0  0  0  0  0  0  0  0  0  0  0  0
   -2.3667   -1.5683   -0.5327 H   0  0  0  0  0  0  0  0  0  0  0  0
   -0.4301   -3.0212   -0.9474 H   0  0  0  0  0  0  0  0  0  0  0  0
    1.8839   -2.1828   -0.6426 H   0  0  0  0  0  0  0  0  0  0  0  0
    0.1265    2.6692    0.8321 H   0  0  0  0  0  0  0  0  0  0  0  0
  1  2  2  0
  2  3  1  0
  2  4  1  0
  4  5  2  0
  5  6  1  0
  6  7  2  0
  7  8  1  0
  8  9  1  0
  9 10  1  0
  9 11  2  0
 11 12  1  0
 12 13  1  0
 13  4  1  0
 13  8  2  0
  5 14  1  0
  6 15  1  0
  7 16  1  0
 12 17  1  0
M  CHG  2   2   1   3  -1
M  END
$$$$
