
     RDKit          3D

 60 63  0  0  0  0  0  0  0  0999 V2000
    7.4899   -2.5121   -0.1974 C   0  0  0  0  0  0  0  0  0  0  0  0
    6.6743   -1.6430   -0.9706 O   0  0  0  0  0  0  0  0  0  0  0  0
    5.3185   -1.7030   -0.7778 C   0  0  0  0  0  0  0  0  0  0  0  0
    4.6822   -2.5766    0.1106 C   0  0  0  0  0  0  0  0  0  0  0  0
    3.2877   -2.5714    0.2415 C   0  0  0  0  0  0  0  0  0  0  0  0
    2.5018   -1.6973   -0.5181 C   0  0  0  0  0  0  0  0  0  0  0  0
    0.9973   -1.6752   -0.3741 C   0  0  0  0  0  0  0  0  0  0  0  0
    0.6134   -0.4617    0.3257 N   0  0  0  0  0  0  0  0  0  0  0  0
   -0.7671   -0.3082    0.5506 C   0  0  0  0  0  0  0  0  0  0  0  0
   -1.6280   -1.0627   -0.1669 N   0  0  0  0  0  0  0  0  0  0  0  0
   -2.9521   -0.8651   -0.0431 C   0  0  0  0  0  0  0  0  0  0  0  0
   -3.8079   -1.6629   -0.7659 N   0  0  0  0  0  0  0  0  0  0  0  0
   -3.2822   -2.3021   -1.9711 C   0  0  0  0  0  0  0  0  0  0  0  0
   -4.4351   -2.2304   -2.9699 C   0  0  0  0  0  0  0  0  0  0  0  0
   -5.6635   -2.2380   -2.0794 C   0  0  0  0  0  0  0  0  0  0  0  0
   -5.2391   -1.3454   -0.9036 C   0  0  1  0  0  0  0  0  0  0  0  0
   -6.0588   -1.6897    0.3519 C   0  0  0  0  0  0  0  0  0  0  0  0
   -6.0336   -0.6335    1.3103 O   0  0  0  0  0  0  0  0  0  0  0  0
   -3.4686    0.0561    0.7862 N   0  0  0  0  0  0  0  0  0  0  0  0
   -2.5976    0.8113    1.4885 C   0  0  0  0  0  0  0  0  0  0  0  0
   -1.2325    0.6828    1.3980 C   0  0  0  0  0  0  0  0  0  0  0  0
   -0.3339    1.5029    2.2271 C   0  0  0  0  0  0  0  0  0  0  0  0
    0.6448    0.9849    2.7530 O   0  0  0  0  0  0  0  0  0  0  0  0
   -0.6689    2.8351    2.3521 N   0  0  0  0  0  0  0  0  0  0  0  0
    0.3050    3.7763    2.8966 C   0  0  0  0  0  0  0  0  0  0  0  0
    1.1858    4.3863    1.8217 C   0  0  0  0  0  0  0  0  0  0  0  0
    2.4223    4.7920    2.1734 N   0  0  0  0  0  0  0  0  0  0  0  0
    3.1752    5.3342    1.1979 C   0  0  0  0  0  0  0  0  0  0  0  0
    2.7381    5.5041   -0.0940 C   0  0  0  0  0  0  0  0  0  0  0  0
    1.4549    5.0839   -0.3469 C   0  0  0  0  0  0  0  0  0  0  0  0
    0.6528    4.5365    0.5860 N   0  0  0  0  0  0  0  0  0  0  0  0
    3.1382   -0.8140   -1.4008 C   0  0  0  0  0  0  0  0  0  0  0  0
    4.5302   -0.8186   -1.5309 C   0  0  0  0  0  0  0  0  0  0  0  0
    5.2399    0.2967   -2.6470 Cl  0  0  0  0  0  0  0  0  0  0  0  0
    8.5331   -2.3205   -0.4667 H   0  0  0  0  0  0  0  0  0  0  0  0
    7.3808   -2.3085    0.8731 H   0  0  0  0  0  0  0  0  0  0  0  0
    7.2753   -3.5612   -0.4260 H   0  0  0  0  0  0  0  0  0  0  0  0
    5.2417   -3.2756    0.7237 H   0  0  0  0  0  0  0  0  0  0  0  0
    2.8206   -3.2555    0.9478 H   0  0  0  0  0  0  0  0  0  0  0  0
    0.6624   -2.5648    0.1746 H   0  0  0  0  0  0  0  0  0  0  0  0
    0.5561   -1.7169   -1.3783 H   0  0  0  0  0  0  0  0  0  0  0  0
    1.1177   -0.3452    1.2105 H   0  0  0  0  0  0  0  0  0  0  0  0
   -2.4005   -1.8117   -2.4002 H   0  0  0  0  0  0  0  0  0  0  0  0
   -3.0293   -3.3442   -1.7460 H   0  0  0  0  0  0  0  0  0  0  0  0
   -4.3873   -1.2899   -3.5322 H   0  0  0  0  0  0  0  0  0  0  0  0
   -4.4208   -3.0572   -3.6853 H   0  0  0  0  0  0  0  0  0  0  0  0
   -6.5539   -1.8575   -2.5887 H   0  0  0  0  0  0  0  0  0  0  0  0
   -5.8712   -3.2618   -1.7440 H   0  0  0  0  0  0  0  0  0  0  0  0
   -5.3633   -0.2893   -1.1784 H   0  0  0  0  0  0  0  0  0  0  0  0
   -5.6878   -2.5990    0.8373 H   0  0  0  0  0  0  0  0  0  0  0  0
   -7.1105   -1.8470    0.0904 H   0  0  0  0  0  0  0  0  0  0  0  0
   -5.0991   -0.3354    1.3441 H   0  0  0  0  0  0  0  0  0  0  0  0
   -3.0593    1.5301    2.1605 H   0  0  0  0  0  0  0  0  0  0  0  0
   -1.2500    3.2340    1.6234 H   0  0  0  0  0  0  0  0  0  0  0  0
   -0.2610    4.5816    3.3754 H   0  0  0  0  0  0  0  0  0  0  0  0
    0.9226    3.2818    3.6536 H   0  0  0  0  0  0  0  0  0  0  0  0
    4.1746    5.6368    1.4966 H   0  0  0  0  0  0  0  0  0  0  0  0
    3.3642    5.9385   -0.8604 H   0  0  0  0  0  0  0  0  0  0  0  0
    1.0199    5.1786   -1.3375 H   0  0  0  0  0  0  0  0  0  0  0  0
    2.5411   -0.1125   -1.9804 H   0  0  0  0  0  0  0  0  0  0  0  0
  1  2  1  0
  2  3  1  0
  3  4  2  0
  4  5  1  0
  5  6  2  0
  6  7  1  0
  7  8  1  0
  8  9  1  0
  9 10  2  0
 10 11  1  0
 11 12  1  0
 12 13  1  0
 13 14  1  0
 14 15  1  0
 15 16  1  0
 16 17  1  0
 17 18  1  0
 11 19  2  0
 19 20  1  0
 20 21  2  0
 21 22  1  0
 22 23  2  0
 22 24  1  0
 24 25  1  0
 25 26  1  0
 26 27  2  0
 27 28  1  0
 28 29  2  0
 29 30  1  0
 30 31  2  0
  6 32  1  0
 32 33  2  0
 33 34  1  0
 33  3  1  0
 21  9  1  0
 31 26  1  0
 16 12  1  0
  1 35  1  0
  1 36  1  0
  1 37  1  0
  4 38  1  0
  5 39  1  0
  7 40  1  0
  7 41  1  0
  8 42  1  0
 13 43  1  0
 13 44  1  0
 14 45  1  0
 14 46  1  0
 15 47  1  0
 15 48  1  0
 16 49  1  6
 17 50  1  0
 17 51  1  0
 18 52  1  0
 20 53  1  0
 24 54  1  0
 25 55  1  0
 25 56  1  0
 28 57  1  0
 29 58  1  0
 30 59  1  0
 32 60  1  0
M  END
$$$$
