
     RDKit          3D

 29 31  0  0  0  0  0  0  0  0999 V2000
    4.9944    0.3963   -0.0940 C   0  0  0  0  0  0  0  0  0  0  0  0
    3.7088    0.9742   -0.2782 O   0  0  0  0  0  0  0  0  0  0  0  0
    2.6260    0.1734   -0.0261 C   0  0  0  0  0  0  0  0  0  0  0  0
    2.6738   -1.1562    0.3927 C   0  0  0  0  0  0  0  0  0  0  0  0
    1.5007   -1.8888    0.6226 C   0  0  0  0  0  0  0  0  0  0  0  0
    0.2768   -1.2428    0.4184 C   0  0  0  0  0  0  0  0  0  0  0  0
   -1.0123   -1.7134    0.5643 N   0  0  0  0  0  0  0  0  0  0  0  0
   -1.9009   -0.7252    0.2487 C   0  0  0  0  0  0  0  0  0  0  0  0
   -1.1860    0.4026   -0.0982 C   0  0  0  0  0  0  0  0  0  0  0  0
    0.1941    0.0881    0.0009 C   0  0  0  0  0  0  0  0  0  0  0  0
    1.3879    0.8001   -0.2238 C   0  0  0  0  0  0  0  0  0  0  0  0
   -1.8850    1.6536   -0.5071 C   0  0  0  0  0  0  0  0  0  0  0  0
   -3.3947    1.5536   -0.1653 C   0  0  0  0  0  0  0  0  0  0  0  0
   -3.9938    0.2378   -0.5002 N   0  0  0  0  0  0  0  0  0  0  0  0
   -3.3817   -0.8372    0.3043 C   0  0  0  0  0  0  0  0  0  0  0  0
    5.7412    1.1593   -0.3336 H   0  0  0  0  0  0  0  0  0  0  0  0
    5.1473    0.0971    0.9482 H   0  0  0  0  0  0  0  0  0  0  0  0
    5.1499   -0.4466   -0.7754 H   0  0  0  0  0  0  0  0  0  0  0  0
    3.6187   -1.6653    0.5533 H   0  0  0  0  0  0  0  0  0  0  0  0
    1.5485   -2.9229    0.9477 H   0  0  0  0  0  0  0  0  0  0  0  0
   -1.2507   -2.6492    0.8620 H   0  0  0  0  0  0  0  0  0  0  0  0
    1.3525    1.8353   -0.5497 H   0  0  0  0  0  0  0  0  0  0  0  0
   -1.4491    2.5243   -0.0055 H   0  0  0  0  0  0  0  0  0  0  0  0
   -1.7638    1.7894   -1.5885 H   0  0  0  0  0  0  0  0  0  0  0  0
   -3.9353    2.3355   -0.7104 H   0  0  0  0  0  0  0  0  0  0  0  0
   -3.5515    1.7552    0.9024 H   0  0  0  0  0  0  0  0  0  0  0  0
   -3.7770    0.0407   -1.4776 H   0  0  0  0  0  0  0  0  0  0  0  0
   -3.7125   -1.8060   -0.0850 H   0  0  0  0  0  0  0  0  0  0  0  0
   -3.7264   -0.7630    1.3420 H   0  0  0  0  0  0  0  0  0  0  0  0
  1  2  1  0
  2  3  1  0
  3  4  2  0
  4  5  1  0
  5  6  2  0
  6  7  1  0
  7  8  1  0
  8  9  2  0
  9 10  1  0
 10 11  2  0
  9 12  1  0
 12 13  1  0
 13 14  1  0
 14 15  1  0
 11  3  1  0
 10  6  1  0
 15  8  1  0
  1 16  1  0
  1 17  1  0
  1 18  1  0
  4 19  1  0
  5 20  1  0
  7 21  1  0
 11 22  1  0
 12 23  1  0
 12 24  1  0
 13 25  1  0
 13 26  1  0
 14 27  1  0
 15 28  1  0
 15 29  1  0
M  END
$$$$
