
     RDKit          3D

 40 40  0  0  0  0  0  0  0  0999 V2000
   -4.0037    1.2925   -1.5433 C   0  0  0  0  0  0  0  0  0  0  0  0
   -4.0253    1.0404   -0.0336 C   0  0  0  0  0  0  0  0  0  0  0  0
   -5.2329    1.7452    0.5893 C   0  0  0  0  0  0  0  0  0  0  0  0
   -2.7307    1.5206    0.6512 C   0  0  0  0  0  0  0  0  0  0  0  0
   -1.5042    0.7305    0.2603 C   0  0  0  0  0  0  0  0  0  0  0  0
   -0.5386    1.2852   -0.5862 C   0  0  0  0  0  0  0  0  0  0  0  0
    0.5947    0.5535   -0.9536 C   0  0  0  0  0  0  0  0  0  0  0  0
    0.7892   -0.7517   -0.4805 C   0  0  0  0  0  0  0  0  0  0  0  0
    2.0209   -1.5830   -0.8132 C   0  0  1  0  0  0  0  0  0  0  0  0
    2.8267   -1.1208   -2.0294 C   0  0  0  0  0  0  0  0  0  0  0  0
    2.9742   -1.7126    0.3746 C   0  0  0  0  0  0  0  0  0  0  0  0
    3.4696   -2.7873    0.6897 O   0  0  0  0  0  0  0  0  0  0  0  0
    3.2549   -0.5266    1.0732 N   0  0  0  0  0  0  0  0  0  0  0  0
    4.4425   -0.3456    2.2087 S   0  0  0  0  0  6  0  0  0  0  0  0
    3.8951   -1.3919    3.5428 C   0  0  0  0  0  0  0  0  0  0  0  0
    4.3283    1.0286    2.6523 O   0  0  0  0  0  0  0  0  0  0  0  0
    5.6866   -0.8460    1.6716 O   0  0  0  0  0  0  0  0  0  0  0  0
   -0.1854   -1.3038    0.3677 C   0  0  0  0  0  0  0  0  0  0  0  0
   -1.3173   -0.5720    0.7333 C   0  0  0  0  0  0  0  0  0  0  0  0
   -3.8470    2.3532   -1.7670 H   0  0  0  0  0  0  0  0  0  0  0  0
   -3.2086    0.7200   -2.0310 H   0  0  0  0  0  0  0  0  0  0  0  0
   -4.9514    0.9881   -2.0005 H   0  0  0  0  0  0  0  0  0  0  0  0
   -4.1478   -0.0379    0.1294 H   0  0  0  0  0  0  0  0  0  0  0  0
   -5.2916    1.5398    1.6635 H   0  0  0  0  0  0  0  0  0  0  0  0
   -6.1654    1.3965    0.1329 H   0  0  0  0  0  0  0  0  0  0  0  0
   -5.1741    2.8305    0.4534 H   0  0  0  0  0  0  0  0  0  0  0  0
   -2.5702    2.5864    0.4420 H   0  0  0  0  0  0  0  0  0  0  0  0
   -2.8389    1.4482    1.7418 H   0  0  0  0  0  0  0  0  0  0  0  0
   -0.6650    2.2948   -0.9729 H   0  0  0  0  0  0  0  0  0  0  0  0
    1.3129    1.0309   -1.6160 H   0  0  0  0  0  0  0  0  0  0  0  0
    1.6628   -2.5964   -1.0440 H   0  0  0  0  0  0  0  0  0  0  0  0
    3.6331   -1.8306   -2.2471 H   0  0  0  0  0  0  0  0  0  0  0  0
    2.1936   -1.0488   -2.9202 H   0  0  0  0  0  0  0  0  0  0  0  0
    3.2984   -0.1459   -1.8626 H   0  0  0  0  0  0  0  0  0  0  0  0
    2.7550    0.3342    0.8653 H   0  0  0  0  0  0  0  0  0  0  0  0
    3.9305   -2.4351    3.2281 H   0  0  0  0  0  0  0  0  0  0  0  0
    4.5749   -1.2404    4.3844 H   0  0  0  0  0  0  0  0  0  0  0  0
    2.8833   -1.0992    3.8292 H   0  0  0  0  0  0  0  0  0  0  0  0
   -0.0733   -2.3163    0.7531 H   0  0  0  0  0  0  0  0  0  0  0  0
   -2.0556   -1.0272    1.3905 H   0  0  0  0  0  0  0  0  0  0  0  0
  1  2  1  0
  2  3  1  0
  2  4  1  0
  4  5  1  0
  5  6  2  0
  6  7  1  0
  7  8  2  0
  8  9  1  0
  9 10  1  0
  9 11  1  0
 11 12  2  0
 11 13  1  0
 13 14  1  0
 14 15  1  0
 14 16  2  0
 14 17  2  0
  8 18  1  0
 18 19  2  0
 19  5  1  0
  1 20  1  0
  1 21  1  0
  1 22  1  0
  2 23  1  0
  3 24  1  0
  3 25  1  0
  3 26  1  0
  4 27  1  0
  4 28  1  0
  6 29  1  0
  7 30  1  0
  9 31  1  6
 10 32  1  0
 10 33  1  0
 10 34  1  0
 13 35  1  0
 15 36  1  0
 15 37  1  0
 15 38  1  0
 18 39  1  0
 19 40  1  0
M  END
$$$$
