
     RDKit          3D

 43 44  0  0  0  0  0  0  0  0999 V2000
    1.9514   -1.8031    1.6353 C   0  0  0  0  0  0  0  0  0  0  0  0
    1.6085   -1.4176    0.2557 C   0  0  0  0  0  0  0  0  0  0  0  0
    1.5510    0.0165   -0.0524 C   0  0  0  0  0  0  0  0  0  0  0  0
    2.7338    0.7232   -0.3246 C   0  0  0  0  0  0  0  0  0  0  0  0
    4.0137    0.0958   -0.1682 C   0  0  0  0  0  0  0  0  0  0  0  0
    4.2613   -1.0475    0.2238 O   0  0  0  0  0  0  0  0  0  0  0  0
    5.1633    0.8563   -0.4977 O   0  0  0  0  0  0  0  0  0  0  0  0
    6.4629    0.3139   -0.3718 C   0  0  0  0  0  0  0  0  0  0  0  0
    2.7060    2.0375   -0.6863 N   0  0  0  0  0  0  0  0  0  0  0  0
    1.5806    2.7240   -0.8003 C   0  0  0  0  0  0  0  0  0  0  0  0
    0.3885    2.0753   -0.5381 C   0  0  0  0  0  0  0  0  0  0  0  0
   -0.8798    2.5120   -0.5487 N   0  0  0  0  0  0  0  0  0  0  0  0
   -1.7098    1.5248   -0.1982 C   0  0  0  0  0  0  0  0  0  0  0  0
   -3.0971    1.4922   -0.0456 C   0  0  0  0  0  0  0  0  0  0  0  0
   -3.6908    0.3214    0.3578 C   0  0  0  0  0  0  0  0  0  0  0  0
   -5.0545    0.2445    0.5210 O   0  0  0  0  0  0  0  0  0  0  0  0
   -5.8599    1.3677    0.2763 C   0  0  0  0  0  0  0  0  0  0  0  0
   -2.9387   -0.7967    0.6076 C   0  0  0  0  0  0  0  0  0  0  0  0
   -3.5224   -1.9787    1.0157 O   0  0  0  0  0  0  0  0  0  0  0  0
   -2.7850   -3.1393    1.2809 C   0  0  0  0  0  0  0  0  0  0  0  0
   -1.5463   -0.7840    0.4593 C   0  0  0  0  0  0  0  0  0  0  0  0
   -0.9558    0.3800    0.0556 C   0  0  0  0  0  0  0  0  0  0  0  0
    0.3675    0.7399   -0.1670 C   0  0  0  0  0  0  0  0  0  0  0  0
    0.6876    0.0000    0.0000 Cl  0  0  0  0  0  0  0  0  0  0  0  0
    1.0520   -2.1223    2.2432 H   0  0  0  0  0  0  0  0  0  0  0  0
    2.5838   -2.7302    1.5950 H   0  0  0  0  0  0  0  0  0  0  0  0
    2.4172   -1.0063    2.2514 H   0  0  0  0  0  0  0  0  0  0  0  0
    2.4120   -1.8274   -0.4794 H   0  0  0  0  0  0  0  0  0  0  0  0
    0.7211   -1.9305   -0.1071 H   0  0  0  0  0  0  0  0  0  0  0  0
    6.8373    0.6036    0.6309 H   0  0  0  0  0  0  0  0  0  0  0  0
    7.1458    0.7313   -1.1461 H   0  0  0  0  0  0  0  0  0  0  0  0
    6.4082   -0.7919   -0.4801 H   0  0  0  0  0  0  0  0  0  0  0  0
    1.5119    3.7656   -1.0845 H   0  0  0  0  0  0  0  0  0  0  0  0
   -1.1904    3.4621   -0.7867 H   0  0  0  0  0  0  0  0  0  0  0  0
   -3.6578    2.4002   -0.2526 H   0  0  0  0  0  0  0  0  0  0  0  0
   -5.5653    2.1614    0.9767 H   0  0  0  0  0  0  0  0  0  0  0  0
   -6.9423    1.1168    0.3158 H   0  0  0  0  0  0  0  0  0  0  0  0
   -5.6811    1.7767   -0.7565 H   0  0  0  0  0  0  0  0  0  0  0  0
   -1.9564   -2.9317    1.9851 H   0  0  0  0  0  0  0  0  0  0  0  0
   -3.4349   -3.9429    1.7168 H   0  0  0  0  0  0  0  0  0  0  0  0
   -2.4024   -3.5076    0.2999 H   0  0  0  0  0  0  0  0  0  0  0  0
   -1.0073   -1.6849    0.7017 H   0  0  0  0  0  0  0  0  0  0  0  0
   -0.6876    0.0000    0.0000 H   0  0  0  0  0  0  0  0  0  0  0  0
  1  2  1  0
  2  3  1  0
  3  4  2  0
  4  5  1  0
  5  6  2  0
  5  7  1  0
  7  8  1  0
  4  9  1  0
  9 10  2  0
 10 11  1  0
 11 12  1  0
 12 13  1  0
 13 14  2  0
 14 15  1  0
 15 16  1  0
 16 17  1  0
 15 18  2  0
 18 19  1  0
 19 20  1  0
 18 21  1  0
 21 22  2  0
 22 23  1  0
 23  3  1  0
 23 11  2  0
 22 13  1  0
  1 25  1  0
  1 26  1  0
  1 27  1  0
  2 28  1  0
  2 29  1  0
  8 30  1  0
  8 31  1  0
  8 32  1  0
 10 33  1  0
 12 34  1  0
 14 35  1  0
 17 36  1  0
 17 37  1  0
 17 38  1  0
 20 39  1  0
 20 40  1  0
 20 41  1  0
 21 42  1  0
 24 43  1  0
M  END
$$$$
