
     RDKit          3D

 55 58  0  0  0  0  0  0  0  0999 V2000
   -2.3853    4.1146    1.1551 C   0  0  0  0  0  0  0  0  0  0  0  0
   -2.5401    2.6772    0.8315 C   0  0  0  0  0  0  0  0  0  0  0  0
   -3.6515    2.0218    0.6732 N   0  0  0  0  0  0  0  0  0  0  0  0
   -3.3153    0.6867    0.3766 N   0  0  0  0  0  0  0  0  0  0  0  0
   -4.3671   -0.2367    0.1507 C   0  0  0  0  0  0  0  0  0  0  0  0
   -4.1166   -1.5773   -0.1543 C   0  0  0  0  0  0  0  0  0  0  0  0
   -5.1696   -2.4725   -0.3732 C   0  0  0  0  0  0  0  0  0  0  0  0
   -6.5032   -2.0524   -0.2932 C   0  0  0  0  0  0  0  0  0  0  0  0
   -7.6066   -3.0452   -0.5350 C   0  0  0  0  0  0  0  0  0  0  0  0
   -6.7764   -0.7078    0.0131 C   0  0  0  0  0  0  0  0  0  0  0  0
   -8.1879   -0.1969    0.1135 C   0  0  0  0  0  0  0  0  0  0  0  0
   -5.7059    0.1803    0.2305 C   0  0  0  0  0  0  0  0  0  0  0  0
   -1.9477    0.4367    0.3280 C   0  0  0  0  0  0  0  0  0  0  0  0
   -1.2653   -0.5392    0.0903 O   0  0  0  0  0  0  0  0  0  0  0  0
   -1.3728    1.7814    0.6466 C   0  0  0  0  0  0  0  0  0  0  0  0
   -0.1400    2.1638    0.7570 N   0  0  0  0  0  0  0  0  0  0  0  0
    0.8076    1.1976    0.5869 N   0  0  0  0  0  0  0  0  0  0  0  0
    2.1399    1.5971    0.3156 C   0  0  0  0  0  0  0  0  0  0  0  0
    2.5341    2.9386    0.3034 C   0  0  0  0  0  0  0  0  0  0  0  0
    3.8574    3.2897    0.0335 C   0  0  0  0  0  0  0  0  0  0  0  0
    4.8115    2.2985   -0.2044 C   0  0  0  0  0  0  0  0  0  0  0  0
    4.4722    0.9363   -0.1500 C   0  0  0  0  0  0  0  0  0  0  0  0
    5.5108   -0.0860   -0.3660 C   0  0  0  0  0  0  0  0  0  0  0  0
    6.2062   -0.1573   -1.5849 C   0  0  0  0  0  0  0  0  0  0  0  0
    7.1994   -1.1172   -1.7942 C   0  0  0  0  0  0  0  0  0  0  0  0
    7.5164   -2.0244   -0.7842 C   0  0  0  0  0  0  0  0  0  0  0  0
    6.8384   -1.9722    0.4385 C   0  0  0  0  0  0  0  0  0  0  0  0
    7.1383   -2.9136    1.5441 C   0  0  0  0  0  0  0  0  0  0  0  0
    6.6102   -2.9245    2.6407 O   0  0  0  0  0  0  0  0  0  0  0  0
    8.0953   -3.8046    1.2267 O   0  0  0  0  0  0  0  0  0  0  0  0
    5.8440   -1.0056    0.6422 C   0  0  0  0  0  0  0  0  0  0  0  0
    3.1336    0.6119    0.1379 C   0  0  0  0  0  0  0  0  0  0  0  0
    2.7791   -0.7125    0.2639 O   0  0  0  0  0  0  0  0  0  0  0  0
   -1.8531    4.2222    2.1038 H   0  0  0  0  0  0  0  0  0  0  0  0
   -3.3670    4.5878    1.2409 H   0  0  0  0  0  0  0  0  0  0  0  0
   -1.8179    4.6106    0.3633 H   0  0  0  0  0  0  0  0  0  0  0  0
   -3.1058   -1.9672   -0.2309 H   0  0  0  0  0  0  0  0  0  0  0  0
   -4.9332   -3.5086   -0.6085 H   0  0  0  0  0  0  0  0  0  0  0  0
   -7.2096   -4.0406   -0.7613 H   0  0  0  0  0  0  0  0  0  0  0  0
   -8.2187   -2.7337   -1.3873 H   0  0  0  0  0  0  0  0  0  0  0  0
   -8.2375   -3.1369    0.3547 H   0  0  0  0  0  0  0  0  0  0  0  0
   -8.7299   -0.7298    0.9011 H   0  0  0  0  0  0  0  0  0  0  0  0
   -8.7079   -0.3268   -0.8408 H   0  0  0  0  0  0  0  0  0  0  0  0
   -8.2142    0.8699    0.3601 H   0  0  0  0  0  0  0  0  0  0  0  0
   -5.9309    1.2186    0.4670 H   0  0  0  0  0  0  0  0  0  0  0  0
    0.5546    0.3429    0.0701 H   0  0  0  0  0  0  0  0  0  0  0  0
    1.8064    3.7244    0.4860 H   0  0  0  0  0  0  0  0  0  0  0  0
    4.1455    4.3375    0.0105 H   0  0  0  0  0  0  0  0  0  0  0  0
    5.8388    2.5959   -0.4072 H   0  0  0  0  0  0  0  0  0  0  0  0
    5.9641    0.5350   -2.3894 H   0  0  0  0  0  0  0  0  0  0  0  0
    7.7210   -1.1593   -2.7470 H   0  0  0  0  0  0  0  0  0  0  0  0
    8.2893   -2.7682   -0.9604 H   0  0  0  0  0  0  0  0  0  0  0  0
    8.1793   -4.3497    2.0367 H   0  0  0  0  0  0  0  0  0  0  0  0
    5.3189   -0.9691    1.5958 H   0  0  0  0  0  0  0  0  0  0  0  0
    2.0648   -0.7414    0.9254 H   0  0  0  0  0  0  0  0  0  0  0  0
  1  2  1  0
  2  3  2  0
  3  4  1  0
  4  5  1  0
  5  6  2  0
  6  7  1  0
  7  8  2  0
  8  9  1  0
  8 10  1  0
 10 11  1  0
 10 12  2  0
  4 13  1  0
 13 14  2  0
 13 15  1  0
 15 16  2  0
 16 17  1  0
 17 18  1  0
 18 19  2  0
 19 20  1  0
 20 21  2  0
 21 22  1  0
 22 23  1  0
 23 24  2  0
 24 25  1  0
 25 26  2  0
 26 27  1  0
 27 28  1  0
 28 29  2  0
 28 30  1  0
 27 31  2  0
 22 32  2  0
 32 33  1  0
 15  2  1  0
 32 18  1  0
 12  5  1  0
 31 23  1  0
  1 34  1  0
  1 35  1  0
  1 36  1  0
  6 37  1  0
  7 38  1  0
  9 39  1  0
  9 40  1  0
  9 41  1  0
 11 42  1  0
 11 43  1  0
 11 44  1  0
 12 45  1  0
 17 46  1  0
 19 47  1  0
 20 48  1  0
 21 49  1  0
 24 50  1  0
 25 51  1  0
 26 52  1  0
 30 53  1  0
 31 54  1  0
 33 55  1  0
M  END
$$$$
