
     RDKit          3D

 80 81  0  0  0  0  0  0  0  0999 V2000
   -5.3840   -4.4575    1.1054 C   0  0  0  0  0  0  0  0  0  0  0  0
   -4.9639   -3.1300    1.7323 C   0  0  0  0  0  0  0  0  0  0  0  0
   -3.4980   -3.1813    2.1714 C   0  0  0  0  0  0  0  0  0  0  0  0
   -5.2576   -1.9112    0.8290 C   0  0  0  0  0  0  0  0  0  0  0  0
   -4.5831   -1.9173   -0.5551 C   0  0  2  0  0  0  0  0  0  0  0  0
   -4.0221   -0.5914   -0.8449 N   0  0  0  0  0  0  0  0  0  0  0  0
   -3.0017   -0.4400   -1.7573 C   0  0  0  0  0  0  0  0  0  0  0  0
   -2.4505   -1.3969   -2.3028 O   0  0  0  0  0  0  0  0  0  0  0  0
   -2.5743    1.0146   -2.0442 C   0  0  2  0  0  0  0  0  0  0  0  0
   -3.6095    1.7460   -2.9165 C   0  0  0  0  0  0  0  0  0  0  0  0
   -4.7193    2.3902   -2.1172 C   0  0  0  0  0  0  0  0  0  0  0  0
   -6.0381    1.9297   -2.2201 C   0  0  0  0  0  0  0  0  0  0  0  0
   -7.0504    2.5127   -1.4563 C   0  0  0  0  0  0  0  0  0  0  0  0
   -6.7576    3.5668   -0.5929 C   0  0  0  0  0  0  0  0  0  0  0  0
   -5.4520    4.0442   -0.4971 C   0  0  0  0  0  0  0  0  0  0  0  0
   -4.4383    3.4616   -1.2574 C   0  0  0  0  0  0  0  0  0  0  0  0
   -1.2724    0.9466   -2.7150 N   0  0  0  0  0  0  0  0  0  0  0  0
   -0.3793    1.9876   -2.6423 C   0  0  0  0  0  0  0  0  0  0  0  0
   -0.6696    3.0853   -2.1676 O   0  0  0  0  0  0  0  0  0  0  0  0
    0.9970    1.6883   -3.2413 C   0  0  0  0  0  0  0  0  0  0  0  0
    2.0030    2.4414   -2.5163 N   0  0  0  0  0  0  0  0  0  0  0  0
    2.5122    1.9351   -1.3404 C   0  0  0  0  0  0  0  0  0  0  0  0
    2.2602    0.7959   -0.9425 O   0  0  0  0  0  0  0  0  0  0  0  0
    3.3958    2.9107   -0.5303 C   0  0  1  0  0  0  0  0  0  0  0  0
    2.5462    4.0028    0.1052 C   0  0  0  0  0  0  0  0  0  0  0  0
    4.0615    2.1192    0.5008 N   0  0  0  0  0  0  0  0  0  0  0  0
    5.2728    1.5092    0.2158 C   0  0  0  0  0  0  0  0  0  0  0  0
    5.9852    1.8750   -0.7132 O   0  0  0  0  0  0  0  0  0  0  0  0
    5.6512    0.3736    1.2005 C   0  0  1  0  0  0  0  0  0  0  0  0
    4.4603   -0.4584    1.5046 N   0  0  0  0  0  0  0  0  0  0  0  0
    6.7992   -0.4757    0.6185 C   0  0  0  0  0  0  0  0  0  0  0  0
    7.4573   -1.3829    1.6361 C   0  0  0  0  0  0  0  0  0  0  0  0
    8.6110   -0.9707    2.3194 C   0  0  0  0  0  0  0  0  0  0  0  0
    9.2116   -1.8044    3.2666 C   0  0  0  0  0  0  0  0  0  0  0  0
    8.6556   -3.0517    3.5329 C   0  0  0  0  0  0  0  0  0  0  0  0
    9.2078   -3.8980    4.4502 O   0  0  0  0  0  0  0  0  0  0  0  0
    7.5113   -3.4744    2.8705 C   0  0  0  0  0  0  0  0  0  0  0  0
    6.9116   -2.6418    1.9245 C   0  0  0  0  0  0  0  0  0  0  0  0
   -5.6098   -2.2353   -1.6480 C   0  0  0  0  0  0  0  0  0  0  0  0
   -6.3439   -1.4336   -2.2081 O   0  0  0  0  0  0  0  0  0  0  0  0
   -5.6829   -3.5478   -1.9499 O   0  0  0  0  0  0  0  0  0  0  0  0
   -4.7415   -4.7309    0.2634 H   0  0  0  0  0  0  0  0  0  0  0  0
   -6.4199   -4.4130    0.7525 H   0  0  0  0  0  0  0  0  0  0  0  0
   -5.3180   -5.2663    1.8417 H   0  0  0  0  0  0  0  0  0  0  0  0
   -5.5658   -2.9974    2.6417 H   0  0  0  0  0  0  0  0  0  0  0  0
   -3.2010   -2.2402    2.6476 H   0  0  0  0  0  0  0  0  0  0  0  0
   -3.3433   -3.9862    2.8997 H   0  0  0  0  0  0  0  0  0  0  0  0
   -2.8232   -3.3625    1.3298 H   0  0  0  0  0  0  0  0  0  0  0  0
   -6.3475   -1.8262    0.7138 H   0  0  0  0  0  0  0  0  0  0  0  0
   -4.9498   -1.0158    1.3884 H   0  0  0  0  0  0  0  0  0  0  0  0
   -3.7679   -2.6440   -0.6209 H   0  0  0  0  0  0  0  0  0  0  0  0
   -4.6259    0.2076   -0.6792 H   0  0  0  0  0  0  0  0  0  0  0  0
   -2.4154    1.5137   -1.0804 H   0  0  0  0  0  0  0  0  0  0  0  0
   -3.1311    2.5429   -3.5025 H   0  0  0  0  0  0  0  0  0  0  0  0
   -4.0340    1.0528   -3.6553 H   0  0  0  0  0  0  0  0  0  0  0  0
   -6.2906    1.1078   -2.8886 H   0  0  0  0  0  0  0  0  0  0  0  0
   -8.0702    2.1433   -1.5379 H   0  0  0  0  0  0  0  0  0  0  0  0
   -7.5495    4.0231   -0.0038 H   0  0  0  0  0  0  0  0  0  0  0  0
   -5.2240    4.8752    0.1651 H   0  0  0  0  0  0  0  0  0  0  0  0
   -3.4242    3.8524   -1.1803 H   0  0  0  0  0  0  0  0  0  0  0  0
   -0.9367    0.0104   -2.9335 H   0  0  0  0  0  0  0  0  0  0  0  0
    1.2227    0.6187   -3.2012 H   0  0  0  0  0  0  0  0  0  0  0  0
    1.0042    2.0252   -4.2809 H   0  0  0  0  0  0  0  0  0  0  0  0
    1.9713    3.4483   -2.6225 H   0  0  0  0  0  0  0  0  0  0  0  0
    4.1406    3.3519   -1.2024 H   0  0  0  0  0  0  0  0  0  0  0  0
    1.7427    3.5781    0.7202 H   0  0  0  0  0  0  0  0  0  0  0  0
    2.0799    4.6381   -0.6550 H   0  0  0  0  0  0  0  0  0  0  0  0
    3.1570    4.6428    0.7523 H   0  0  0  0  0  0  0  0  0  0  0  0
    3.4308    1.5375    1.0365 H   0  0  0  0  0  0  0  0  0  0  0  0
    5.9855    0.8522    2.1297 H   0  0  0  0  0  0  0  0  0  0  0  0
    3.8632   -0.0001    2.1872 H   0  0  0  0  0  0  0  0  0  0  0  0
    3.9164   -0.6122    0.6515 H   0  0  0  0  0  0  0  0  0  0  0  0
    7.5764    0.1738    0.1943 H   0  0  0  0  0  0  0  0  0  0  0  0
    6.4411   -1.0780   -0.2287 H   0  0  0  0  0  0  0  0  0  0  0  0
    9.0494    0.0040    2.1168 H   0  0  0  0  0  0  0  0  0  0  0  0
   10.1014   -1.4638    3.7843 H   0  0  0  0  0  0  0  0  0  0  0  0
   10.0073   -3.4804    4.8077 H   0  0  0  0  0  0  0  0  0  0  0  0
    7.0830   -4.4476    3.0906 H   0  0  0  0  0  0  0  0  0  0  0  0
    6.0071   -2.9753    1.4194 H   0  0  0  0  0  0  0  0  0  0  0  0
   -6.3526   -3.5960   -2.6630 H   0  0  0  0  0  0  0  0  0  0  0  0
  1  2  1  0
  2  3  1  0
  2  4  1  0
  4  5  1  0
  5  6  1  0
  6  7  1  0
  7  8  2  0
  7  9  1  0
  9 10  1  0
 10 11  1  0
 11 12  2  0
 12 13  1  0
 13 14  2  0
 14 15  1  0
 15 16  2  0
  9 17  1  0
 17 18  1  0
 18 19  2  0
 18 20  1  0
 20 21  1  0
 21 22  1  0
 22 23  2  0
 22 24  1  0
 24 25  1  0
 24 26  1  0
 26 27  1  0
 27 28  2  0
 27 29  1  0
 29 30  1  0
 29 31  1  0
 31 32  1  0
 32 33  2  0
 33 34  1  0
 34 35  2  0
 35 36  1  0
 35 37  1  0
 37 38  2  0
  5 39  1  0
 39 40  2  0
 39 41  1  0
 16 11  1  0
 38 32  1  0
  1 42  1  0
  1 43  1  0
  1 44  1  0
  2 45  1  0
  3 46  1  0
  3 47  1  0
  3 48  1  0
  4 49  1  0
  4 50  1  0
  5 51  1  1
  6 52  1  0
  9 53  1  1
 10 54  1  0
 10 55  1  0
 12 56  1  0
 13 57  1  0
 14 58  1  0
 15 59  1  0
 16 60  1  0
 17 61  1  0
 20 62  1  0
 20 63  1  0
 21 64  1  0
 24 65  1  6
 25 66  1  0
 25 67  1  0
 25 68  1  0
 26 69  1  0
 29 70  1  1
 30 71  1  0
 30 72  1  0
 31 73  1  0
 31 74  1  0
 33 75  1  0
 34 76  1  0
 36 77  1  0
 37 78  1  0
 38 79  1  0
 41 80  1  0
M  END
$$$$
