
     RDKit          3D

148152  0  0  0  0  0  0  0  0999 V2000
    7.3159    4.7269    0.9988 C   0  0  0  0  0  0  0  0  0  0  0  0
    6.9194    3.9078   -0.0942 O   0  0  0  0  0  0  0  0  0  0  0  0
    6.1099    2.7934    0.3117 C   0  0  1  0  0  0  0  0  0  0  0  0
    5.4127    2.2219   -0.9331 C   0  0  0  0  0  0  0  0  0  0  0  0
    4.1688    2.9995   -1.3808 C   0  0  2  0  0  0  0  0  0  0  0  0
    4.4340    4.4335   -1.8074 C   0  0  0  0  0  0  0  0  0  0  0  0
    3.1341    5.0251   -2.3304 C   0  0  0  0  0  0  0  0  0  0  0  0
    1.9830    4.8982   -1.3113 C   0  0  1  0  0  0  0  0  0  0  0  0
    0.6923    5.2947   -2.0494 C   0  0  0  0  0  0  0  0  0  0  0  0
    1.9130    3.4932   -0.6439 C   0  0  1  0  0  0  0  0  0  0  0  0
    1.3586    2.5466   -1.5432 O   0  0  0  0  0  0  0  0  0  0  0  0
    3.2371    3.0198   -0.3032 O   0  0  0  0  0  0  0  0  0  0  0  0
    1.2585    3.4654    0.7815 C   0  0  0  0  0  0  0  0  0  0  0  0
    1.6612    2.8105    1.7493 O   0  0  0  0  0  0  0  0  0  0  0  0
    0.0283    4.3206    1.0246 C   0  0  0  0  0  0  0  0  0  0  0  0
    0.1661    5.5386    0.9874 O   0  0  0  0  0  0  0  0  0  0  0  0
   -1.1839    3.6859    1.3307 N   0  0  0  0  0  0  0  0  0  0  0  0
   -2.3878    4.5112    1.4079 C   0  0  0  0  0  0  0  0  0  0  0  0
   -3.3432    4.0246    2.4916 C   0  0  0  0  0  0  0  0  0  0  0  0
   -3.6533    2.5409    2.3333 C   0  0  0  0  0  0  0  0  0  0  0  0
   -2.3639    1.7267    2.2996 C   0  0  0  0  0  0  0  0  0  0  0  0
   -1.3844    2.2243    1.2261 C   0  0  1  0  0  0  0  0  0  0  0  0
   -1.7634    1.8747   -0.2240 C   0  0  0  0  0  0  0  0  0  0  0  0
   -1.2406    2.4154   -1.1956 O   0  0  0  0  0  0  0  0  0  0  0  0
   -2.6720    0.8691   -0.2939 O   0  0  0  0  0  0  0  0  0  0  0  0
   -2.6304    0.0454   -1.4767 C   0  0  2  0  0  0  0  0  0  0  0  0
   -3.7884    0.3891   -2.4557 C   0  0  2  0  0  0  0  0  0  0  0  0
   -3.2386    1.2248   -3.6256 C   0  0  0  0  0  0  0  0  0  0  0  0
   -4.9889    1.1539   -1.8461 C   0  0  0  0  0  0  0  0  0  0  0  0
   -5.7851    0.4357   -0.7385 C   0  0  2  0  0  0  0  0  0  0  0  0
   -6.4740   -0.8516   -1.2323 C   0  0  0  0  0  0  0  0  0  0  0  0
   -7.9897   -0.8474   -1.0434 C   0  0  0  0  0  0  0  0  0  0  0  0
   -8.3923   -0.5063    0.4013 C   0  0  2  0  0  0  0  0  0  0  0  0
   -9.8366   -0.4814    0.5328 N   0  0  0  0  0  0  0  0  0  0  0  0
  -10.7353    0.4279    0.0737 C   0  0  0  0  0  0  0  0  0  0  0  0
  -11.9461   -0.0096    0.3386 N   0  0  0  0  0  0  0  0  0  0  0  0
  -11.7766   -1.2177    0.9713 N   0  0  0  0  0  0  0  0  0  0  0  0
  -10.4909   -1.5220    1.0825 N   0  0  0  0  0  0  0  0  0  0  0  0
   -7.6458    0.7360    0.9642 C   0  0  2  0  0  0  0  0  0  0  0  0
   -8.5563    1.6871    1.5222 O   0  0  0  0  0  0  0  0  0  0  0  0
   -7.9904    2.5088    2.5389 C   0  0  0  0  0  0  0  0  0  0  0  0
   -6.7903    1.4169   -0.1123 C   0  0  0  0  0  0  0  0  0  0  0  0
   -2.7136   -1.4103   -0.9930 C   0  0  0  0  0  0  0  0  0  0  0  0
   -1.6089   -1.7421    0.0026 C   0  0  0  0  0  0  0  0  0  0  0  0
   -0.6499   -0.9866    0.1890 O   0  0  0  0  0  0  0  0  0  0  0  0
   -1.7938   -3.0393    0.8027 C   0  0  2  0  0  0  0  0  0  0  0  0
   -2.5926   -2.7330    2.0661 C   0  0  0  0  0  0  0  0  0  0  0  0
   -0.4447   -3.6238    1.1475 C   0  0  0  0  0  0  0  0  0  0  0  0
    0.0193   -4.8681    0.9047 C   0  0  0  0  0  0  0  0  0  0  0  0
   -0.8050   -5.9617    0.2732 C   0  0  0  0  0  0  0  0  0  0  0  0
    1.4698   -5.1972    1.2502 C   0  0  1  0  0  0  0  0  0  0  0  0
    1.4885   -6.0587    2.3985 O   0  0  0  0  0  0  0  0  0  0  0  0
    2.3717   -5.7932    0.1372 C   0  0  1  0  0  0  0  0  0  0  0  0
    1.8851   -7.0542   -0.3412 O   0  0  0  0  0  0  0  0  0  0  0  0
    2.5938   -8.1660    0.1847 C   0  0  0  0  0  0  0  0  0  0  0  0
    2.5061   -4.8081   -1.0379 C   0  0  0  0  0  0  0  0  0  0  0  0
    1.5425   -4.4723   -1.7345 O   0  0  0  0  0  0  0  0  0  0  0  0
    3.9061   -4.2931   -1.3918 C   0  0  2  0  0  0  0  0  0  0  0  0
    4.7228   -5.4497   -1.9660 C   0  0  0  0  0  0  0  0  0  0  0  0
    4.5719   -3.6067   -0.1853 C   0  0  0  0  0  0  0  0  0  0  0  0
    5.4051   -2.3493   -0.5249 C   0  0  2  0  0  0  0  0  0  0  0  0
    6.5551   -2.6319   -1.4937 C   0  0  0  0  0  0  0  0  0  0  0  0
    5.8452   -1.6963    0.7714 C   0  0  0  0  0  0  0  0  0  0  0  0
    7.0659   -1.7505    1.3279 C   0  0  0  0  0  0  0  0  0  0  0  0
    7.4404   -1.1041    2.5682 C   0  0  0  0  0  0  0  0  0  0  0  0
    7.2665    0.1801    2.9257 C   0  0  0  0  0  0  0  0  0  0  0  0
    6.6257    1.2347    2.1697 C   0  0  0  0  0  0  0  0  0  0  0  0
    6.9812    1.7232    0.9637 C   0  0  0  0  0  0  0  0  0  0  0  0
    8.1866    1.2723    0.1790 C   0  0  0  0  0  0  0  0  0  0  0  0
    6.4510    5.0458    1.5869 H   0  0  0  0  0  0  0  0  0  0  0  0
    7.8075    5.6163    0.5952 H   0  0  0  0  0  0  0  0  0  0  0  0
    8.0317    4.2000    1.6352 H   0  0  0  0  0  0  0  0  0  0  0  0
    5.3497    3.1501    1.0194 H   0  0  0  0  0  0  0  0  0  0  0  0
    5.0861    1.1975   -0.7125 H   0  0  0  0  0  0  0  0  0  0  0  0
    6.1156    2.1724   -1.7732 H   0  0  0  0  0  0  0  0  0  0  0  0
    3.7358    2.4387   -2.2199 H   0  0  0  0  0  0  0  0  0  0  0  0
    4.7664    5.0400   -0.9579 H   0  0  0  0  0  0  0  0  0  0  0  0
    5.2056    4.4757   -2.5833 H   0  0  0  0  0  0  0  0  0  0  0  0
    2.8674    4.5169   -3.2659 H   0  0  0  0  0  0  0  0  0  0  0  0
    3.2907    6.0811   -2.5840 H   0  0  0  0  0  0  0  0  0  0  0  0
    2.1839    5.6370   -0.5274 H   0  0  0  0  0  0  0  0  0  0  0  0
    0.5025    4.6399   -2.9081 H   0  0  0  0  0  0  0  0  0  0  0  0
   -0.1940    5.2575   -1.4133 H   0  0  0  0  0  0  0  0  0  0  0  0
    0.7744    6.3198   -2.4332 H   0  0  0  0  0  0  0  0  0  0  0  0
    0.3850    2.6510   -1.5588 H   0  0  0  0  0  0  0  0  0  0  0  0
   -2.1279    5.5580    1.5996 H   0  0  0  0  0  0  0  0  0  0  0  0
   -2.8760    4.4766    0.4254 H   0  0  0  0  0  0  0  0  0  0  0  0
   -2.8941    4.1955    3.4787 H   0  0  0  0  0  0  0  0  0  0  0  0
   -4.2736    4.6030    2.4562 H   0  0  0  0  0  0  0  0  0  0  0  0
   -4.2847    2.2018    3.1630 H   0  0  0  0  0  0  0  0  0  0  0  0
   -4.2200    2.3801    1.4118 H   0  0  0  0  0  0  0  0  0  0  0  0
   -2.5999    0.6661    2.1635 H   0  0  0  0  0  0  0  0  0  0  0  0
   -1.8777    1.8115    3.2808 H   0  0  0  0  0  0  0  0  0  0  0  0
   -0.4375    1.7036    1.3983 H   0  0  0  0  0  0  0  0  0  0  0  0
   -1.6602    0.1561   -1.9807 H   0  0  0  0  0  0  0  0  0  0  0  0
   -4.1489   -0.5426   -2.9110 H   0  0  0  0  0  0  0  0  0  0  0  0
   -4.0204    1.4047   -4.3709 H   0  0  0  0  0  0  0  0  0  0  0  0
   -2.4214    0.6993   -4.1297 H   0  0  0  0  0  0  0  0  0  0  0  0
   -2.8658    2.1947   -3.2861 H   0  0  0  0  0  0  0  0  0  0  0  0
   -4.6302    2.1175   -1.4604 H   0  0  0  0  0  0  0  0  0  0  0  0
   -5.6886    1.4037   -2.6572 H   0  0  0  0  0  0  0  0  0  0  0  0
   -5.0890    0.1513    0.0598 H   0  0  0  0  0  0  0  0  0  0  0  0
   -6.0590   -1.7042   -0.6767 H   0  0  0  0  0  0  0  0  0  0  0  0
   -6.2557   -1.0464   -2.2888 H   0  0  0  0  0  0  0  0  0  0  0  0
   -8.4383   -0.1316   -1.7446 H   0  0  0  0  0  0  0  0  0  0  0  0
   -8.3905   -1.8309   -1.3196 H   0  0  0  0  0  0  0  0  0  0  0  0
   -8.0640   -1.3548    1.0209 H   0  0  0  0  0  0  0  0  0  0  0  0
  -10.4735    1.3536   -0.4178 H   0  0  0  0  0  0  0  0  0  0  0  0
   -6.9811    0.3778    1.7636 H   0  0  0  0  0  0  0  0  0  0  0  0
   -8.7857    3.1352    2.9508 H   0  0  0  0  0  0  0  0  0  0  0  0
   -7.2165    3.1611    2.1269 H   0  0  0  0  0  0  0  0  0  0  0  0
   -7.5790    1.8955    3.3456 H   0  0  0  0  0  0  0  0  0  0  0  0
   -7.4423    1.8573   -0.8790 H   0  0  0  0  0  0  0  0  0  0  0  0
   -6.2519    2.2661    0.3195 H   0  0  0  0  0  0  0  0  0  0  0  0
   -3.6656   -1.5853   -0.4866 H   0  0  0  0  0  0  0  0  0  0  0  0
   -2.6339   -2.1048   -1.8380 H   0  0  0  0  0  0  0  0  0  0  0  0
   -2.3664   -3.7208    0.1674 H   0  0  0  0  0  0  0  0  0  0  0  0
   -2.7686   -3.6421    2.6504 H   0  0  0  0  0  0  0  0  0  0  0  0
   -3.5674   -2.2983    1.8195 H   0  0  0  0  0  0  0  0  0  0  0  0
   -2.0692   -2.0126    2.7042 H   0  0  0  0  0  0  0  0  0  0  0  0
    0.2335   -2.9061    1.6177 H   0  0  0  0  0  0  0  0  0  0  0  0
   -1.8739   -5.7347    0.2546 H   0  0  0  0  0  0  0  0  0  0  0  0
   -0.7107   -6.8973    0.8325 H   0  0  0  0  0  0  0  0  0  0  0  0
   -0.4904   -6.1416   -0.7585 H   0  0  0  0  0  0  0  0  0  0  0  0
    1.9652   -4.2770    1.5863 H   0  0  0  0  0  0  0  0  0  0  0  0
    0.7947   -6.7257    2.2660 H   0  0  0  0  0  0  0  0  0  0  0  0
    3.3693   -5.9444    0.5683 H   0  0  0  0  0  0  0  0  0  0  0  0
    2.1410   -9.0802   -0.2086 H   0  0  0  0  0  0  0  0  0  0  0  0
    2.5317   -8.1925    1.2760 H   0  0  0  0  0  0  0  0  0  0  0  0
    3.6410   -8.1371   -0.1329 H   0  0  0  0  0  0  0  0  0  0  0  0
    3.7578   -3.5474   -2.1849 H   0  0  0  0  0  0  0  0  0  0  0  0
    4.9140   -6.2232   -1.2156 H   0  0  0  0  0  0  0  0  0  0  0  0
    5.6899   -5.1161   -2.3490 H   0  0  0  0  0  0  0  0  0  0  0  0
    4.1862   -5.9248   -2.7940 H   0  0  0  0  0  0  0  0  0  0  0  0
    5.1988   -4.3303    0.3541 H   0  0  0  0  0  0  0  0  0  0  0  0
    3.7911   -3.2992    0.5243 H   0  0  0  0  0  0  0  0  0  0  0  0
    4.7465   -1.6260   -1.0241 H   0  0  0  0  0  0  0  0  0  0  0  0
    7.1952   -1.7488   -1.6150 H   0  0  0  0  0  0  0  0  0  0  0  0
    7.1806   -3.4639   -1.1506 H   0  0  0  0  0  0  0  0  0  0  0  0
    6.1732   -2.8818   -2.4893 H   0  0  0  0  0  0  0  0  0  0  0  0
    5.0677   -1.1149    1.2705 H   0  0  0  0  0  0  0  0  0  0  0  0
    7.8525   -2.3496    0.8752 H   0  0  0  0  0  0  0  0  0  0  0  0
    7.9610   -1.7573    3.2696 H   0  0  0  0  0  0  0  0  0  0  0  0
    7.5923    0.4815    3.9215 H   0  0  0  0  0  0  0  0  0  0  0  0
    5.7546    1.6536    2.6761 H   0  0  0  0  0  0  0  0  0  0  0  0
    7.8807    0.6426   -0.6609 H   0  0  0  0  0  0  0  0  0  0  0  0
    8.8985    0.7069    0.7860 H   0  0  0  0  0  0  0  0  0  0  0  0
    8.7378    2.1284   -0.2199 H   0  0  0  0  0  0  0  0  0  0  0  0
  1  2  1  0
  2  3  1  0
  3  4  1  0
  4  5  1  0
  5  6  1  0
  6  7  1  0
  7  8  1  0
  8  9  1  0
  8 10  1  0
 10 11  1  6
 10 12  1  0
 10 13  1  0
 13 14  2  0
 13 15  1  0
 15 16  2  0
 15 17  1  0
 17 18  1  0
 18 19  1  0
 19 20  1  0
 20 21  1  0
 21 22  1  0
 22 23  1  0
 23 24  2  0
 23 25  1  0
 25 26  1  0
 26 27  1  0
 27 28  1  0
 27 29  1  0
 29 30  1  0
 30 31  1  0
 31 32  1  0
 32 33  1  0
 33 34  1  0
 34 35  1  0
 35 36  2  0
 36 37  1  0
 37 38  2  0
 33 39  1  0
 39 40  1  0
 40 41  1  0
 39 42  1  0
 26 43  1  0
 43 44  1  0
 44 45  2  0
 44 46  1  0
 46 47  1  0
 46 48  1  0
 48 49  2  0
 49 50  1  0
 49 51  1  0
 51 52  1  0
 51 53  1  0
 53 54  1  0
 54 55  1  0
 53 56  1  0
 56 57  2  0
 56 58  1  0
 58 59  1  0
 58 60  1  0
 60 61  1  0
 61 62  1  0
 61 63  1  0
 63 64  2  0
 64 65  1  0
 65 66  2  0
 66 67  1  0
 67 68  2  0
 68 69  1  0
 68  3  1  0
 12  5  1  0
 22 17  1  0
 42 30  1  0
 38 34  1  0
  1 70  1  0
  1 71  1  0
  1 72  1  0
  3 73  1  1
  4 74  1  0
  4 75  1  0
  5 76  1  6
  6 77  1  0
  6 78  1  0
  7 79  1  0
  7 80  1  0
  8 81  1  1
  9 82  1  0
  9 83  1  0
  9 84  1  0
 11 85  1  0
 18 86  1  0
 18 87  1  0
 19 88  1  0
 19 89  1  0
 20 90  1  0
 20 91  1  0
 21 92  1  0
 21 93  1  0
 22 94  1  1
 26 95  1  6
 27 96  1  6
 28 97  1  0
 28 98  1  0
 28 99  1  0
 29100  1  0
 29101  1  0
 30102  1  1
 31103  1  0
 31104  1  0
 32105  1  0
 32106  1  0
 33107  1  1
 35108  1  0
 39109  1  1
 41110  1  0
 41111  1  0
 41112  1  0
 42113  1  0
 42114  1  0
 43115  1  0
 43116  1  0
 46117  1  6
 47118  1  0
 47119  1  0
 47120  1  0
 48121  1  0
 50122  1  0
 50123  1  0
 50124  1  0
 51125  1  1
 52126  1  0
 53127  1  1
 55128  1  0
 55129  1  0
 55130  1  0
 58131  1  6
 59132  1  0
 59133  1  0
 59134  1  0
 60135  1  0
 60136  1  0
 61137  1  6
 62138  1  0
 62139  1  0
 62140  1  0
 63141  1  0
 64142  1  0
 65143  1  0
 66144  1  0
 67145  1  0
 69146  1  0
 69147  1  0
 69148  1  0
M  END
$$$$
