
     RDKit          3D

 53 55  0  0  0  0  0  0  0  0999 V2000
   -4.9265    1.7695   -0.5990 C   0  0  0  0  0  0  0  0  0  0  0  0
   -3.8510    0.9259   -1.3074 C   0  0  0  0  0  0  0  0  0  0  0  0
   -3.9693    1.2453   -2.8171 C   0  0  0  0  0  0  0  0  0  0  0  0
   -2.4321    1.3158   -0.8447 C   0  0  0  0  0  0  0  0  0  0  0  0
   -2.0917    0.7216    0.5196 C   0  0  0  0  0  0  0  0  0  0  0  0
   -0.7705    1.1357    1.0087 N   0  0  0  0  0  0  0  0  0  0  0  0
    0.4846    0.7548    0.5662 C   0  0  0  0  0  0  0  0  0  0  0  0
    0.7536    0.0879   -0.6270 C   0  0  0  0  0  0  0  0  0  0  0  0
    2.0679   -0.2043   -1.0276 C   0  0  0  0  0  0  0  0  0  0  0  0
    3.1680    0.1874   -0.2601 C   0  0  0  0  0  0  0  0  0  0  0  0
    4.4591   -0.1645   -0.6839 N   0  0  0  0  0  0  0  0  0  0  0  0
    5.6616   -0.3570    0.0183 C   0  0  0  0  0  0  0  0  0  0  0  0
    6.8776   -0.1335   -0.6441 C   0  0  0  0  0  0  0  0  0  0  0  0
    8.0993   -0.2753    0.0204 C   0  0  0  0  0  0  0  0  0  0  0  0
    8.1224   -0.6397    1.3635 C   0  0  0  0  0  0  0  0  0  0  0  0
    6.9254   -0.8608    2.0388 C   0  0  0  0  0  0  0  0  0  0  0  0
    5.7058   -0.7156    1.3702 C   0  0  0  0  0  0  0  0  0  0  0  0
    2.9111    0.8770    0.9221 C   0  0  0  0  0  0  0  0  0  0  0  0
    1.5968    1.1674    1.3156 C   0  0  0  0  0  0  0  0  0  0  0  0
   -2.2992   -0.7904    0.5453 C   0  0  0  0  0  0  0  0  0  0  0  0
   -3.7180   -1.1873    0.0892 C   0  0  0  0  0  0  0  0  0  0  0  0
   -4.7533   -0.9578    1.2052 C   0  0  0  0  0  0  0  0  0  0  0  0
   -3.7212   -2.7068   -0.2047 C   0  0  0  0  0  0  0  0  0  0  0  0
   -4.1099   -0.5207   -1.1677 N   0  0  0  0  0  0  0  0  0  0  0  0
   -5.9347    1.4195   -0.8502 H   0  0  0  0  0  0  0  0  0  0  0  0
   -4.8312    1.7677    0.4873 H   0  0  0  0  0  0  0  0  0  0  0  0
   -4.8630    2.8197   -0.9093 H   0  0  0  0  0  0  0  0  0  0  0  0
   -3.7861    2.3087   -3.0110 H   0  0  0  0  0  0  0  0  0  0  0  0
   -3.2421    0.6768   -3.4095 H   0  0  0  0  0  0  0  0  0  0  0  0
   -4.9688    1.0056   -3.1997 H   0  0  0  0  0  0  0  0  0  0  0  0
   -1.7100    0.9835   -1.5966 H   0  0  0  0  0  0  0  0  0  0  0  0
   -2.3341    2.4090   -0.8058 H   0  0  0  0  0  0  0  0  0  0  0  0
   -2.7912    1.1601    1.2409 H   0  0  0  0  0  0  0  0  0  0  0  0
   -0.7788    1.3242    2.0086 H   0  0  0  0  0  0  0  0  0  0  0  0
   -0.0424   -0.2405   -1.2829 H   0  0  0  0  0  0  0  0  0  0  0  0
    2.2169   -0.7530   -1.9541 H   0  0  0  0  0  0  0  0  0  0  0  0
    4.5444   -0.2855   -1.6863 H   0  0  0  0  0  0  0  0  0  0  0  0
    6.8829    0.1676   -1.6886 H   0  0  0  0  0  0  0  0  0  0  0  0
    9.0300   -0.0959   -0.5112 H   0  0  0  0  0  0  0  0  0  0  0  0
    9.0703   -0.7512    1.8829 H   0  0  0  0  0  0  0  0  0  0  0  0
    6.9360   -1.1510    3.0860 H   0  0  0  0  0  0  0  0  0  0  0  0
    4.7876   -0.9205    1.9137 H   0  0  0  0  0  0  0  0  0  0  0  0
    3.7290    1.2388    1.5386 H   0  0  0  0  0  0  0  0  0  0  0  0
    1.4532    1.7377    2.2307 H   0  0  0  0  0  0  0  0  0  0  0  0
   -2.1045   -1.1739    1.5558 H   0  0  0  0  0  0  0  0  0  0  0  0
   -1.5682   -1.2831   -0.1044 H   0  0  0  0  0  0  0  0  0  0  0  0
   -4.5803   -1.6448    2.0426 H   0  0  0  0  0  0  0  0  0  0  0  0
   -5.7726   -1.1393    0.8445 H   0  0  0  0  0  0  0  0  0  0  0  0
   -4.7197    0.0478    1.6258 H   0  0  0  0  0  0  0  0  0  0  0  0
   -3.4344   -3.2811    0.6841 H   0  0  0  0  0  0  0  0  0  0  0  0
   -4.7144   -3.0519   -0.5165 H   0  0  0  0  0  0  0  0  0  0  0  0
   -3.0142   -2.9667   -1.0018 H   0  0  0  0  0  0  0  0  0  0  0  0
   -3.6500   -1.0032   -1.9423 H   0  0  0  0  0  0  0  0  0  0  0  0
  1  2  1  0
  2  3  1  0
  2  4  1  0
  4  5  1  0
  5  6  1  0
  6  7  1  0
  7  8  2  0
  8  9  1  0
  9 10  2  0
 10 11  1  0
 11 12  1  0
 12 13  2  0
 13 14  1  0
 14 15  2  0
 15 16  1  0
 16 17  2  0
 10 18  1  0
 18 19  2  0
  5 20  1  0
 20 21  1  0
 21 22  1  0
 21 23  1  0
 21 24  1  0
 24  2  1  0
 19  7  1  0
 17 12  1  0
  1 25  1  0
  1 26  1  0
  1 27  1  0
  3 28  1  0
  3 29  1  0
  3 30  1  0
  4 31  1  0
  4 32  1  0
  5 33  1  0
  6 34  1  0
  8 35  1  0
  9 36  1  0
 11 37  1  0
 13 38  1  0
 14 39  1  0
 15 40  1  0
 16 41  1  0
 17 42  1  0
 18 43  1  0
 19 44  1  0
 20 45  1  0
 20 46  1  0
 22 47  1  0
 22 48  1  0
 22 49  1  0
 23 50  1  0
 23 51  1  0
 23 52  1  0
 24 53  1  0
M  END
$$$$
