
     RDKit          3D

 59 62  0  0  0  0  0  0  0  0999 V2000
    7.1300    3.6479   -1.6059 C   0  0  0  0  0  0  0  0  0  0  0  0
    6.1182    2.7998   -1.3814 C   0  0  0  0  0  0  0  0  0  0  0  0
    6.3737    1.4908   -0.7271 C   0  0  0  0  0  0  0  0  0  0  0  0
    7.4600    0.9342   -0.8807 O   0  0  0  0  0  0  0  0  0  0  0  0
    5.3482    0.9425    0.0309 N   0  0  0  0  0  0  0  0  0  0  0  0
    4.1231    1.6211    0.4492 C   0  0  0  0  0  0  0  0  0  0  0  0
    2.9080    0.7055    0.3247 C   0  0  0  0  0  0  0  0  0  0  0  0
    3.1233   -0.6934    0.9451 C   0  0  0  0  0  0  0  0  0  0  0  0
    2.0335   -1.0438    1.9743 C   0  0  0  0  0  0  0  0  0  0  0  0
    0.7084   -1.0997    1.3609 N   0  0  0  0  0  0  0  0  0  0  0  0
    0.3416   -2.3084    0.7326 C   0  0  0  0  0  0  0  0  0  0  0  0
    1.2713   -3.2719    0.5914 N   0  0  0  0  0  0  0  0  0  0  0  0
    0.9099   -4.3755   -0.0708 C   0  0  0  0  0  0  0  0  0  0  0  0
   -0.2899   -4.6216   -0.6031 N   0  0  0  0  0  0  0  0  0  0  0  0
   -1.2039   -3.6552   -0.4541 C   0  0  0  0  0  0  0  0  0  0  0  0
   -2.4324   -3.9175   -1.0681 N   0  0  0  0  0  0  0  0  0  0  0  0
   -0.9518   -2.4514    0.2098 C   0  0  0  0  0  0  0  0  0  0  0  0
   -1.9862   -1.4155    0.3569 C   0  0  0  0  0  0  0  0  0  0  0  0
   -2.1884   -0.4549   -0.6482 C   0  0  0  0  0  0  0  0  0  0  0  0
   -3.1765    0.5236   -0.5126 C   0  0  0  0  0  0  0  0  0  0  0  0
   -3.9829    0.5408    0.6270 C   0  0  0  0  0  0  0  0  0  0  0  0
   -4.9504    1.4978    0.8317 O   0  0  0  0  0  0  0  0  0  0  0  0
   -5.8498    1.7061   -0.1899 C   0  0  0  0  0  0  0  0  0  0  0  0
   -6.5253    0.6606   -0.8233 C   0  0  0  0  0  0  0  0  0  0  0  0
   -7.4545    0.9423   -1.8250 C   0  0  0  0  0  0  0  0  0  0  0  0
   -7.7154    2.2662   -2.1833 C   0  0  0  0  0  0  0  0  0  0  0  0
   -7.0523    3.3096   -1.5375 C   0  0  0  0  0  0  0  0  0  0  0  0
   -6.1253    3.0307   -0.5334 C   0  0  0  0  0  0  0  0  0  0  0  0
   -3.7811   -0.3896    1.6447 C   0  0  0  0  0  0  0  0  0  0  0  0
   -2.7930   -1.3678    1.5079 C   0  0  0  0  0  0  0  0  0  0  0  0
    4.5121   -0.8232    1.5858 C   0  0  0  0  0  0  0  0  0  0  0  0
    5.6054   -0.3662    0.6246 C   0  0  0  0  0  0  0  0  0  0  0  0
    6.9646    4.5885   -2.1181 H   0  0  0  0  0  0  0  0  0  0  0  0
    8.1445    3.4138   -1.2929 H   0  0  0  0  0  0  0  0  0  0  0  0
    5.1210    3.0240   -1.7322 H   0  0  0  0  0  0  0  0  0  0  0  0
    4.2644    1.9266    1.4934 H   0  0  0  0  0  0  0  0  0  0  0  0
    3.9433    2.5382   -0.1132 H   0  0  0  0  0  0  0  0  0  0  0  0
    2.0402    1.2129    0.7613 H   0  0  0  0  0  0  0  0  0  0  0  0
    2.6769    0.5729   -0.7407 H   0  0  0  0  0  0  0  0  0  0  0  0
    3.0784   -1.4192    0.1219 H   0  0  0  0  0  0  0  0  0  0  0  0
    2.0127   -0.2600    2.7425 H   0  0  0  0  0  0  0  0  0  0  0  0
    2.2661   -1.9740    2.5081 H   0  0  0  0  0  0  0  0  0  0  0  0
   -0.0262   -0.8200    2.0048 H   0  0  0  0  0  0  0  0  0  0  0  0
    1.6649   -5.1450   -0.1879 H   0  0  0  0  0  0  0  0  0  0  0  0
   -2.4069   -4.8687   -1.4257 H   0  0  0  0  0  0  0  0  0  0  0  0
   -3.2159   -3.7475   -0.4493 H   0  0  0  0  0  0  0  0  0  0  0  0
   -1.5710   -0.4664   -1.5453 H   0  0  0  0  0  0  0  0  0  0  0  0
   -3.3067    1.2657   -1.2962 H   0  0  0  0  0  0  0  0  0  0  0  0
   -6.3397   -0.3711   -0.5405 H   0  0  0  0  0  0  0  0  0  0  0  0
   -7.9791    0.1310   -2.3224 H   0  0  0  0  0  0  0  0  0  0  0  0
   -8.4405    2.4848   -2.9629 H   0  0  0  0  0  0  0  0  0  0  0  0
   -7.2612    4.3411   -1.8131 H   0  0  0  0  0  0  0  0  0  0  0  0
   -5.6150    3.8436   -0.0234 H   0  0  0  0  0  0  0  0  0  0  0  0
   -4.3969   -0.3573    2.5408 H   0  0  0  0  0  0  0  0  0  0  0  0
   -2.6572   -2.0972    2.3034 H   0  0  0  0  0  0  0  0  0  0  0  0
    4.6978   -1.8624    1.8816 H   0  0  0  0  0  0  0  0  0  0  0  0
    4.5573   -0.2239    2.5046 H   0  0  0  0  0  0  0  0  0  0  0  0
    6.5686   -0.3353    1.1482 H   0  0  0  0  0  0  0  0  0  0  0  0
    5.7082   -1.0824   -0.1996 H   0  0  0  0  0  0  0  0  0  0  0  0
  1  2  2  3
  2  3  1  0
  3  4  2  0
  3  5  1  0
  5  6  1  0
  6  7  1  0
  7  8  1  0
  8  9  1  0
  9 10  1  0
 10 11  1  0
 11 12  2  0
 12 13  1  0
 13 14  2  0
 14 15  1  0
 15 16  1  0
 15 17  2  0
 17 18  1  0
 18 19  2  0
 19 20  1  0
 20 21  2  0
 21 22  1  0
 22 23  1  0
 23 24  2  0
 24 25  1  0
 25 26  2  0
 26 27  1  0
 27 28  2  0
 21 29  1  0
 29 30  2  0
  8 31  1  0
 31 32  1  0
 32  5  1  0
 17 11  1  0
 30 18  1  0
 28 23  1  0
  1 33  1  0
  1 34  1  0
  2 35  1  0
  6 36  1  0
  6 37  1  0
  7 38  1  0
  7 39  1  0
  8 40  1  0
  9 41  1  0
  9 42  1  0
 10 43  1  0
 13 44  1  0
 16 45  1  0
 16 46  1  0
 19 47  1  0
 20 48  1  0
 24 49  1  0
 25 50  1  0
 26 51  1  0
 27 52  1  0
 28 53  1  0
 29 54  1  0
 30 55  1  0
 31 56  1  0
 31 57  1  0
 32 58  1  0
 32 59  1  0
M  END
$$$$
