
     RDKit          3D

 38 40  0  0  0  0  0  0  0  0999 V2000
   -5.5708    1.2263    0.6582 C   0  0  0  0  0  0  0  0  0  0  0  0
   -4.2344    0.6671    0.2707 C   0  0  0  0  0  0  0  0  0  0  0  0
   -4.1466   -0.4421   -0.5700 C   0  0  0  0  0  0  0  0  0  0  0  0
   -2.9003   -0.9440   -0.9583 C   0  0  0  0  0  0  0  0  0  0  0  0
   -1.7150   -0.3428   -0.5248 C   0  0  0  0  0  0  0  0  0  0  0  0
   -0.4403   -0.8270   -0.8917 N   0  0  0  0  0  0  0  0  0  0  0  0
   -0.1193   -1.9011   -1.7007 C   0  0  0  0  0  0  0  0  0  0  0  0
   -0.9126   -2.6247   -2.2986 O   0  0  0  0  0  0  0  0  0  0  0  0
    1.3927   -2.1288   -1.8699 C   0  0  0  0  0  0  0  0  0  0  0  0
    2.2374   -1.4179   -0.9020 N   0  0  0  0  0  0  0  0  0  0  0  0
    2.4424   -1.9839    0.3587 C   0  0  0  0  0  0  0  0  0  0  0  0
    3.1930   -1.3963    1.3044 C   0  0  0  0  0  0  0  0  0  0  0  0
    3.7829   -0.1559    0.9634 C   0  0  0  0  0  0  0  0  0  0  0  0
    4.7602    0.7547    2.0189 S   0  0  0  0  0  0  0  0  0  0  0  0
    4.9890    1.9790    0.8415 C   0  0  0  0  0  0  0  0  0  0  0  0
    4.3283    1.6963   -0.3348 C   0  0  0  0  0  0  0  0  0  0  0  0
    3.6271    0.4548   -0.2658 C   0  0  0  0  0  0  0  0  0  0  0  0
    2.8082   -0.1872   -1.2912 C   0  0  0  0  0  0  0  0  0  0  0  0
    2.6072    0.3366   -2.3819 O   0  0  0  0  0  0  0  0  0  0  0  0
   -1.7920    0.7908    0.3140 C   0  0  0  0  0  0  0  0  0  0  0  0
   -0.5658    1.5065    0.8179 C   0  0  0  0  0  0  0  0  0  0  0  0
   -3.0540    1.2840    0.6966 C   0  0  0  0  0  0  0  0  0  0  0  0
   -6.3287    0.4369    0.6976 H   0  0  0  0  0  0  0  0  0  0  0  0
   -5.5286    1.6850    1.6517 H   0  0  0  0  0  0  0  0  0  0  0  0
   -5.8851    1.9821   -0.0681 H   0  0  0  0  0  0  0  0  0  0  0  0
   -5.0476   -0.9307   -0.9346 H   0  0  0  0  0  0  0  0  0  0  0  0
   -2.8955   -1.8121   -1.6094 H   0  0  0  0  0  0  0  0  0  0  0  0
    0.3518   -0.3228   -0.5191 H   0  0  0  0  0  0  0  0  0  0  0  0
    1.6567   -1.8254   -2.8889 H   0  0  0  0  0  0  0  0  0  0  0  0
    1.5895   -3.2035   -1.7776 H   0  0  0  0  0  0  0  0  0  0  0  0
    1.9592   -2.9388    0.5534 H   0  0  0  0  0  0  0  0  0  0  0  0
    3.3438   -1.8469    2.2798 H   0  0  0  0  0  0  0  0  0  0  0  0
    5.5961    2.8448    1.0692 H   0  0  0  0  0  0  0  0  0  0  0  0
    4.3440    2.3428   -1.2049 H   0  0  0  0  0  0  0  0  0  0  0  0
    0.0465    0.8309    1.4240 H   0  0  0  0  0  0  0  0  0  0  0  0
   -0.8270    2.3640    1.4472 H   0  0  0  0  0  0  0  0  0  0  0  0
    0.0254    1.8857   -0.0220 H   0  0  0  0  0  0  0  0  0  0  0  0
   -3.1181    2.1632    1.3357 H   0  0  0  0  0  0  0  0  0  0  0  0
  1  2  1  0
  2  3  2  0
  3  4  1  0
  4  5  2  0
  5  6  1  0
  6  7  1  0
  7  8  2  0
  7  9  1  0
  9 10  1  0
 10 11  1  0
 11 12  2  0
 12 13  1  0
 13 14  1  0
 14 15  1  0
 15 16  2  0
 16 17  1  0
 17 18  1  0
 18 19  2  0
  5 20  1  0
 20 21  1  0
 20 22  2  0
 22  2  1  0
 18 10  1  0
 17 13  2  0
  1 23  1  0
  1 24  1  0
  1 25  1  0
  3 26  1  0
  4 27  1  0
  6 28  1  0
  9 29  1  0
  9 30  1  0
 11 31  1  0
 12 32  1  0
 15 33  1  0
 16 34  1  0
 21 35  1  0
 21 36  1  0
 21 37  1  0
 22 38  1  0
M  END
$$$$
