
     RDKit          3D

 58 59  0  0  0  0  0  0  0  0999 V2000
    6.5275    3.0423   -0.7748 C   0  0  0  0  0  0  0  0  0  0  0  0
    6.6214    1.6585   -1.4247 C   0  0  0  0  0  0  0  0  0  0  0  0
    8.0915    1.3009   -1.6566 C   0  0  0  0  0  0  0  0  0  0  0  0
    5.9472    0.5811   -0.5558 C   0  0  0  0  0  0  0  0  0  0  0  0
    4.4242    0.6285   -0.5879 C   0  0  0  0  0  0  0  0  0  0  0  0
    3.8186    1.4369   -1.2928 O   0  0  0  0  0  0  0  0  0  0  0  0
    3.7470   -0.2857    0.2149 N   0  0  0  0  0  0  0  0  0  0  0  0
    4.3659   -1.3535    0.9941 C   0  0  0  0  0  0  0  0  0  0  0  0
    3.7883   -1.4043    2.4059 C   0  0  0  0  0  0  0  0  0  0  0  0
    2.2607   -1.2921    2.4492 C   0  0  0  0  0  0  0  0  0  0  0  0
    1.6226   -1.3235    1.0567 C   0  0  0  0  0  0  0  0  0  0  0  0
    0.1075   -1.0984    1.1410 C   0  0  0  0  0  0  0  0  0  0  0  0
   -0.4498   -1.2729   -0.1612 O   0  0  0  0  0  0  0  0  0  0  0  0
   -1.7981   -1.0964   -0.2970 C   0  0  0  0  0  0  0  0  0  0  0  0
   -2.2821   -1.2933   -1.5929 C   0  0  0  0  0  0  0  0  0  0  0  0
   -3.6423   -1.1469   -1.8755 C   0  0  0  0  0  0  0  0  0  0  0  0
   -4.5321   -0.7858   -0.8600 C   0  0  0  0  0  0  0  0  0  0  0  0
   -5.9729   -0.6391   -1.2001 C   0  0  0  0  0  0  0  0  0  0  0  0
   -6.4670   -1.3274   -2.0852 O   0  0  0  0  0  0  0  0  0  0  0  0
   -6.6727    0.3141   -0.4892 N   0  0  0  0  0  0  0  0  0  0  0  0
   -8.1031    0.5127   -0.6742 C   0  0  0  0  0  0  0  0  0  0  0  0
   -8.8925   -0.4834    0.1728 C   0  0  0  0  0  0  0  0  0  0  0  0
   -8.4857    1.9466   -0.3203 C   0  0  0  0  0  0  0  0  0  0  0  0
   -4.0540   -0.6023    0.4431 C   0  0  0  0  0  0  0  0  0  0  0  0
   -2.6895   -0.7554    0.7216 C   0  0  0  0  0  0  0  0  0  0  0  0
    2.2846   -0.2811    0.1429 C   0  0  0  0  0  0  0  0  0  0  0  0
    5.4871    3.3480   -0.6287 H   0  0  0  0  0  0  0  0  0  0  0  0
    7.0227    3.0562    0.2024 H   0  0  0  0  0  0  0  0  0  0  0  0
    7.0075    3.7982   -1.4057 H   0  0  0  0  0  0  0  0  0  0  0  0
    6.1281    1.7025   -2.4039 H   0  0  0  0  0  0  0  0  0  0  0  0
    8.6395    1.2380   -0.7101 H   0  0  0  0  0  0  0  0  0  0  0  0
    8.1820    0.3352   -2.1657 H   0  0  0  0  0  0  0  0  0  0  0  0
    8.5813    2.0538   -2.2832 H   0  0  0  0  0  0  0  0  0  0  0  0
    6.2426   -0.4095   -0.9235 H   0  0  0  0  0  0  0  0  0  0  0  0
    6.2851    0.6875    0.4817 H   0  0  0  0  0  0  0  0  0  0  0  0
    4.1751   -2.2947    0.4644 H   0  0  0  0  0  0  0  0  0  0  0  0
    5.4505   -1.2450    1.0545 H   0  0  0  0  0  0  0  0  0  0  0  0
    4.1081   -2.3332    2.8930 H   0  0  0  0  0  0  0  0  0  0  0  0
    4.2129   -0.5852    3.0006 H   0  0  0  0  0  0  0  0  0  0  0  0
    1.8535   -2.1007    3.0684 H   0  0  0  0  0  0  0  0  0  0  0  0
    1.9911   -0.3563    2.9565 H   0  0  0  0  0  0  0  0  0  0  0  0
    1.7939   -2.3153    0.6153 H   0  0  0  0  0  0  0  0  0  0  0  0
   -0.0975   -0.0854    1.5095 H   0  0  0  0  0  0  0  0  0  0  0  0
   -0.3288   -1.8344    1.8278 H   0  0  0  0  0  0  0  0  0  0  0  0
   -1.5950   -1.5663   -2.3908 H   0  0  0  0  0  0  0  0  0  0  0  0
   -4.0039   -1.3106   -2.8886 H   0  0  0  0  0  0  0  0  0  0  0  0
   -6.1948    0.8788    0.1989 H   0  0  0  0  0  0  0  0  0  0  0  0
   -8.3402    0.3368   -1.7307 H   0  0  0  0  0  0  0  0  0  0  0  0
   -8.6666   -0.3634    1.2387 H   0  0  0  0  0  0  0  0  0  0  0  0
   -8.6452   -1.5148   -0.1014 H   0  0  0  0  0  0  0  0  0  0  0  0
   -9.9699   -0.3470    0.0335 H   0  0  0  0  0  0  0  0  0  0  0  0
   -9.5546    2.1182   -0.4829 H   0  0  0  0  0  0  0  0  0  0  0  0
   -7.9298    2.6591   -0.9399 H   0  0  0  0  0  0  0  0  0  0  0  0
   -8.2580    2.1734    0.7276 H   0  0  0  0  0  0  0  0  0  0  0  0
   -4.7317   -0.3700    1.2595 H   0  0  0  0  0  0  0  0  0  0  0  0
   -2.3590   -0.6097    1.7447 H   0  0  0  0  0  0  0  0  0  0  0  0
    1.9499    0.7302    0.4062 H   0  0  0  0  0  0  0  0  0  0  0  0
    1.9986   -0.4543   -0.9018 H   0  0  0  0  0  0  0  0  0  0  0  0
  1  2  1  0
  2  3  1  0
  2  4  1  0
  4  5  1  0
  5  6  2  0
  5  7  1  0
  7  8  1  0
  8  9  1  0
  9 10  1  0
 10 11  1  0
 11 12  1  0
 12 13  1  0
 13 14  1  0
 14 15  2  0
 15 16  1  0
 16 17  2  0
 17 18  1  0
 18 19  2  0
 18 20  1  0
 20 21  1  0
 21 22  1  0
 21 23  1  0
 17 24  1  0
 24 25  2  0
 11 26  1  0
 26  7  1  0
 25 14  1  0
  1 27  1  0
  1 28  1  0
  1 29  1  0
  2 30  1  0
  3 31  1  0
  3 32  1  0
  3 33  1  0
  4 34  1  0
  4 35  1  0
  8 36  1  0
  8 37  1  0
  9 38  1  0
  9 39  1  0
 10 40  1  0
 10 41  1  0
 11 42  1  0
 12 43  1  0
 12 44  1  0
 15 45  1  0
 16 46  1  0
 20 47  1  0
 21 48  1  0
 22 49  1  0
 22 50  1  0
 22 51  1  0
 23 52  1  0
 23 53  1  0
 23 54  1  0
 24 55  1  0
 25 56  1  0
 26 57  1  0
 26 58  1  0
M  END
$$$$
