
     RDKit          3D

 54 58  0  0  0  0  0  0  0  0999 V2000
   -3.7978   -2.3969    0.5276 C   0  0  0  0  0  0  0  0  0  0  0  0
   -3.5369   -0.9615    0.2170 C   0  0  0  0  0  0  0  0  0  0  0  0
   -4.4821    0.0085   -0.0389 C   0  0  0  0  0  0  0  0  0  0  0  0
   -3.8258    1.2390   -0.2833 C   0  0  0  0  0  0  0  0  0  0  0  0
   -4.2669    2.5519   -0.5917 C   0  0  0  0  0  0  0  0  0  0  0  0
   -5.7011    2.9164   -0.6552 C   0  0  0  0  0  0  0  0  0  0  0  0
   -6.5318    2.3503    0.2710 N   0  0  0  0  0  0  0  0  0  0  0  0
   -6.1194    3.7447   -1.4544 O   0  0  0  0  0  0  0  0  0  0  0  0
   -3.3317    3.5615   -0.8586 C   0  0  0  0  0  0  0  0  0  0  0  0
   -1.9739    3.2949   -0.7825 C   0  0  0  0  0  0  0  0  0  0  0  0
   -1.5185    2.0169   -0.4501 C   0  0  0  0  0  0  0  0  0  0  0  0
   -2.4467    0.9803   -0.2092 C   0  0  0  0  0  0  0  0  0  0  0  0
   -2.2679   -0.3782    0.1180 N   0  0  0  0  0  0  0  0  0  0  0  0
   -1.0005   -1.0569    0.3088 C   0  0  0  0  0  0  0  0  0  0  0  0
   -1.0273   -2.3586    0.6462 N   0  0  0  0  0  0  0  0  0  0  0  0
    0.1514   -2.9794    0.8367 C   0  0  0  0  0  0  0  0  0  0  0  0
    1.3677   -2.3381    0.6986 C   0  0  0  0  0  0  0  0  0  0  0  0
    1.3180   -1.0084    0.3083 C   0  0  0  0  0  0  0  0  0  0  0  0
    2.5211   -0.3079    0.1258 N   0  0  0  0  0  0  0  0  0  0  0  0
    2.3887    1.0883   -0.2692 C   0  0  0  0  0  0  0  0  0  0  0  0
    3.7686    1.6679   -0.4830 C   0  0  0  0  0  0  0  0  0  0  0  0
    4.2132    2.0082   -1.7687 C   0  0  0  0  0  0  0  0  0  0  0  0
    5.4918    2.5359   -1.9580 C   0  0  0  0  0  0  0  0  0  0  0  0
    6.3388    2.7249   -0.8672 C   0  0  0  0  0  0  0  0  0  0  0  0
    5.9102    2.3855    0.4146 C   0  0  0  0  0  0  0  0  0  0  0  0
    4.6323    1.8591    0.6063 C   0  0  0  0  0  0  0  0  0  0  0  0
    0.1456   -0.3685    0.1368 N   0  0  0  0  0  0  0  0  0  0  0  0
    2.6540   -3.0787    0.9222 C   0  0  0  0  0  0  0  0  0  0  0  0
    2.4847   -4.3565    1.5526 O   0  0  0  0  0  0  0  0  0  0  0  0
    1.4232   -5.1040    0.9588 C   0  0  0  0  0  0  0  0  0  0  0  0
    0.1011   -4.4193    1.2667 C   0  0  0  0  0  0  0  0  0  0  0  0
   -3.4281   -2.6593    1.5235 H   0  0  0  0  0  0  0  0  0  0  0  0
   -3.3470   -3.0527   -0.2234 H   0  0  0  0  0  0  0  0  0  0  0  0
   -4.8747   -2.5999    0.5228 H   0  0  0  0  0  0  0  0  0  0  0  0
   -5.5508   -0.1672   -0.0575 H   0  0  0  0  0  0  0  0  0  0  0  0
   -6.1631    1.8942    1.0945 H   0  0  0  0  0  0  0  0  0  0  0  0
   -7.4701    2.7253    0.3178 H   0  0  0  0  0  0  0  0  0  0  0  0
   -3.6727    4.5623   -1.1160 H   0  0  0  0  0  0  0  0  0  0  0  0
   -1.2557    4.0876   -0.9802 H   0  0  0  0  0  0  0  0  0  0  0  0
   -0.4504    1.8461   -0.3943 H   0  0  0  0  0  0  0  0  0  0  0  0
    3.1278   -0.8042   -0.5203 H   0  0  0  0  0  0  0  0  0  0  0  0
    1.8811    1.6722    0.5088 H   0  0  0  0  0  0  0  0  0  0  0  0
    1.8084    1.1780   -1.1961 H   0  0  0  0  0  0  0  0  0  0  0  0
    3.5667    1.8671   -2.6320 H   0  0  0  0  0  0  0  0  0  0  0  0
    5.8277    2.8012   -2.9573 H   0  0  0  0  0  0  0  0  0  0  0  0
    7.3338    3.1361   -1.0160 H   0  0  0  0  0  0  0  0  0  0  0  0
    6.5710    2.5294    1.2655 H   0  0  0  0  0  0  0  0  0  0  0  0
    4.3081    1.5901    1.6100 H   0  0  0  0  0  0  0  0  0  0  0  0
    3.3189   -2.4990    1.5709 H   0  0  0  0  0  0  0  0  0  0  0  0
    3.1610   -3.2394   -0.0366 H   0  0  0  0  0  0  0  0  0  0  0  0
    1.5975   -5.2029   -0.1199 H   0  0  0  0  0  0  0  0  0  0  0  0
    1.4336   -6.1093    1.3918 H   0  0  0  0  0  0  0  0  0  0  0  0
   -0.0841   -4.4364    2.3473 H   0  0  0  0  0  0  0  0  0  0  0  0
   -0.7211   -4.9407    0.7656 H   0  0  0  0  0  0  0  0  0  0  0  0
  1  2  1  0
  2  3  2  0
  3  4  1  0
  4  5  2  0
  5  6  1  0
  6  7  1  0
  6  8  2  0
  5  9  1  0
  9 10  2  0
 10 11  1  0
 11 12  2  0
 12 13  1  0
 13 14  1  0
 14 15  2  0
 15 16  1  0
 16 17  2  0
 17 18  1  0
 18 19  1  0
 19 20  1  0
 20 21  1  0
 21 22  2  0
 22 23  1  0
 23 24  2  0
 24 25  1  0
 25 26  2  0
 18 27  2  0
 17 28  1  0
 28 29  1  0
 29 30  1  0
 30 31  1  0
 13  2  1  0
 27 14  1  0
 12  4  1  0
 31 16  1  0
 26 21  1  0
  1 32  1  0
  1 33  1  0
  1 34  1  0
  3 35  1  0
  7 36  1  0
  7 37  1  0
  9 38  1  0
 10 39  1  0
 11 40  1  0
 19 41  1  0
 20 42  1  0
 20 43  1  0
 22 44  1  0
 23 45  1  0
 24 46  1  0
 25 47  1  0
 26 48  1  0
 28 49  1  0
 28 50  1  0
 30 51  1  0
 30 52  1  0
 31 53  1  0
 31 54  1  0
M  END
$$$$
