
     RDKit          3D

 47 49  0  0  0  0  0  0  0  0999 V2000
    3.2803   -2.1885   -2.7674 N   0  0  0  0  0  0  0  0  0  0  0  0
    3.1292   -0.9568   -1.9449 C   0  0  1  0  0  0  0  0  0  0  0  0
    1.7215   -0.9059   -1.3300 C   0  0  0  0  0  0  0  0  0  0  0  0
    1.2799    0.8002   -0.8159 S   0  0  0  0  0  0  0  0  0  0  0  0
   -0.4038    0.4911    0.1422 C   0  0  0  0  0  0  0  0  0  0  0  0
   -0.1876   -0.2841    1.4822 C   0  0  0  0  0  0  0  0  0  0  0  0
    1.0675   -0.4599    2.0923 C   0  0  0  0  0  0  0  0  0  0  0  0
    1.1996   -1.1297    3.3142 C   0  0  0  0  0  0  0  0  0  0  0  0
    0.0772   -1.6166    3.9746 C   0  0  0  0  0  0  0  0  0  0  0  0
   -1.1820   -1.4224    3.4212 C   0  0  0  0  0  0  0  0  0  0  0  0
   -1.3124   -0.7559    2.1996 C   0  0  0  0  0  0  0  0  0  0  0  0
   -1.2838   -0.2559   -0.9197 C   0  0  0  0  0  0  0  0  0  0  0  0
   -1.5466   -1.6389   -0.8511 C   0  0  0  0  0  0  0  0  0  0  0  0
   -2.3048   -2.2847   -1.8330 C   0  0  0  0  0  0  0  0  0  0  0  0
   -2.8013   -1.5702   -2.9186 C   0  0  0  0  0  0  0  0  0  0  0  0
   -2.5291   -0.2115   -3.0332 C   0  0  0  0  0  0  0  0  0  0  0  0
   -1.7716    0.4347   -2.0533 C   0  0  0  0  0  0  0  0  0  0  0  0
   -0.9829    1.8974    0.5448 C   0  0  0  0  0  0  0  0  0  0  0  0
   -2.3731    2.1436    0.5571 C   0  0  0  0  0  0  0  0  0  0  0  0
   -2.8937    3.3756    0.9645 C   0  0  0  0  0  0  0  0  0  0  0  0
   -2.0410    4.3851    1.3971 C   0  0  0  0  0  0  0  0  0  0  0  0
   -0.6697    4.1579    1.4376 C   0  0  0  0  0  0  0  0  0  0  0  0
   -0.1485    2.9262    1.0297 C   0  0  0  0  0  0  0  0  0  0  0  0
    4.2289   -0.9451   -0.8736 C   0  0  0  0  0  0  0  0  0  0  0  0
    4.1190   -0.7554    0.3260 O   0  0  0  0  0  0  0  0  0  0  0  0
    5.4577   -1.1616   -1.4087 O   0  0  0  0  0  0  0  0  0  0  0  0
    4.2537   -2.2244   -3.0825 H   0  0  0  0  0  0  0  0  0  0  0  0
    2.7126   -2.0928   -3.6086 H   0  0  0  0  0  0  0  0  0  0  0  0
    3.2976   -0.0930   -2.5996 H   0  0  0  0  0  0  0  0  0  0  0  0
    1.6443   -1.5931   -0.4824 H   0  0  0  0  0  0  0  0  0  0  0  0
    0.9980   -1.2096   -2.0925 H   0  0  0  0  0  0  0  0  0  0  0  0
    1.9792   -0.0719    1.6462 H   0  0  0  0  0  0  0  0  0  0  0  0
    2.1873   -1.2580    3.7508 H   0  0  0  0  0  0  0  0  0  0  0  0
    0.1841   -2.1308    4.9255 H   0  0  0  0  0  0  0  0  0  0  0  0
   -2.0667   -1.7798    3.9414 H   0  0  0  0  0  0  0  0  0  0  0  0
   -2.3165   -0.6041    1.8068 H   0  0  0  0  0  0  0  0  0  0  0  0
   -1.1478   -2.2486   -0.0430 H   0  0  0  0  0  0  0  0  0  0  0  0
   -2.4969   -3.3519   -1.7519 H   0  0  0  0  0  0  0  0  0  0  0  0
   -3.3878   -2.0752   -3.6814 H   0  0  0  0  0  0  0  0  0  0  0  0
   -2.8987    0.3483   -3.8885 H   0  0  0  0  0  0  0  0  0  0  0  0
   -1.5557    1.4949   -2.1842 H   0  0  0  0  0  0  0  0  0  0  0  0
   -3.0782    1.3716    0.2556 H   0  0  0  0  0  0  0  0  0  0  0  0
   -3.9680    3.5400    0.9524 H   0  0  0  0  0  0  0  0  0  0  0  0
   -2.4450    5.3411    1.7181 H   0  0  0  0  0  0  0  0  0  0  0  0
    0.0001    4.9344    1.7980 H   0  0  0  0  0  0  0  0  0  0  0  0
    0.9264    2.7790    1.1130 H   0  0  0  0  0  0  0  0  0  0  0  0
    6.0490   -1.1446   -0.6272 H   0  0  0  0  0  0  0  0  0  0  0  0
  1  2  1  0
  2  3  1  0
  3  4  1  0
  4  5  1  0
  5  6  1  0
  6  7  2  0
  7  8  1  0
  8  9  2  0
  9 10  1  0
 10 11  2  0
  5 12  1  0
 12 13  2  0
 13 14  1  0
 14 15  2  0
 15 16  1  0
 16 17  2  0
  5 18  1  0
 18 19  2  0
 19 20  1  0
 20 21  2  0
 21 22  1  0
 22 23  2  0
  2 24  1  0
 24 25  2  0
 24 26  1  0
 11  6  1  0
 17 12  1  0
 23 18  1  0
  1 27  1  0
  1 28  1  0
  2 29  1  6
  3 30  1  0
  3 31  1  0
  7 32  1  0
  8 33  1  0
  9 34  1  0
 10 35  1  0
 11 36  1  0
 13 37  1  0
 14 38  1  0
 15 39  1  0
 16 40  1  0
 17 41  1  0
 19 42  1  0
 20 43  1  0
 21 44  1  0
 22 45  1  0
 23 46  1  0
 26 47  1  0
M  END
$$$$
