
     RDKit          3D

 67 71  0  0  0  0  0  0  0  0999 V2000
   -1.0832    0.0322   -0.3400 C   0  0  0  0  0  0  0  0  0  0  0  0
    0.4305   -0.1257    0.5790 S   0  0  0  0  0  6  0  0  0  0  0  0
    0.8725   -1.5012    0.5515 O   0  0  0  0  0  0  0  0  0  0  0  0
    0.3437    0.6400    1.7993 O   0  0  0  0  0  0  0  0  0  0  0  0
    1.3964    0.6669   -0.4432 O   0  0  0  0  0  0  0  0  0  0  0  0
   -0.1747   -0.7302    1.2243 C   0  0  0  0  0  0  0  0  0  0  0  0
   -0.1376   -0.9445   -0.2507 C   0  0  0  0  0  0  0  0  0  0  0  0
   -1.1747   -1.0891   -1.1880 C   0  0  0  0  0  0  0  0  0  0  0  0
   -2.6190   -0.9997   -0.9542 C   0  0  0  0  0  0  0  0  0  0  0  0
   -3.4403   -1.5851   -1.6553 O   0  0  0  0  0  0  0  0  0  0  0  0
   -3.1216   -0.0997    0.1090 C   0  0  0  0  0  0  0  0  0  0  0  0
   -2.8019    1.2637    0.0031 C   0  0  0  0  0  0  0  0  0  0  0  0
   -3.2678    2.1614    0.9550 C   0  0  0  0  0  0  0  0  0  0  0  0
   -4.0585    1.7033    2.0072 C   0  0  0  0  0  0  0  0  0  0  0  0
   -4.3965    0.3448    2.1258 C   0  0  0  0  0  0  0  0  0  0  0  0
   -5.1939   -0.0940    3.1950 C   0  0  0  0  0  0  0  0  0  0  0  0
   -5.5366   -1.4382    3.3326 C   0  0  0  0  0  0  0  0  0  0  0  0
   -5.0834   -2.3653    2.4030 C   0  0  0  0  0  0  0  0  0  0  0  0
   -4.2916   -1.9461    1.3327 C   0  0  0  0  0  0  0  0  0  0  0  0
   -3.9315   -0.5873    1.1653 C   0  0  0  0  0  0  0  0  0  0  0  0
   -0.5662   -1.3681   -2.4617 C   0  0  0  0  0  0  0  0  0  0  0  0
   -1.0096   -1.6321   -3.7737 C   0  0  0  0  0  0  0  0  0  0  0  0
   -0.0590   -1.8323   -4.7954 C   0  0  0  0  0  0  0  0  0  0  0  0
    1.3136   -1.7803   -4.5315 C   0  0  0  0  0  0  0  0  0  0  0  0
    1.7564   -1.5450   -3.2389 C   0  0  0  0  0  0  0  0  0  0  0  0
    0.7953   -1.3279   -2.2603 C   0  0  0  0  0  0  0  0  0  0  0  0
    1.0386   -1.0347   -0.9475 N   0  0  0  0  0  0  0  0  0  0  0  0
    2.4425   -0.9082   -0.5443 C   0  0  2  0  0  0  0  0  0  0  0  0
    2.9142    0.5665   -0.5940 C   0  0  0  0  0  0  0  0  0  0  0  0
    2.4262    1.3770    0.5436 N   0  0  0  0  0  0  0  0  0  0  0  0
    3.1970    1.1551    1.7879 C   0  0  0  0  0  0  0  0  0  0  0  0
    4.5913    1.8097    1.7982 C   0  0  0  0  0  0  0  0  0  0  0  0
    4.5251    3.2057    1.4979 O   0  0  0  0  0  0  0  0  0  0  0  0
    3.8681    3.4318    0.2452 C   0  0  0  0  0  0  0  0  0  0  0  0
    2.4567    2.8251    0.2392 C   0  0  0  0  0  0  0  0  0  0  0  0
    3.2900   -1.7778   -1.5171 C   0  0  0  0  0  0  0  0  0  0  0  0
    3.0929   -1.4787   -2.9237 O   0  0  0  0  0  0  0  0  0  0  0  0
   -0.9613   -0.4599   -1.3054 H   0  0  0  0  0  0  0  0  0  0  0  0
   -1.3084    1.0911   -0.4712 H   0  0  0  0  0  0  0  0  0  0  0  0
   -1.8768   -0.4521    0.2309 H   0  0  0  0  0  0  0  0  0  0  0  0
    2.1866    0.1087   -0.6009 H   0  0  0  0  0  0  0  0  0  0  0  0
    0.7384   -1.0801    1.7168 H   0  0  0  0  0  0  0  0  0  0  0  0
   -0.3020    0.3326    1.4609 H   0  0  0  0  0  0  0  0  0  0  0  0
   -0.9999   -1.2889    1.6764 H   0  0  0  0  0  0  0  0  0  0  0  0
   -2.1947    1.6252   -0.8235 H   0  0  0  0  0  0  0  0  0  0  0  0
   -3.0239    3.2181    0.8731 H   0  0  0  0  0  0  0  0  0  0  0  0
   -4.4220    2.4255    2.7372 H   0  0  0  0  0  0  0  0  0  0  0  0
   -5.5614    0.6148    3.9340 H   0  0  0  0  0  0  0  0  0  0  0  0
   -6.1574   -1.7615    4.1638 H   0  0  0  0  0  0  0  0  0  0  0  0
   -5.3508   -3.4136    2.5019 H   0  0  0  0  0  0  0  0  0  0  0  0
   -3.9597   -2.7008    0.6197 H   0  0  0  0  0  0  0  0  0  0  0  0
   -2.0723   -1.6796   -3.9974 H   0  0  0  0  0  0  0  0  0  0  0  0
   -0.4033   -2.0340   -5.8067 H   0  0  0  0  0  0  0  0  0  0  0  0
    2.0312   -1.9386   -5.3302 H   0  0  0  0  0  0  0  0  0  0  0  0
    2.5451   -1.3340    0.4567 H   0  0  0  0  0  0  0  0  0  0  0  0
    2.5474    1.0083   -1.5317 H   0  0  0  0  0  0  0  0  0  0  0  0
    4.0089    0.6052   -0.6496 H   0  0  0  0  0  0  0  0  0  0  0  0
    2.6115    1.5842    2.6116 H   0  0  0  0  0  0  0  0  0  0  0  0
    3.2894    0.0867    2.0088 H   0  0  0  0  0  0  0  0  0  0  0  0
    5.2717    1.3243    1.0917 H   0  0  0  0  0  0  0  0  0  0  0  0
    5.0337    1.7091    2.7955 H   0  0  0  0  0  0  0  0  0  0  0  0
    3.8003    4.5148    0.1059 H   0  0  0  0  0  0  0  0  0  0  0  0
    4.4840    3.0320   -0.5695 H   0  0  0  0  0  0  0  0  0  0  0  0
    1.8604    3.3289    1.0119 H   0  0  0  0  0  0  0  0  0  0  0  0
    1.9526    3.0327   -0.7137 H   0  0  0  0  0  0  0  0  0  0  0  0
    3.0713   -2.8461   -1.3637 H   0  0  0  0  0  0  0  0  0  0  0  0
    4.3582   -1.6453   -1.3085 H   0  0  0  0  0  0  0  0  0  0  0  0
  1  2  1  0
  2  3  2  0
  2  4  2  0
  2  5  1  0
  6  7  1  0
  7  8  2  0
  8  9  1  0
  9 10  2  0
  9 11  1  0
 11 12  2  0
 12 13  1  0
 13 14  2  0
 14 15  1  0
 15 16  2  0
 16 17  1  0
 17 18  2  0
 18 19  1  0
 19 20  2  0
  8 21  1  0
 21 22  2  0
 22 23  1  0
 23 24  2  0
 24 25  1  0
 25 26  2  0
 26 27  1  0
 27 28  1  0
 28 29  1  0
 29 30  1  0
 30 31  1  0
 31 32  1  0
 32 33  1  0
 33 34  1  0
 34 35  1  0
 28 36  1  0
 36 37  1  0
 27  7  1  0
 35 30  1  0
 20 11  1  0
 26 21  1  0
 20 15  1  0
 37 25  1  0
  1 38  1  0
  1 39  1  0
  1 40  1  0
  5 41  1  0
  6 42  1  0
  6 43  1  0
  6 44  1  0
 12 45  1  0
 13 46  1  0
 14 47  1  0
 16 48  1  0
 17 49  1  0
 18 50  1  0
 19 51  1  0
 22 52  1  0
 23 53  1  0
 24 54  1  0
 28 55  1  1
 29 56  1  0
 29 57  1  0
 31 58  1  0
 31 59  1  0
 32 60  1  0
 32 61  1  0
 34 62  1  0
 34 63  1  0
 35 64  1  0
 35 65  1  0
 36 66  1  0
 36 67  1  0
M  END
$$$$
