
     RDKit          3D

 22 22  0  0  0  0  0  0  0  0999 V2000
    4.1755   -0.7298    0.4819 O   0  0  0  0  0  0  0  0  0  0  0  0
    3.1272   -0.3501   -0.4922 B   0  0  0  0  0  0  0  0  0  0  0  0
    3.4312    0.8294   -1.3178 O   0  0  0  0  0  0  0  0  0  0  0  0
    1.6092   -0.7153   -0.2180 C   0  0  0  0  0  0  0  0  0  0  0  0
    0.7969    0.5566   -0.2598 C   0  0  0  0  0  0  0  0  0  0  0  0
   -0.6452    0.3053   -0.0115 C   0  0  0  0  0  0  0  0  0  0  0  0
   -1.2065    0.3243    1.2539 C   0  0  0  0  0  0  0  0  0  0  0  0
   -2.5516    0.0853    1.4390 C   0  0  0  0  0  0  0  0  0  0  0  0
   -3.4000   -0.1824    0.3855 C   0  0  0  0  0  0  0  0  0  0  0  0
   -2.8489   -0.2034   -0.8806 C   0  0  0  0  0  0  0  0  0  0  0  0
   -1.4948    0.0374   -1.0649 C   0  0  0  0  0  0  0  0  0  0  0  0
    3.7513   -1.1468    1.2919 H   0  0  0  0  0  0  0  0  0  0  0  0
    3.0854    1.6614   -0.8825 H   0  0  0  0  0  0  0  0  0  0  0  0
    1.5375   -1.2304    0.7514 H   0  0  0  0  0  0  0  0  0  0  0  0
    1.2085   -1.4088   -0.9856 H   0  0  0  0  0  0  0  0  0  0  0  0
    1.1304    1.2929    0.5003 H   0  0  0  0  0  0  0  0  0  0  0  0
    0.8920    1.0099   -1.2541 H   0  0  0  0  0  0  0  0  0  0  0  0
   -0.5276    0.5361    2.0732 H   0  0  0  0  0  0  0  0  0  0  0  0
   -2.9837    0.1013    2.4274 H   0  0  0  0  0  0  0  0  0  0  0  0
   -4.4589   -0.3721    0.5153 H   0  0  0  0  0  0  0  0  0  0  0  0
   -3.5233   -0.4140   -1.6965 H   0  0  0  0  0  0  0  0  0  0  0  0
   -1.1047    0.0131   -2.0564 H   0  0  0  0  0  0  0  0  0  0  0  0
  1  2  1  0
  2  3  1  0
  2  4  1  0
  4  5  1  0
  5  6  1  0
  6  7  2  0
  7  8  1  0
  8  9  2  0
  9 10  1  0
 10 11  2  0
 11  6  1  0
  1 12  1  0
  3 13  1  0
  4 14  1  0
  4 15  1  0
  5 16  1  0
  5 17  1  0
  7 18  1  0
  8 19  1  0
  9 20  1  0
 10 21  1  0
 11 22  1  0
M  END
$$$$
