
     RDKit          3D

 30 32  0  0  0  0  0  0  0  0999 V2000
   -4.7992    0.9176    0.3044 C   0  0  0  0  0  0  0  0  0  0  0  0
   -3.4380    0.3121    0.1281 C   0  0  0  0  0  0  0  0  0  0  0  0
   -3.2969   -1.0591   -0.1071 C   0  0  0  0  0  0  0  0  0  0  0  0
   -2.0286   -1.6242   -0.2391 C   0  0  0  0  0  0  0  0  0  0  0  0
   -1.9938   -2.9733   -0.4754 O   0  0  0  0  0  0  0  0  0  0  0  0
   -0.8742   -0.8354   -0.1293 C   0  0  0  0  0  0  0  0  0  0  0  0
   -1.0123    0.5268    0.1193 C   0  0  0  0  0  0  0  0  0  0  0  0
   -2.2872    1.0998    0.2531 C   0  0  0  0  0  0  0  0  0  0  0  0
    0.1786    1.3834    0.2480 C   0  0  0  0  0  0  0  0  0  0  0  0
    0.0587    2.5830    0.4710 O   0  0  0  0  0  0  0  0  0  0  0  0
    1.5214    0.7886    0.1062 C   0  0  0  0  0  0  0  0  0  0  0  0
    2.6377    1.6316    0.2305 C   0  0  0  0  0  0  0  0  0  0  0  0
    3.9122    1.0993    0.1014 C   0  0  0  0  0  0  0  0  0  0  0  0
    5.0242    1.8779    0.2141 O   0  0  0  0  0  0  0  0  0  0  0  0
    4.0935   -0.2542   -0.1489 C   0  0  0  0  0  0  0  0  0  0  0  0
    2.9807   -1.0907   -0.2721 C   0  0  0  0  0  0  0  0  0  0  0  0
    3.1924   -2.4173   -0.5186 O   0  0  0  0  0  0  0  0  0  0  0  0
    1.6788   -0.5781   -0.1456 C   0  0  0  0  0  0  0  0  0  0  0  0
    0.4701   -1.4351   -0.2691 C   0  0  0  0  0  0  0  0  0  0  0  0
    0.5299   -2.6416   -0.4854 O   0  0  0  0  0  0  0  0  0  0  0  0
   -4.8099    1.9588   -0.0347 H   0  0  0  0  0  0  0  0  0  0  0  0
   -5.5468    0.3767   -0.2853 H   0  0  0  0  0  0  0  0  0  0  0  0
   -5.0891    0.8854    1.3591 H   0  0  0  0  0  0  0  0  0  0  0  0
   -4.1732   -1.6991   -0.1905 H   0  0  0  0  0  0  0  0  0  0  0  0
   -1.0483   -3.2431   -0.5487 H   0  0  0  0  0  0  0  0  0  0  0  0
   -2.3820    2.1666    0.4550 H   0  0  0  0  0  0  0  0  0  0  0  0
    2.4966    2.6919    0.4265 H   0  0  0  0  0  0  0  0  0  0  0  0
    4.7569    2.7971    0.3879 H   0  0  0  0  0  0  0  0  0  0  0  0
    5.1044   -0.6402   -0.2450 H   0  0  0  0  0  0  0  0  0  0  0  0
    4.1433   -2.6052   -0.5762 H   0  0  0  0  0  0  0  0  0  0  0  0
  1  2  1  0
  2  3  2  0
  3  4  1  0
  4  5  1  0
  4  6  2  0
  6  7  1  0
  7  8  2  0
  7  9  1  0
  9 10  2  0
  9 11  1  0
 11 12  2  0
 12 13  1  0
 13 14  1  0
 13 15  2  0
 15 16  1  0
 16 17  1  0
 16 18  2  0
 18 19  1  0
 19 20  2  0
  8  2  1  0
 18 11  1  0
 19  6  1  0
  1 21  1  0
  1 22  1  0
  1 23  1  0
  3 24  1  0
  5 25  1  0
  8 26  1  0
 12 27  1  0
 14 28  1  0
 15 29  1  0
 17 30  1  0
M  END
$$$$
