
     RDKit          3D

 47 50  0  0  0  0  0  0  0  0999 V2000
    2.4683   -1.6924    2.5859 C   0  0  0  0  0  0  0  0  0  0  0  0
    2.4511   -2.0068    1.1926 O   0  0  0  0  0  0  0  0  0  0  0  0
    2.7145   -0.9513    0.3754 C   0  0  0  0  0  0  0  0  0  0  0  0
    2.9016    0.1997    0.7487 O   0  0  0  0  0  0  0  0  0  0  0  0
    2.7780   -1.3938   -1.0572 C   0  0  0  0  0  0  0  0  0  0  0  0
    1.4496   -1.4199   -1.7970 C   0  0  2  0  0  0  0  0  0  0  0  0
    0.8816   -0.1019   -2.0328 N   0  0  0  0  0  0  0  0  0  0  0  0
    0.1056    0.5554   -1.2550 C   0  0  0  0  0  0  0  0  0  0  0  0
   -0.4105    1.8643   -1.7607 C   0  0  0  0  0  0  0  0  0  0  0  0
    0.4498    2.7026   -2.4831 C   0  0  0  0  0  0  0  0  0  0  0  0
   -0.0152    3.9225   -2.9803 C   0  0  0  0  0  0  0  0  0  0  0  0
   -1.3412    4.2966   -2.7671 C   0  0  0  0  0  0  0  0  0  0  0  0
   -1.9134    5.7995   -3.3775 Cl  0  0  0  0  0  0  0  0  0  0  0  0
   -2.2094    3.4595   -2.0665 C   0  0  0  0  0  0  0  0  0  0  0  0
   -1.7476    2.2386   -1.5669 C   0  0  0  0  0  0  0  0  0  0  0  0
   -0.3389    0.0990    0.0654 C   0  0  0  0  0  0  0  0  0  0  0  0
   -0.7063   -1.1998    0.3682 C   0  0  0  0  0  0  0  0  0  0  0  0
   -1.4143   -1.3519    1.8969 S   0  0  0  0  0  0  0  0  0  0  0  0
   -1.0936    0.2692    2.2932 C   0  0  0  0  0  0  0  0  0  0  0  0
   -1.4549    0.7822    3.6499 C   0  0  0  0  0  0  0  0  0  0  0  0
   -0.4667    0.9408    1.2547 C   0  0  0  0  0  0  0  0  0  0  0  0
    0.0232    2.3555    1.3699 C   0  0  0  0  0  0  0  0  0  0  0  0
   -0.4936   -2.3447   -0.4079 N   0  0  0  0  0  0  0  0  0  0  0  0
   -1.1009   -3.6006   -0.3872 C   0  0  0  0  0  0  0  0  0  0  0  0
   -2.2999   -3.9988    0.3888 C   0  0  0  0  0  0  0  0  0  0  0  0
   -0.4961   -4.4024   -1.2386 N   0  0  0  0  0  0  0  0  0  0  0  0
    0.4888   -3.7024   -1.8575 N   0  0  0  0  0  0  0  0  0  0  0  0
    0.4848   -2.4743   -1.3809 C   0  0  0  0  0  0  0  0  0  0  0  0
    2.0908   -2.5604    3.1333 H   0  0  0  0  0  0  0  0  0  0  0  0
    1.8249   -0.8368    2.8105 H   0  0  0  0  0  0  0  0  0  0  0  0
    3.4946   -1.4948    2.9095 H   0  0  0  0  0  0  0  0  0  0  0  0
    3.2590   -2.3804   -1.0865 H   0  0  0  0  0  0  0  0  0  0  0  0
    3.4742   -0.7135   -1.5654 H   0  0  0  0  0  0  0  0  0  0  0  0
    1.7352   -1.7412   -2.8112 H   0  0  0  0  0  0  0  0  0  0  0  0
    1.4834    2.4097   -2.6570 H   0  0  0  0  0  0  0  0  0  0  0  0
    0.6589    4.5704   -3.5348 H   0  0  0  0  0  0  0  0  0  0  0  0
   -3.2461    3.7484   -1.9123 H   0  0  0  0  0  0  0  0  0  0  0  0
   -2.4402    1.5876   -1.0389 H   0  0  0  0  0  0  0  0  0  0  0  0
   -0.5714    0.7878    4.2966 H   0  0  0  0  0  0  0  0  0  0  0  0
   -2.2272    0.1721    4.1299 H   0  0  0  0  0  0  0  0  0  0  0  0
   -1.8405    1.8050    3.5845 H   0  0  0  0  0  0  0  0  0  0  0  0
   -0.7798    3.0598    1.1336 H   0  0  0  0  0  0  0  0  0  0  0  0
    0.8710    2.5408    0.7040 H   0  0  0  0  0  0  0  0  0  0  0  0
    0.3710    2.5653    2.3870 H   0  0  0  0  0  0  0  0  0  0  0  0
   -2.7176   -4.9256   -0.0204 H   0  0  0  0  0  0  0  0  0  0  0  0
   -2.0459   -4.1956    1.4340 H   0  0  0  0  0  0  0  0  0  0  0  0
   -3.0884   -3.2430    0.3305 H   0  0  0  0  0  0  0  0  0  0  0  0
  1  2  1  0
  2  3  1  0
  3  4  2  0
  3  5  1  0
  5  6  1  0
  6  7  1  0
  7  8  2  0
  8  9  1  0
  9 10  2  0
 10 11  1  0
 11 12  2  0
 12 13  1  0
 12 14  1  0
 14 15  2  0
  8 16  1  0
 16 17  2  0
 17 18  1  0
 18 19  1  0
 19 20  1  0
 19 21  2  0
 21 22  1  0
 17 23  1  0
 23 24  1  0
 24 25  1  0
 24 26  2  0
 26 27  1  0
 27 28  2  0
 28  6  1  0
 15  9  1  0
 21 16  1  0
 28 23  1  0
  1 29  1  0
  1 30  1  0
  1 31  1  0
  5 32  1  0
  5 33  1  0
  6 34  1  6
 10 35  1  0
 11 36  1  0
 14 37  1  0
 15 38  1  0
 20 39  1  0
 20 40  1  0
 20 41  1  0
 22 42  1  0
 22 43  1  0
 22 44  1  0
 25 45  1  0
 25 46  1  0
 25 47  1  0
M  END
$$$$
