
     RDKit          3D

 41 43  0  0  0  0  0  0  0  0999 V2000
    6.4188   -0.9381    1.9274 C   0  0  0  0  0  0  0  0  0  0  0  0
    6.5197    0.3713    1.3832 O   0  0  0  0  0  0  0  0  0  0  0  0
    5.4117    0.8721    0.7559 C   0  0  0  0  0  0  0  0  0  0  0  0
    5.5734    2.1523    0.2267 C   0  0  0  0  0  0  0  0  0  0  0  0
    4.5215    2.7779   -0.4388 C   0  0  0  0  0  0  0  0  0  0  0  0
    3.2952    2.1254   -0.5801 C   0  0  0  0  0  0  0  0  0  0  0  0
    3.1142    0.8448   -0.0568 C   0  0  0  0  0  0  0  0  0  0  0  0
    1.9075    0.1176   -0.1545 N   0  0  0  0  0  0  0  0  0  0  0  0
    0.7435    0.4955   -0.7940 C   0  0  0  0  0  0  0  0  0  0  0  0
    0.5400    1.5519   -1.3818 O   0  0  0  0  0  0  0  0  0  0  0  0
   -0.3901   -0.4684   -0.7059 C   0  0  0  0  0  0  0  0  0  0  0  0
   -1.6670    0.0943   -0.5254 C   0  0  0  0  0  0  0  0  0  0  0  0
   -2.8026   -0.7150   -0.4523 C   0  0  0  0  0  0  0  0  0  0  0  0
   -4.0615   -0.1067   -0.1863 N   0  0  0  0  0  0  0  0  0  0  0  0
   -5.1987   -0.4685   -0.9440 C   0  0  0  0  0  0  0  0  0  0  0  0
   -5.1768   -0.9874   -2.0504 O   0  0  0  0  0  0  0  0  0  0  0  0
   -6.4728   -0.1893   -0.1714 C   0  0  0  0  0  0  0  0  0  0  0  0
   -6.1080    0.7351    0.9814 C   0  0  0  0  0  0  0  0  0  0  0  0
   -4.4339    0.3233    1.4023 S   0  0  0  0  0  6  0  0  0  0  0  0
   -4.4408   -0.8686    2.2210 O   0  0  0  0  0  0  0  0  0  0  0  0
   -3.7146    1.5205    1.7679 O   0  0  0  0  0  0  0  0  0  0  0  0
   -2.6634   -2.1022   -0.5150 C   0  0  0  0  0  0  0  0  0  0  0  0
   -1.4018   -2.6709   -0.7053 C   0  0  0  0  0  0  0  0  0  0  0  0
   -0.2648   -1.8604   -0.8088 C   0  0  0  0  0  0  0  0  0  0  0  0
    1.2389   -2.6656   -1.0838 Cl  0  0  0  0  0  0  0  0  0  0  0  0
    4.1818    0.2233    0.6130 C   0  0  0  0  0  0  0  0  0  0  0  0
    7.3831   -1.1870    2.3809 H   0  0  0  0  0  0  0  0  0  0  0  0
    6.2186   -1.6769    1.1444 H   0  0  0  0  0  0  0  0  0  0  0  0
    5.6596   -0.9803    2.7153 H   0  0  0  0  0  0  0  0  0  0  0  0
    6.5259    2.6656    0.3331 H   0  0  0  0  0  0  0  0  0  0  0  0
    4.6533    3.7756   -0.8493 H   0  0  0  0  0  0  0  0  0  0  0  0
    2.5009    2.6477   -1.1036 H   0  0  0  0  0  0  0  0  0  0  0  0
    1.9172   -0.8024    0.2690 H   0  0  0  0  0  0  0  0  0  0  0  0
   -1.7701    1.1765   -0.4441 H   0  0  0  0  0  0  0  0  0  0  0  0
   -6.8456   -1.1469    0.2080 H   0  0  0  0  0  0  0  0  0  0  0  0
   -7.2292    0.2583   -0.8210 H   0  0  0  0  0  0  0  0  0  0  0  0
   -6.7552    0.6040    1.8509 H   0  0  0  0  0  0  0  0  0  0  0  0
   -6.1212    1.7816    0.6614 H   0  0  0  0  0  0  0  0  0  0  0  0
   -3.5292   -2.7539   -0.4237 H   0  0  0  0  0  0  0  0  0  0  0  0
   -1.3152   -3.7535   -0.7757 H   0  0  0  0  0  0  0  0  0  0  0  0
    4.0375   -0.7722    1.0172 H   0  0  0  0  0  0  0  0  0  0  0  0
  1  2  1  0
  2  3  1  0
  3  4  2  0
  4  5  1  0
  5  6  2  0
  6  7  1  0
  7  8  1  0
  8  9  1  0
  9 10  2  0
  9 11  1  0
 11 12  2  0
 12 13  1  0
 13 14  1  0
 14 15  1  0
 15 16  2  0
 15 17  1  0
 17 18  1  0
 18 19  1  0
 19 20  2  0
 19 21  2  0
 13 22  2  0
 22 23  1  0
 23 24  2  0
 24 25  1  0
  7 26  2  0
 26  3  1  0
 24 11  1  0
 19 14  1  0
  1 27  1  0
  1 28  1  0
  1 29  1  0
  4 30  1  0
  5 31  1  0
  6 32  1  0
  8 33  1  0
 12 34  1  0
 17 35  1  0
 17 36  1  0
 18 37  1  0
 18 38  1  0
 22 39  1  0
 23 40  1  0
 26 41  1  0
M  END
$$$$
