
     RDKit          3D

 42 44  0  0  0  0  0  0  0  0999 V2000
   -3.0787    2.2549   -0.3014 C   0  0  0  0  0  0  0  0  0  0  0  0
   -2.7786    0.7551   -0.4284 C   0  0  0  0  0  0  0  0  0  0  0  0
   -3.2041    0.2483   -1.8085 C   0  0  0  0  0  0  0  0  0  0  0  0
   -0.9452    0.5149   -0.2524 S   0  0  0  0  0  0  0  0  0  0  0  0
   -1.0805    0.5170    1.5839 C   0  0  0  0  0  0  0  0  0  0  0  0
   -0.4715   -0.6723    2.3668 C   0  0  0  0  0  0  0  0  0  0  0  0
    0.5794   -1.4773    1.6876 N   0  0  0  0  0  0  0  0  0  0  0  0
    1.8570   -0.9748    1.5305 C   0  0  0  0  0  0  0  0  0  0  0  0
    2.1766    0.1211    1.9812 O   0  0  0  0  0  0  0  0  0  0  0  0
    2.7953   -1.9062    0.7542 C   0  0  0  0  0  0  0  0  0  0  0  0
    4.0897   -1.4002    0.4808 O   0  0  0  0  0  0  0  0  0  0  0  0
    4.2468   -0.6106   -0.6242 C   0  0  0  0  0  0  0  0  0  0  0  0
    5.5760   -0.3813   -0.9909 C   0  0  0  0  0  0  0  0  0  0  0  0
    5.8837    0.4065   -2.1015 C   0  0  0  0  0  0  0  0  0  0  0  0
    4.8590    0.9786   -2.8507 C   0  0  0  0  0  0  0  0  0  0  0  0
    3.5315    0.7656   -2.4842 C   0  0  0  0  0  0  0  0  0  0  0  0
    3.2245   -0.0258   -1.3724 C   0  0  0  0  0  0  0  0  0  0  0  0
   -1.9046   -1.2455    2.3120 C   0  0  0  0  0  0  0  0  0  0  0  0
   -2.4163   -2.3309    2.4632 O   0  0  0  0  0  0  0  0  0  0  0  0
   -2.4134   -0.0714    1.8271 N   0  0  0  0  0  0  0  0  0  0  0  0
   -3.3559   -0.1106    0.7084 C   0  0  0  0  0  0  0  0  0  0  0  0
   -4.7394    0.3273    1.1699 C   0  0  0  0  0  0  0  0  0  0  0  0
   -5.0125    1.0410    2.1214 O   0  0  0  0  0  0  0  0  0  0  0  0
   -5.7231   -0.1289    0.3658 O   0  0  0  0  0  0  0  0  0  0  0  0
   -2.8143    2.6511    0.6852 H   0  0  0  0  0  0  0  0  0  0  0  0
   -2.5348    2.8384   -1.0538 H   0  0  0  0  0  0  0  0  0  0  0  0
   -4.1451    2.4552   -0.4568 H   0  0  0  0  0  0  0  0  0  0  0  0
   -2.7139    0.8088   -2.6133 H   0  0  0  0  0  0  0  0  0  0  0  0
   -4.2849    0.3605   -1.9484 H   0  0  0  0  0  0  0  0  0  0  0  0
   -2.9668   -0.8130   -1.9456 H   0  0  0  0  0  0  0  0  0  0  0  0
   -0.9616    1.4976    2.0545 H   0  0  0  0  0  0  0  0  0  0  0  0
   -0.1743   -0.4271    3.3943 H   0  0  0  0  0  0  0  0  0  0  0  0
    0.3432   -2.3812    1.2922 H   0  0  0  0  0  0  0  0  0  0  0  0
    2.3030   -2.2646   -0.1588 H   0  0  0  0  0  0  0  0  0  0  0  0
    2.9397   -2.7893    1.3887 H   0  0  0  0  0  0  0  0  0  0  0  0
    6.3792   -0.8213   -0.4051 H   0  0  0  0  0  0  0  0  0  0  0  0
    6.9213    0.5753   -2.3759 H   0  0  0  0  0  0  0  0  0  0  0  0
    5.0939    1.5969   -3.7129 H   0  0  0  0  0  0  0  0  0  0  0  0
    2.7299    1.2236   -3.0583 H   0  0  0  0  0  0  0  0  0  0  0  0
    2.1790   -0.1436   -1.1121 H   0  0  0  0  0  0  0  0  0  0  0  0
   -3.4424   -1.1589    0.3891 H   0  0  0  0  0  0  0  0  0  0  0  0
   -6.5468    0.1972    0.7896 H   0  0  0  0  0  0  0  0  0  0  0  0
  1  2  1  0
  2  3  1  0
  2  4  1  0
  4  5  1  0
  5  6  1  0
  6  7  1  0
  7  8  1  0
  8  9  2  0
  8 10  1  0
 10 11  1  0
 11 12  1  0
 12 13  2  0
 13 14  1  0
 14 15  2  0
 15 16  1  0
 16 17  2  0
  6 18  1  0
 18 19  2  0
 18 20  1  0
 20 21  1  0
 21 22  1  0
 22 23  2  0
 22 24  1  0
 21  2  1  0
 20  5  1  0
 17 12  1  0
  1 25  1  0
  1 26  1  0
  1 27  1  0
  3 28  1  0
  3 29  1  0
  3 30  1  0
  5 31  1  0
  6 32  1  0
  7 33  1  0
 10 34  1  0
 10 35  1  0
 13 36  1  0
 14 37  1  0
 15 38  1  0
 16 39  1  0
 17 40  1  0
 21 41  1  0
 24 42  1  0
M  END
$$$$
