
     RDKit          3D

 52 56  0  0  0  0  0  0  0  0999 V2000
   -1.8512   -1.2912   -2.0044 C   0  0  0  0  0  0  0  0  0  0  0  0
   -2.5252   -0.3959   -1.1273 O   0  0  0  0  0  0  0  0  0  0  0  0
   -1.7759    0.2496   -0.1783 C   0  0  0  0  0  0  0  0  0  0  0  0
   -0.4646   -0.1019    0.1636 C   0  0  0  0  0  0  0  0  0  0  0  0
    0.2734    0.5989    1.1549 C   0  0  0  0  0  0  0  0  0  0  0  0
   -0.3509    1.7096    1.7827 C   0  0  0  0  0  0  0  0  0  0  0  0
   -1.6528    2.0371    1.4443 C   0  0  0  0  0  0  0  0  0  0  0  0
   -2.3816    1.3223    0.4852 C   0  0  0  0  0  0  0  0  0  0  0  0
   -3.7388    1.7435    0.1941 C   0  0  0  0  0  0  0  0  0  0  0  0
   -4.2399    2.9604   -0.3387 C   0  0  0  0  0  0  0  0  0  0  0  0
   -3.4829    4.1523   -0.7856 C   0  0  0  0  0  0  0  0  0  0  0  0
   -5.5767    2.9450   -0.4161 N   0  0  0  0  0  0  0  0  0  0  0  0
   -5.9661    1.7078    0.0627 O   0  0  0  0  0  0  0  0  0  0  0  0
   -4.8691    0.9933    0.4337 C   0  0  0  0  0  0  0  0  0  0  0  0
   -5.1277   -0.3527    0.9783 C   0  0  0  0  0  0  0  0  0  0  0  0
    0.2445    2.4943    2.7063 N   0  0  0  0  0  0  0  0  0  0  0  0
    1.5144    2.2303    3.0657 C   0  0  0  0  0  0  0  0  0  0  0  0
    2.1876    1.1726    2.5279 C   0  0  0  0  0  0  0  0  0  0  0  0
    3.4861    0.7569    2.7678 N   0  0  0  0  0  0  0  0  0  0  0  0
    3.7486   -0.3680    1.9916 C   0  0  0  0  0  0  0  0  0  0  0  0
    4.8236   -0.9416    1.9572 O   0  0  0  0  0  0  0  0  0  0  0  0
    2.5594   -0.6722    1.2900 N   0  0  0  0  0  0  0  0  0  0  0  0
    2.4222   -1.7928    0.3689 C   0  0  2  0  0  0  0  0  0  0  0  0
    3.1800   -3.0604    0.7938 C   0  0  0  0  0  0  0  0  0  0  0  0
    2.7626   -1.4301   -1.0713 C   0  0  0  0  0  0  0  0  0  0  0  0
    4.0092   -0.9050   -1.4145 C   0  0  0  0  0  0  0  0  0  0  0  0
    4.2751   -0.6005   -2.7470 C   0  0  0  0  0  0  0  0  0  0  0  0
    3.2996   -0.8304   -3.7065 C   0  0  0  0  0  0  0  0  0  0  0  0
    2.0922   -1.3616   -3.2921 C   0  0  0  0  0  0  0  0  0  0  0  0
    1.8022   -1.6660   -2.0067 N   0  0  0  0  0  0  0  0  0  0  0  0
    1.5879    0.3315    1.5904 C   0  0  0  0  0  0  0  0  0  0  0  0
   -1.0304   -0.7894   -2.5272 H   0  0  0  0  0  0  0  0  0  0  0  0
   -2.5711   -1.6230   -2.7588 H   0  0  0  0  0  0  0  0  0  0  0  0
   -1.5019   -2.1793   -1.4678 H   0  0  0  0  0  0  0  0  0  0  0  0
   -0.0020   -0.9216   -0.3613 H   0  0  0  0  0  0  0  0  0  0  0  0
   -2.1171    2.8804    1.9543 H   0  0  0  0  0  0  0  0  0  0  0  0
   -3.0865    4.6971    0.0771 H   0  0  0  0  0  0  0  0  0  0  0  0
   -4.1154    4.8388   -1.3585 H   0  0  0  0  0  0  0  0  0  0  0  0
   -2.6438    3.8595   -1.4251 H   0  0  0  0  0  0  0  0  0  0  0  0
   -4.3850   -0.6206    1.7361 H   0  0  0  0  0  0  0  0  0  0  0  0
   -6.1153   -0.4030    1.4472 H   0  0  0  0  0  0  0  0  0  0  0  0
   -5.0908   -1.1000    0.1799 H   0  0  0  0  0  0  0  0  0  0  0  0
    1.9537    2.8973    3.7971 H   0  0  0  0  0  0  0  0  0  0  0  0
    4.1670    1.1828    3.3762 H   0  0  0  0  0  0  0  0  0  0  0  0
    1.3754   -2.1032    0.4172 H   0  0  0  0  0  0  0  0  0  0  0  0
    2.8779   -3.9119    0.1727 H   0  0  0  0  0  0  0  0  0  0  0  0
    2.9630   -3.3125    1.8373 H   0  0  0  0  0  0  0  0  0  0  0  0
    4.2646   -2.9628    0.6856 H   0  0  0  0  0  0  0  0  0  0  0  0
    4.7749   -0.7377   -0.6629 H   0  0  0  0  0  0  0  0  0  0  0  0
    5.2400   -0.1893   -3.0309 H   0  0  0  0  0  0  0  0  0  0  0  0
    3.4778   -0.6048   -4.7518 H   0  0  0  0  0  0  0  0  0  0  0  0
    1.2998   -1.5638   -4.0072 H   0  0  0  0  0  0  0  0  0  0  0  0
  1  2  1  0
  2  3  1  0
  3  4  2  0
  4  5  1  0
  5  6  2  0
  6  7  1  0
  7  8  2  0
  8  9  1  0
  9 10  1  0
 10 11  1  0
 10 12  2  0
 12 13  1  0
 13 14  1  0
 14 15  1  0
  6 16  1  0
 16 17  2  0
 17 18  1  0
 18 19  1  0
 19 20  1  0
 20 21  2  0
 20 22  1  0
 22 23  1  0
 23 24  1  0
 23 25  1  0
 25 26  2  0
 26 27  1  0
 27 28  2  0
 28 29  1  0
 29 30  2  0
 22 31  1  0
  8  3  1  0
 14  9  2  0
 31 18  2  0
 31  5  1  0
 30 25  1  0
  1 32  1  0
  1 33  1  0
  1 34  1  0
  4 35  1  0
  7 36  1  0
 11 37  1  0
 11 38  1  0
 11 39  1  0
 15 40  1  0
 15 41  1  0
 15 42  1  0
 17 43  1  0
 19 44  1  0
 23 45  1  6
 24 46  1  0
 24 47  1  0
 24 48  1  0
 26 49  1  0
 27 50  1  0
 28 51  1  0
 29 52  1  0
M  END
$$$$
