
     RDKit          3D

 13 13  0  0  0  0  0  0  0  0999 V2000
   -1.6851    0.2218    0.4804 N   0  0  0  0  0  0  0  0  0  0  0  0
   -0.5931   -0.3382   -0.3411 C   0  0  2  0  0  0  0  0  0  0  0  0
    0.4033   -1.1797    0.4493 C   0  0  0  0  0  0  0  0  0  0  0  0
    1.3985   -0.2743    0.9515 O   0  0  0  0  0  0  0  0  0  0  0  0
    1.3885    0.8206    0.0563 N   0  0  0  0  0  0  0  0  0  0  0  0
    0.3262    0.7613   -0.8122 C   0  0  0  0  0  0  0  0  0  0  0  0
    0.1309    1.5143   -1.7531 O   0  0  0  0  0  0  0  0  0  0  0  0
   -2.1753    0.9229   -0.0798 H   0  0  0  0  0  0  0  0  0  0  0  0
   -1.2732    0.7361    1.2620 H   0  0  0  0  0  0  0  0  0  0  0  0
   -1.0050   -0.9030   -1.1817 H   0  0  0  0  0  0  0  0  0  0  0  0
    0.9057   -1.9088   -0.1972 H   0  0  0  0  0  0  0  0  0  0  0  0
   -0.0570   -1.7184    1.2835 H   0  0  0  0  0  0  0  0  0  0  0  0
    2.2356    1.3454   -0.1178 H   0  0  0  0  0  0  0  0  0  0  0  0
  1  2  1  0
  2  3  1  0
  3  4  1  0
  4  5  1  0
  5  6  1  0
  6  7  2  0
  6  2  1  0
  1  8  1  0
  1  9  1  0
  2 10  1  6
  3 11  1  0
  3 12  1  0
  5 13  1  0
M  END
$$$$
