
     RDKit          3D

 16 17  0  0  0  0  0  0  0  0999 V2000
   -3.2512   -0.7316    0.7725 O   0  0  0  0  0  0  0  0  0  0  0  0
   -2.6187   -0.0562   -0.0242 C   0  0  0  0  0  0  0  0  0  0  0  0
   -3.2418    0.6930   -0.9543 O   0  0  0  0  0  0  0  0  0  0  0  0
   -1.1887    0.0592   -0.1136 C   0  0  0  0  0  0  0  0  0  0  0  0
   -0.4066    0.8016   -0.9861 C   0  0  0  0  0  0  0  0  0  0  0  0
    0.9458    0.5443   -0.6266 C   0  0  0  0  0  0  0  0  0  0  0  0
    2.5464    0.9911   -1.1118 S   0  0  0  0  0  0  0  0  0  0  0  0
    3.1977   -0.0119    0.1270 C   0  0  0  0  0  0  0  0  0  0  0  0
    2.2481   -0.6647    0.8849 C   0  0  0  0  0  0  0  0  0  0  0  0
    0.9496   -0.3224    0.4242 C   0  0  0  0  0  0  0  0  0  0  0  0
   -0.3503   -0.6222    0.7419 N   0  0  0  0  0  0  0  0  0  0  0  0
   -4.1901    0.5249   -0.7839 H   0  0  0  0  0  0  0  0  0  0  0  0
   -0.7622    1.4457   -1.7795 H   0  0  0  0  0  0  0  0  0  0  0  0
    4.2723   -0.0696    0.2349 H   0  0  0  0  0  0  0  0  0  0  0  0
    2.4757   -1.3339    1.7043 H   0  0  0  0  0  0  0  0  0  0  0  0
   -0.6262   -1.2474    1.4901 H   0  0  0  0  0  0  0  0  0  0  0  0
  1  2  2  0
  2  3  1  0
  2  4  1  0
  4  5  2  0
  5  6  1  0
  6  7  1  0
  7  8  1  0
  8  9  2  0
  9 10  1  0
 10 11  1  0
 11  4  1  0
 10  6  2  0
  3 12  1  0
  5 13  1  0
  8 14  1  0
  9 15  1  0
 11 16  1  0
M  END
$$$$
