
     RDKit          3D

 51 53  0  0  0  0  0  0  0  0999 V2000
    1.0104    1.9335    1.9558 O   0  0  0  0  0  0  0  0  0  0  0  0
    1.3565    0.9870    1.2500 C   0  0  0  0  0  0  0  0  0  0  0  0
    0.5160    0.4191    0.3167 N   0  0  0  0  0  0  0  0  0  0  0  0
   -0.9189    0.7299    0.3000 C   0  0  1  0  0  0  0  0  0  0  0  0
   -1.2271    1.7775   -0.7747 C   0  0  0  0  0  0  0  0  0  0  0  0
   -2.4643    2.6317   -0.4842 C   0  0  0  0  0  0  0  0  0  0  0  0
   -4.0800    1.7983   -0.6335 S   0  0  0  0  0  0  0  0  0  0  0  0
   -3.8055    0.4187    0.5085 C   0  0  1  0  0  0  0  0  0  0  0  0
   -5.0898   -0.1641    1.1040 C   0  0  0  0  0  0  0  0  0  0  0  0
   -5.9399   -0.9671    0.1317 C   0  0  0  0  0  0  0  0  0  0  0  0
   -5.1382   -1.5604   -1.0159 C   0  0  0  0  0  0  0  0  0  0  0  0
   -3.6593   -1.8091   -0.6748 C   0  0  1  0  0  0  0  0  0  0  0  0
   -3.0433   -2.3445   -1.9828 C   0  0  0  0  0  0  0  0  0  0  0  0
   -3.2084   -3.4703   -2.4338 O   0  0  0  0  0  0  0  0  0  0  0  0
   -2.3813   -1.4222   -2.7181 O   0  0  0  0  0  0  0  0  0  0  0  0
   -3.0010   -0.5863   -0.1662 N   0  0  0  0  0  0  0  0  0  0  0  0
   -1.6289   -0.6134    0.0156 C   0  0  0  0  0  0  0  0  0  0  0  0
   -0.9769   -1.6590   -0.0837 O   0  0  0  0  0  0  0  0  0  0  0  0
    2.7681    0.4022    1.3182 C   0  0  1  0  0  0  0  0  0  0  0  0
    2.6680   -1.4175    1.6110 S   0  0  0  0  0  0  0  0  0  0  0  0
    3.5503    0.7699    0.0489 C   0  0  0  0  0  0  0  0  0  0  0  0
    5.0298    0.4744    0.1388 C   0  0  0  0  0  0  0  0  0  0  0  0
    5.8780    1.3184    0.8668 C   0  0  0  0  0  0  0  0  0  0  0  0
    7.2403    1.0318    0.9749 C   0  0  0  0  0  0  0  0  0  0  0  0
    7.7672   -0.1017    0.3631 C   0  0  0  0  0  0  0  0  0  0  0  0
    6.9335   -0.9477   -0.3641 C   0  0  0  0  0  0  0  0  0  0  0  0
    5.5716   -0.6617   -0.4783 C   0  0  0  0  0  0  0  0  0  0  0  0
    0.7254   -0.5442    0.0637 H   0  0  0  0  0  0  0  0  0  0  0  0
   -1.1922    1.0787    1.2983 H   0  0  0  0  0  0  0  0  0  0  0  0
   -0.3776    2.4698   -0.8424 H   0  0  0  0  0  0  0  0  0  0  0  0
   -1.3137    1.3093   -1.7644 H   0  0  0  0  0  0  0  0  0  0  0  0
   -2.3946    3.0824    0.5131 H   0  0  0  0  0  0  0  0  0  0  0  0
   -2.4855    3.4632   -1.1965 H   0  0  0  0  0  0  0  0  0  0  0  0
   -3.2558    0.8182    1.3651 H   0  0  0  0  0  0  0  0  0  0  0  0
   -4.7923   -0.8440    1.9136 H   0  0  0  0  0  0  0  0  0  0  0  0
   -5.6965    0.6124    1.5836 H   0  0  0  0  0  0  0  0  0  0  0  0
   -6.7422   -0.3426   -0.2752 H   0  0  0  0  0  0  0  0  0  0  0  0
   -6.4371   -1.7713    0.6883 H   0  0  0  0  0  0  0  0  0  0  0  0
   -5.2025   -0.8762   -1.8730 H   0  0  0  0  0  0  0  0  0  0  0  0
   -5.6184   -2.4889   -1.3524 H   0  0  0  0  0  0  0  0  0  0  0  0
   -3.5532   -2.5802    0.0970 H   0  0  0  0  0  0  0  0  0  0  0  0
   -2.1094   -1.9114   -3.5215 H   0  0  0  0  0  0  0  0  0  0  0  0
    3.2519    0.8274    2.2081 H   0  0  0  0  0  0  0  0  0  0  0  0
    2.4288   -1.7790    0.3398 H   0  0  0  0  0  0  0  0  0  0  0  0
    3.4355    1.8445   -0.1540 H   0  0  0  0  0  0  0  0  0  0  0  0
    3.1245    0.2743   -0.8328 H   0  0  0  0  0  0  0  0  0  0  0  0
    5.4831    2.2076    1.3572 H   0  0  0  0  0  0  0  0  0  0  0  0
    7.8893    1.6886    1.5463 H   0  0  0  0  0  0  0  0  0  0  0  0
    8.8268   -0.3278    0.4538 H   0  0  0  0  0  0  0  0  0  0  0  0
    7.3428   -1.8390   -0.8333 H   0  0  0  0  0  0  0  0  0  0  0  0
    4.9362   -1.3392   -1.0470 H   0  0  0  0  0  0  0  0  0  0  0  0
  1  2  2  0
  2  3  1  0
  3  4  1  0
  4  5  1  0
  5  6  1  0
  6  7  1  0
  7  8  1  0
  8  9  1  0
  9 10  1  0
 10 11  1  0
 11 12  1  0
 12 13  1  0
 13 14  2  0
 13 15  1  0
 12 16  1  0
 16 17  1  0
 17 18  2  0
  2 19  1  0
 19 20  1  0
 19 21  1  0
 21 22  1  0
 22 23  2  0
 23 24  1  0
 24 25  2  0
 25 26  1  0
 26 27  2  0
 17  4  1  0
 27 22  1  0
 16  8  1  0
  3 28  1  0
  4 29  1  1
  5 30  1  0
  5 31  1  0
  6 32  1  0
  6 33  1  0
  8 34  1  1
  9 35  1  0
  9 36  1  0
 10 37  1  0
 10 38  1  0
 11 39  1  0
 11 40  1  0
 12 41  1  1
 15 42  1  0
 19 43  1  1
 20 44  1  0
 21 45  1  0
 21 46  1  0
 23 47  1  0
 24 48  1  0
 25 49  1  0
 26 50  1  0
 27 51  1  0
M  END
$$$$
