
     RDKit          3D

 33 33  0  0  0  0  0  0  0  0999 V2000
   -2.8632   -2.0846    1.6473 C   0  0  0  0  0  0  0  0  0  0  0  0
   -2.9951   -0.6528    1.1493 C   0  0  0  0  0  0  0  0  0  0  0  0
   -1.8224   -0.2200    0.3892 N   0  0  0  0  0  0  0  0  0  0  0  0
   -1.7918   -0.5386   -1.0430 C   0  0  0  0  0  0  0  0  0  0  0  0
   -2.6148    0.4371   -1.8699 C   0  0  0  0  0  0  0  0  0  0  0  0
   -0.7363    0.2762    1.1135 C   0  0  0  0  0  0  0  0  0  0  0  0
   -0.7043    0.3483    2.3395 O   0  0  0  0  0  0  0  0  0  0  0  0
    0.4590    0.7374    0.3827 C   0  0  0  0  0  0  0  0  0  0  0  0
    0.4084    1.9110   -0.3734 C   0  0  0  0  0  0  0  0  0  0  0  0
    1.5484    2.3372   -1.0515 C   0  0  0  0  0  0  0  0  0  0  0  0
    2.7261    1.5923   -0.9523 C   0  0  0  0  0  0  0  0  0  0  0  0
    3.8468    2.0079   -1.6220 O   0  0  0  0  0  0  0  0  0  0  0  0
    2.7915    0.4261   -0.1710 C   0  0  0  0  0  0  0  0  0  0  0  0
    4.0010   -0.2168   -0.1415 O   0  0  0  0  0  0  0  0  0  0  0  0
    4.1353   -1.3134    0.7518 C   0  0  0  0  0  0  0  0  0  0  0  0
    1.6453    0.0036    0.5042 C   0  0  0  0  0  0  0  0  0  0  0  0
   -1.9871   -2.2009    2.2934 H   0  0  0  0  0  0  0  0  0  0  0  0
   -2.7575   -2.7861    0.8139 H   0  0  0  0  0  0  0  0  0  0  0  0
   -3.7505   -2.3692    2.2212 H   0  0  0  0  0  0  0  0  0  0  0  0
   -3.8866   -0.5498    0.5225 H   0  0  0  0  0  0  0  0  0  0  0  0
   -3.1289    0.0137    2.0091 H   0  0  0  0  0  0  0  0  0  0  0  0
   -2.1763   -1.5560   -1.1757 H   0  0  0  0  0  0  0  0  0  0  0  0
   -0.7633   -0.5484   -1.4135 H   0  0  0  0  0  0  0  0  0  0  0  0
   -2.2659    1.4653   -1.7393 H   0  0  0  0  0  0  0  0  0  0  0  0
   -2.5445    0.1846   -2.9325 H   0  0  0  0  0  0  0  0  0  0  0  0
   -3.6715    0.4082   -1.5869 H   0  0  0  0  0  0  0  0  0  0  0  0
   -0.5078    2.4927   -0.4237 H   0  0  0  0  0  0  0  0  0  0  0  0
    1.5065    3.2465   -1.6429 H   0  0  0  0  0  0  0  0  0  0  0  0
    3.6632    2.8514   -2.0629 H   0  0  0  0  0  0  0  0  0  0  0  0
    3.9405   -1.0099    1.7859 H   0  0  0  0  0  0  0  0  0  0  0  0
    5.1704   -1.6642    0.6977 H   0  0  0  0  0  0  0  0  0  0  0  0
    3.4871   -2.1441    0.4541 H   0  0  0  0  0  0  0  0  0  0  0  0
    1.6381   -0.8849    1.1266 H   0  0  0  0  0  0  0  0  0  0  0  0
  1  2  1  0
  2  3  1  0
  3  4  1  0
  4  5  1  0
  3  6  1  0
  6  7  2  0
  6  8  1  0
  8  9  2  0
  9 10  1  0
 10 11  2  0
 11 12  1  0
 11 13  1  0
 13 14  1  0
 14 15  1  0
 13 16  2  0
 16  8  1  0
  1 17  1  0
  1 18  1  0
  1 19  1  0
  2 20  1  0
  2 21  1  0
  4 22  1  0
  4 23  1  0
  5 24  1  0
  5 25  1  0
  5 26  1  0
  9 27  1  0
 10 28  1  0
 12 29  1  0
 15 30  1  0
 15 31  1  0
 15 32  1  0
 16 33  1  0
M  END
$$$$
