
     RDKit          3D

 42 44  0  0  0  0  0  0  0  0999 V2000
   -2.3359   -1.5303    1.5427 C   0  0  0  0  0  0  0  0  0  0  0  0
   -2.9548   -0.2893    1.9948 N   0  0  0  0  0  0  0  0  0  0  0  0
   -4.4035   -0.3338    1.8383 C   0  0  0  0  0  0  0  0  0  0  0  0
   -2.3406    0.9145    1.4113 C   0  0  0  0  0  0  0  0  0  0  0  0
   -2.6446    1.3099   -0.0487 C   0  0  0  0  0  0  0  0  0  0  0  0
   -2.0376    0.4332   -1.0999 C   0  0  0  0  0  0  0  0  0  0  0  0
   -2.7291   -0.3638   -1.9930 C   0  0  0  0  0  0  0  0  0  0  0  0
   -1.8229   -1.0040   -2.7929 N   0  0  0  0  0  0  0  0  0  0  0  0
   -0.5437   -0.6297   -2.4562 C   0  0  0  0  0  0  0  0  0  0  0  0
    0.6821   -1.0230   -3.0035 C   0  0  0  0  0  0  0  0  0  0  0  0
    1.8449   -0.4677   -2.4602 C   0  0  0  0  0  0  0  0  0  0  0  0
    1.7896    0.4554   -1.4102 C   0  0  0  0  0  0  0  0  0  0  0  0
    3.0618    1.0225   -0.8232 C   0  0  0  0  0  0  0  0  0  0  0  0
    3.6630    0.1098    0.2443 C   0  0  0  0  0  0  0  0  0  0  0  0
    4.9959    0.6050    0.7689 C   0  0  0  0  0  0  0  0  0  0  0  0
    5.0496    0.1051    2.1119 O   0  0  0  0  0  0  0  0  0  0  0  0
    3.7693   -0.1716    2.5025 C   0  0  0  0  0  0  0  0  0  0  0  0
    3.4492   -0.5705    3.6076 O   0  0  0  0  0  0  0  0  0  0  0  0
    2.9081    0.0286    1.4561 N   0  0  0  0  0  0  0  0  0  0  0  0
    0.5424    0.8324   -0.8807 C   0  0  0  0  0  0  0  0  0  0  0  0
   -0.6454    0.2803   -1.4048 C   0  0  0  0  0  0  0  0  0  0  0  0
   -2.5773   -1.7760    0.5054 H   0  0  0  0  0  0  0  0  0  0  0  0
   -2.6752   -2.3656    2.1660 H   0  0  0  0  0  0  0  0  0  0  0  0
   -1.2462   -1.4891    1.6488 H   0  0  0  0  0  0  0  0  0  0  0  0
   -4.8627    0.5909    2.2051 H   0  0  0  0  0  0  0  0  0  0  0  0
   -4.7107   -0.4856    0.7980 H   0  0  0  0  0  0  0  0  0  0  0  0
   -4.8255   -1.1499    2.4356 H   0  0  0  0  0  0  0  0  0  0  0  0
   -2.6656    1.7579    2.0362 H   0  0  0  0  0  0  0  0  0  0  0  0
   -1.2552    0.8668    1.5656 H   0  0  0  0  0  0  0  0  0  0  0  0
   -3.7279    1.3842   -0.2020 H   0  0  0  0  0  0  0  0  0  0  0  0
   -2.2615    2.3274   -0.2067 H   0  0  0  0  0  0  0  0  0  0  0  0
   -3.7903   -0.5330   -2.1188 H   0  0  0  0  0  0  0  0  0  0  0  0
   -2.0544   -1.6531   -3.5318 H   0  0  0  0  0  0  0  0  0  0  0  0
    0.7358   -1.7337   -3.8219 H   0  0  0  0  0  0  0  0  0  0  0  0
    2.8055   -0.7671   -2.8755 H   0  0  0  0  0  0  0  0  0  0  0  0
    2.8581    2.0188   -0.4093 H   0  0  0  0  0  0  0  0  0  0  0  0
    3.7858    1.1750   -1.6341 H   0  0  0  0  0  0  0  0  0  0  0  0
    3.7727   -0.9173   -0.1280 H   0  0  0  0  0  0  0  0  0  0  0  0
    5.8380    0.2122    0.1914 H   0  0  0  0  0  0  0  0  0  0  0  0
    5.0681    1.6976    0.8094 H   0  0  0  0  0  0  0  0  0  0  0  0
    2.0027   -0.4205    1.5257 H   0  0  0  0  0  0  0  0  0  0  0  0
    0.4880    1.5476   -0.0643 H   0  0  0  0  0  0  0  0  0  0  0  0
  1  2  1  0
  2  3  1  0
  2  4  1  0
  4  5  1  0
  5  6  1  0
  6  7  2  0
  7  8  1  0
  8  9  1  0
  9 10  2  0
 10 11  1  0
 11 12  2  0
 12 13  1  0
 13 14  1  0
 14 15  1  0
 15 16  1  0
 16 17  1  0
 17 18  2  0
 17 19  1  0
 12 20  1  0
 20 21  2  0
 21  6  1  0
 21  9  1  0
 19 14  1  0
  1 22  1  0
  1 23  1  0
  1 24  1  0
  3 25  1  0
  3 26  1  0
  3 27  1  0
  4 28  1  0
  4 29  1  0
  5 30  1  0
  5 31  1  0
  7 32  1  0
  8 33  1  0
 10 34  1  0
 11 35  1  0
 13 36  1  0
 13 37  1  0
 14 38  1  0
 15 39  1  0
 15 40  1  0
 19 41  1  0
 20 42  1  0
M  END
$$$$
