
     RDKit          3D

 29 31  0  0  0  0  0  0  0  0999 V2000
    5.6603    0.7219   -0.1106 C   0  0  0  0  0  0  0  0  0  0  0  0
    4.2239    0.3557   -0.1436 C   0  0  0  0  0  0  0  0  0  0  0  0
    3.6361   -0.8114   -0.6647 C   0  0  0  0  0  0  0  0  0  0  0  0
    2.2882   -0.6537   -0.4524 C   0  0  0  0  0  0  0  0  0  0  0  0
    2.1123    0.5527    0.2048 N   0  0  0  0  0  0  0  0  0  0  0  0
    0.9273    1.1982    0.6290 C   0  0  0  0  0  0  0  0  0  0  0  0
    0.9396    2.3656    1.0111 O   0  0  0  0  0  0  0  0  0  0  0  0
   -0.3244    0.4230    0.5078 C   0  0  0  0  0  0  0  0  0  0  0  0
   -1.3219    1.0036   -0.1765 C   0  0  0  0  0  0  0  0  0  0  0  0
   -2.5963    0.3195   -0.3170 C   0  0  0  0  0  0  0  0  0  0  0  0
   -3.6606    0.8708   -1.0326 C   0  0  0  0  0  0  0  0  0  0  0  0
   -4.8652    0.1689   -1.1443 C   0  0  0  0  0  0  0  0  0  0  0  0
   -5.0105   -1.0836   -0.5427 C   0  0  0  0  0  0  0  0  0  0  0  0
   -3.9527   -1.6390    0.1744 C   0  0  0  0  0  0  0  0  0  0  0  0
   -2.7595   -0.9288    0.2777 C   0  0  0  0  0  0  0  0  0  0  0  0
   -1.7158   -1.5180    1.0151 O   0  0  0  0  0  0  0  0  0  0  0  0
   -0.4976   -0.8719    1.1896 C   0  0  0  0  0  0  0  0  0  0  0  0
    0.3950   -1.3655    1.8682 O   0  0  0  0  0  0  0  0  0  0  0  0
    3.3090    1.1920    0.3533 N   0  0  0  0  0  0  0  0  0  0  0  0
    6.2811   -0.0784   -0.5260 H   0  0  0  0  0  0  0  0  0  0  0  0
    5.8386    1.6286   -0.6976 H   0  0  0  0  0  0  0  0  0  0  0  0
    5.9873    0.9041    0.9182 H   0  0  0  0  0  0  0  0  0  0  0  0
    4.1269   -1.6512   -1.1368 H   0  0  0  0  0  0  0  0  0  0  0  0
    1.4604   -1.2977   -0.7067 H   0  0  0  0  0  0  0  0  0  0  0  0
   -1.2080    1.9827   -0.6350 H   0  0  0  0  0  0  0  0  0  0  0  0
   -3.5695    1.8452   -1.5072 H   0  0  0  0  0  0  0  0  0  0  0  0
   -5.6941    0.6007   -1.7011 H   0  0  0  0  0  0  0  0  0  0  0  0
   -5.9503   -1.6236   -0.6316 H   0  0  0  0  0  0  0  0  0  0  0  0
   -4.0594   -2.6105    0.6483 H   0  0  0  0  0  0  0  0  0  0  0  0
  1  2  1  0
  2  3  1  0
  3  4  2  0
  4  5  1  0
  5  6  1  0
  6  7  2  0
  6  8  1  0
  8  9  2  0
  9 10  1  0
 10 11  2  0
 11 12  1  0
 12 13  2  0
 13 14  1  0
 14 15  2  0
 15 16  1  0
 16 17  1  0
 17 18  2  0
  5 19  1  0
 19  2  2  0
 17  8  1  0
 15 10  1  0
  1 20  1  0
  1 21  1  0
  1 22  1  0
  3 23  1  0
  4 24  1  0
  9 25  1  0
 11 26  1  0
 12 27  1  0
 13 28  1  0
 14 29  1  0
M  END
$$$$
