
     RDKit          3D

 57 59  0  0  0  0  0  0  0  0999 V2000
    4.9489    0.4605    1.0199 C   0  0  0  0  0  0  0  0  0  0  0  0
    3.5631    0.3908    0.5615 N   0  0  0  0  0  0  0  0  0  0  0  0
    3.4454    0.3852   -0.9101 C   0  0  0  0  0  0  0  0  0  0  0  0
    3.7783   -1.0541   -1.3204 C   0  0  0  0  0  0  0  0  0  0  0  0
    3.4160   -1.8926   -0.1015 C   0  0  0  0  0  0  0  0  0  0  0  0
    2.9014   -0.8771    0.9245 C   0  0  0  0  0  0  0  0  0  0  0  0
    1.3797   -0.6749    0.7851 C   0  0  0  0  0  0  0  0  0  0  0  0
    1.0041    0.5170   -0.1142 C   0  0  0  0  0  0  0  0  0  0  0  0
   -0.3074    0.3703   -0.6710 O   0  0  0  0  0  0  0  0  0  0  0  0
   -1.3751    0.5264    0.2791 C   0  0  0  0  0  0  0  0  0  0  0  0
   -2.3491    1.5863   -0.2209 C   0  0  0  0  0  0  0  0  0  0  0  0
   -3.0694    2.3698    0.7010 C   0  0  0  0  0  0  0  0  0  0  0  0
   -3.9796    3.3340    0.2613 C   0  0  0  0  0  0  0  0  0  0  0  0
   -4.1874    3.5251   -1.1045 C   0  0  0  0  0  0  0  0  0  0  0  0
   -3.4874    2.7518   -2.0319 C   0  0  0  0  0  0  0  0  0  0  0  0
   -2.5763    1.7883   -1.5935 C   0  0  0  0  0  0  0  0  0  0  0  0
   -2.0520   -0.8168    0.5107 C   0  0  0  0  0  0  0  0  0  0  0  0
   -2.4625   -1.1879    1.8034 C   0  0  0  0  0  0  0  0  0  0  0  0
   -3.0984   -2.4113    2.0255 C   0  0  0  0  0  0  0  0  0  0  0  0
   -3.3363   -3.2774    0.9598 C   0  0  0  0  0  0  0  0  0  0  0  0
   -2.9388   -2.9225   -0.3288 C   0  0  0  0  0  0  0  0  0  0  0  0
   -2.3023   -1.7003   -0.5523 C   0  0  0  0  0  0  0  0  0  0  0  0
    1.9893    0.7346   -1.2740 C   0  0  0  0  0  0  0  0  0  0  0  0
   -1.1081   -0.1759   -0.1271 C   0  0  0  0  0  0  0  0  0  0  0  0
    0.5765    0.3713   -0.2779 S   0  0  0  0  0  6  0  0  0  0  0  0
    0.7619    1.5814    0.4896 O   0  0  0  0  0  0  0  0  0  0  0  0
    1.0086    0.2433   -1.6491 O   0  0  0  0  0  0  0  0  0  0  0  0
    1.2718   -0.8046    0.5820 O   0  0  0  0  0  0  0  0  0  0  0  0
    5.5838   -0.3487    0.6452 H   0  0  0  0  0  0  0  0  0  0  0  0
    4.9825    0.4351    2.1152 H   0  0  0  0  0  0  0  0  0  0  0  0
    5.3963    1.4130    0.7141 H   0  0  0  0  0  0  0  0  0  0  0  0
    4.1173    1.0993   -1.4005 H   0  0  0  0  0  0  0  0  0  0  0  0
    4.8501   -1.1572   -1.5302 H   0  0  0  0  0  0  0  0  0  0  0  0
    3.2392   -1.3852   -2.2136 H   0  0  0  0  0  0  0  0  0  0  0  0
    2.6846   -2.6695   -0.3459 H   0  0  0  0  0  0  0  0  0  0  0  0
    4.3139   -2.3984    0.2742 H   0  0  0  0  0  0  0  0  0  0  0  0
    3.1246   -1.2040    1.9462 H   0  0  0  0  0  0  0  0  0  0  0  0
    0.9612   -0.4823    1.7814 H   0  0  0  0  0  0  0  0  0  0  0  0
    0.8916   -1.5920    0.4346 H   0  0  0  0  0  0  0  0  0  0  0  0
    1.0213    1.4349    0.4926 H   0  0  0  0  0  0  0  0  0  0  0  0
   -0.9600    0.8850    1.2312 H   0  0  0  0  0  0  0  0  0  0  0  0
   -2.9270    2.2309    1.7714 H   0  0  0  0  0  0  0  0  0  0  0  0
   -4.5296    3.9336    0.9852 H   0  0  0  0  0  0  0  0  0  0  0  0
   -4.8971    4.2739   -1.4466 H   0  0  0  0  0  0  0  0  0  0  0  0
   -3.6503    2.8959   -3.0978 H   0  0  0  0  0  0  0  0  0  0  0  0
   -2.0384    1.1910   -2.3298 H   0  0  0  0  0  0  0  0  0  0  0  0
   -2.2912   -0.5236    2.6477 H   0  0  0  0  0  0  0  0  0  0  0  0
   -3.4123   -2.6871    3.0298 H   0  0  0  0  0  0  0  0  0  0  0  0
   -3.8353   -4.2271    1.1329 H   0  0  0  0  0  0  0  0  0  0  0  0
   -3.1270   -3.5941   -1.1624 H   0  0  0  0  0  0  0  0  0  0  0  0
   -1.9980   -1.4341   -1.5636 H   0  0  0  0  0  0  0  0  0  0  0  0
    1.6606    0.1889   -2.1677 H   0  0  0  0  0  0  0  0  0  0  0  0
    1.9354    1.7965   -1.5522 H   0  0  0  0  0  0  0  0  0  0  0  0
   -1.7437    0.5381   -0.6549 H   0  0  0  0  0  0  0  0  0  0  0  0
   -1.3767   -0.2054    0.9304 H   0  0  0  0  0  0  0  0  0  0  0  0
   -1.1990   -1.1644   -0.5808 H   0  0  0  0  0  0  0  0  0  0  0  0
    1.8087   -0.3839    1.2878 H   0  0  0  0  0  0  0  0  0  0  0  0
  1  2  1  0
  2  3  1  0
  3  4  1  0
  4  5  1  0
  5  6  1  0
  6  7  1  0
  7  8  1  0
  8  9  1  0
  9 10  1  0
 10 11  1  0
 11 12  2  0
 12 13  1  0
 13 14  2  0
 14 15  1  0
 15 16  2  0
 10 17  1  0
 17 18  2  0
 18 19  1  0
 19 20  2  0
 20 21  1  0
 21 22  2  0
  8 23  1  0
 24 25  1  0
 25 26  2  0
 25 27  2  0
 25 28  1  0
  6  2  1  0
 16 11  1  0
 22 17  1  0
 23  3  1  0
  1 29  1  0
  1 30  1  0
  1 31  1  0
  3 32  1  0
  4 33  1  0
  4 34  1  0
  5 35  1  0
  5 36  1  0
  6 37  1  0
  7 38  1  0
  7 39  1  0
  8 40  1  0
 10 41  1  0
 12 42  1  0
 13 43  1  0
 14 44  1  0
 15 45  1  0
 16 46  1  0
 18 47  1  0
 19 48  1  0
 20 49  1  0
 21 50  1  0
 22 51  1  0
 23 52  1  0
 23 53  1  0
 24 54  1  0
 24 55  1  0
 24 56  1  0
 28 57  1  0
M  END
$$$$
