
     RDKit          3D

 41 43  0  0  0  0  0  0  0  0999 V2000
   -2.4112   -1.0921    2.6316 C   0  0  0  0  0  0  0  0  0  0  0  0
   -2.6965   -0.2078    1.4066 C   0  0  0  0  0  0  0  0  0  0  0  0
   -3.8874    0.7017    1.7327 C   0  0  0  0  0  0  0  0  0  0  0  0
   -1.1843    0.8383    1.1377 S   0  0  0  0  0  0  0  0  0  0  0  0
   -1.1105    1.0268   -0.6457 C   0  0  0  0  0  0  0  0  0  0  0  0
   -2.0778    1.8083   -1.2843 C   0  0  0  0  0  0  0  0  0  0  0  0
   -2.0174    1.9528   -2.6590 C   0  0  0  0  0  0  0  0  0  0  0  0
   -1.0660    1.3906   -3.4274 N   0  0  0  0  0  0  0  0  0  0  0  0
   -0.1171    0.6693   -2.7863 C   0  0  0  0  0  0  0  0  0  0  0  0
   -0.0709    0.4566   -1.4070 C   0  0  0  0  0  0  0  0  0  0  0  0
    1.0418   -0.3235   -0.8309 C   0  0  0  0  0  0  0  0  0  0  0  0
    0.9116   -1.7207   -0.7775 C   0  0  0  0  0  0  0  0  0  0  0  0
    1.9201   -2.5125   -0.2422 C   0  0  0  0  0  0  0  0  0  0  0  0
    3.0906   -1.9244    0.2458 C   0  0  0  0  0  0  0  0  0  0  0  0
    4.0950   -2.7978    0.7884 C   0  0  0  0  0  0  0  0  0  0  0  0
    4.9041   -3.5078    1.2234 N   0  0  0  0  0  0  0  0  0  0  0  0
    3.2712   -0.5187    0.2001 C   0  0  0  0  0  0  0  0  0  0  0  0
    4.4462    0.1150    0.6770 C   0  0  0  0  0  0  0  0  0  0  0  0
    4.6108    1.4985    0.6239 C   0  0  0  0  0  0  0  0  0  0  0  0
    3.6052    2.2879    0.0930 C   0  0  0  0  0  0  0  0  0  0  0  0
    2.4371    1.6925   -0.3835 C   0  0  0  0  0  0  0  0  0  0  0  0
    2.2352    0.2911   -0.3454 C   0  0  0  0  0  0  0  0  0  0  0  0
   -2.9575   -1.1338    0.2172 C   0  0  0  0  0  0  0  0  0  0  0  0
   -2.3253   -2.1371   -0.0795 O   0  0  0  0  0  0  0  0  0  0  0  0
   -3.9902   -0.7569   -0.5659 O   0  0  0  0  0  0  0  0  0  0  0  0
   -3.2623   -1.7527    2.8379 H   0  0  0  0  0  0  0  0  0  0  0  0
   -2.2328   -0.4968    3.5349 H   0  0  0  0  0  0  0  0  0  0  0  0
   -1.5402   -1.7405    2.4755 H   0  0  0  0  0  0  0  0  0  0  0  0
   -4.7843    0.1045    1.9380 H   0  0  0  0  0  0  0  0  0  0  0  0
   -4.1417    1.3736    0.9073 H   0  0  0  0  0  0  0  0  0  0  0  0
   -3.6979    1.3175    2.6199 H   0  0  0  0  0  0  0  0  0  0  0  0
   -2.8665    2.3066   -0.7332 H   0  0  0  0  0  0  0  0  0  0  0  0
   -2.7548    2.5464   -3.1923 H   0  0  0  0  0  0  0  0  0  0  0  0
    0.6478    0.2539   -3.4394 H   0  0  0  0  0  0  0  0  0  0  0  0
    0.0072   -2.2023   -1.1473 H   0  0  0  0  0  0  0  0  0  0  0  0
    1.7832   -3.5922   -0.2051 H   0  0  0  0  0  0  0  0  0  0  0  0
    5.2626   -0.4671    1.1035 H   0  0  0  0  0  0  0  0  0  0  0  0
    5.5240    1.9535    0.9990 H   0  0  0  0  0  0  0  0  0  0  0  0
    3.7222    3.3677    0.0487 H   0  0  0  0  0  0  0  0  0  0  0  0
    1.6719    2.3526   -0.7885 H   0  0  0  0  0  0  0  0  0  0  0  0
   -3.9953   -1.4210   -1.2883 H   0  0  0  0  0  0  0  0  0  0  0  0
  1  2  1  0
  2  3  1  0
  2  4  1  0
  4  5  1  0
  5  6  2  0
  6  7  1  0
  7  8  2  0
  8  9  1  0
  9 10  2  0
 10 11  1  0
 11 12  2  0
 12 13  1  0
 13 14  2  0
 14 15  1  0
 15 16  3  0
 14 17  1  0
 17 18  2  0
 18 19  1  0
 19 20  2  0
 20 21  1  0
 21 22  2  0
  2 23  1  0
 23 24  2  0
 23 25  1  0
 10  5  1  0
 22 11  1  0
 22 17  1  0
  1 26  1  0
  1 27  1  0
  1 28  1  0
  3 29  1  0
  3 30  1  0
  3 31  1  0
  6 32  1  0
  7 33  1  0
  9 34  1  0
 12 35  1  0
 13 36  1  0
 18 37  1  0
 19 38  1  0
 20 39  1  0
 21 40  1  0
 25 41  1  0
M  END
$$$$
