
     RDKit          3D

 23 24  0  0  0  0  0  0  0  0999 V2000
    0.5194    2.0620   -0.6420 O   0  0  0  0  0  0  0  0  0  0  0  0
    0.9124    0.9575   -0.2789 C   0  0  0  0  0  0  0  0  0  0  0  0
    0.0902   -0.1311   -0.0128 N   0  0  0  0  0  0  0  0  0  0  0  0
   -1.3193   -0.1786   -0.0468 C   0  0  0  0  0  0  0  0  0  0  0  0
   -1.9205   -1.4220    0.1945 C   0  0  0  0  0  0  0  0  0  0  0  0
   -3.3115   -1.5580    0.1850 C   0  0  0  0  0  0  0  0  0  0  0  0
   -4.1165   -0.4506   -0.0643 C   0  0  0  0  0  0  0  0  0  0  0  0
   -3.5294    0.7895   -0.3023 C   0  0  0  0  0  0  0  0  0  0  0  0
   -2.1369    0.9256   -0.2927 C   0  0  0  0  0  0  0  0  0  0  0  0
    2.3576    0.6646   -0.0977 C   0  0  0  0  0  0  0  0  0  0  0  0
    2.9689   -0.3827    0.6551 C   0  0  0  0  0  0  0  0  0  0  0  0
    4.3232   -0.2078    0.5056 C   0  0  0  0  0  0  0  0  0  0  0  0
    4.4695    0.8894   -0.2858 N   0  0  0  0  0  0  0  0  0  0  0  0
    3.3073    1.4329   -0.6662 N   0  0  0  0  0  0  0  0  0  0  0  0
    0.5502   -1.0099    0.1717 H   0  0  0  0  0  0  0  0  0  0  0  0
   -1.3178   -2.3045    0.3913 H   0  0  0  0  0  0  0  0  0  0  0  0
   -3.7651   -2.5279    0.3714 H   0  0  0  0  0  0  0  0  0  0  0  0
   -5.1985   -0.5512   -0.0735 H   0  0  0  0  0  0  0  0  0  0  0  0
   -4.1524    1.6590   -0.4971 H   0  0  0  0  0  0  0  0  0  0  0  0
   -1.7270    1.9132   -0.4800 H   0  0  0  0  0  0  0  0  0  0  0  0
    2.4910   -1.1497    1.2472 H   0  0  0  0  0  0  0  0  0  0  0  0
    5.1765   -0.7459    0.8930 H   0  0  0  0  0  0  0  0  0  0  0  0
    5.3287    1.3264   -0.6046 H   0  0  0  0  0  0  0  0  0  0  0  0
  1  2  2  0
  2  3  1  0
  3  4  1  0
  4  5  2  0
  5  6  1  0
  6  7  2  0
  7  8  1  0
  8  9  2  0
  2 10  1  0
 10 11  1  0
 11 12  2  0
 12 13  1  0
 13 14  1  0
  9  4  1  0
 14 10  2  0
  3 15  1  0
  5 16  1  0
  6 17  1  0
  7 18  1  0
  8 19  1  0
  9 20  1  0
 11 21  1  0
 12 22  1  0
 13 23  1  0
M  END
$$$$
