
     RDKit          3D

 51 52  0  0  0  0  0  0  0  0999 V2000
   -6.0660    2.8072    0.6716 C   0  0  0  0  0  0  0  0  0  0  0  0
   -4.6500    2.9442    0.6887 O   0  0  0  0  0  0  0  0  0  0  0  0
   -3.9164    1.7909    0.5462 C   0  0  0  0  0  0  0  0  0  0  0  0
   -4.4322    0.5028    0.3668 C   0  0  0  0  0  0  0  0  0  0  0  0
   -3.5970   -0.6250    0.2321 C   0  0  0  0  0  0  0  0  0  0  0  0
   -4.1357   -1.9130    0.0713 N   0  0  0  0  0  0  0  0  0  0  0  0
   -3.2237   -3.0488   -0.0601 C   0  0  0  0  0  0  0  0  0  0  0  0
   -5.3817   -2.0282   -0.6894 C   0  0  0  0  0  0  0  0  0  0  0  0
   -2.2106   -0.3913    0.3162 C   0  0  0  0  0  0  0  0  0  0  0  0
   -1.6569    0.8951    0.4804 C   0  0  0  0  0  0  0  0  0  0  0  0
   -0.1562    1.0703    0.5777 C   0  0  0  0  0  0  0  0  0  0  0  0
    0.5978    0.3926   -0.5072 N   0  0  0  0  0  0  0  0  0  0  0  0
    0.3636    1.0827   -1.7824 C   0  0  0  0  0  0  0  0  0  0  0  0
    2.0345    0.3760   -0.1632 C   0  0  0  0  0  0  0  0  0  0  0  0
    2.8729   -0.5248   -1.0869 C   0  0  0  0  0  0  0  0  0  0  0  0
    4.3062   -0.6282   -0.6133 C   0  0  0  0  0  0  0  0  0  0  0  0
    4.6904   -1.6576    0.2589 C   0  0  0  0  0  0  0  0  0  0  0  0
    6.0079   -1.7470    0.7139 C   0  0  0  0  0  0  0  0  0  0  0  0
    6.9477   -0.7968    0.2956 C   0  0  0  0  0  0  0  0  0  0  0  0
    8.3332   -0.8850    0.7724 N   0  0  0  0  0  4  0  0  0  0  0  0
    9.1348   -0.0244    0.3804 O   0  0  0  0  0  0  0  0  0  0  0  0
    8.6214   -1.8142    1.5403 O   0  0  0  0  0  1  0  0  0  0  0  0
    6.5766    0.2389   -0.5709 C   0  0  0  0  0  0  0  0  0  0  0  0
    5.2565    0.3203   -1.0202 C   0  0  0  0  0  0  0  0  0  0  0  0
   -2.5310    1.9709    0.5999 C   0  0  0  0  0  0  0  0  0  0  0  0
   -2.0349    3.2359    0.7841 O   0  0  0  0  0  0  0  0  0  0  0  0
   -6.4989    3.8035    0.8034 H   0  0  0  0  0  0  0  0  0  0  0  0
   -6.4126    2.1816    1.5006 H   0  0  0  0  0  0  0  0  0  0  0  0
   -6.4131    2.4189   -0.2915 H   0  0  0  0  0  0  0  0  0  0  0  0
   -5.5046    0.3589    0.3556 H   0  0  0  0  0  0  0  0  0  0  0  0
   -3.7800   -3.9931   -0.0674 H   0  0  0  0  0  0  0  0  0  0  0  0
   -2.5390   -3.1109    0.7931 H   0  0  0  0  0  0  0  0  0  0  0  0
   -2.6506   -2.9912   -0.9920 H   0  0  0  0  0  0  0  0  0  0  0  0
   -5.2964   -1.5371   -1.6655 H   0  0  0  0  0  0  0  0  0  0  0  0
   -6.2262   -1.6029   -0.1372 H   0  0  0  0  0  0  0  0  0  0  0  0
   -5.6393   -3.0779   -0.8716 H   0  0  0  0  0  0  0  0  0  0  0  0
   -1.5065   -1.2158    0.2360 H   0  0  0  0  0  0  0  0  0  0  0  0
    0.1243    2.1302    0.6164 H   0  0  0  0  0  0  0  0  0  0  0  0
    0.1287    0.6416    1.5482 H   0  0  0  0  0  0  0  0  0  0  0  0
    0.7318    2.1151   -1.7666 H   0  0  0  0  0  0  0  0  0  0  0  0
    0.8487    0.5559   -2.6100 H   0  0  0  0  0  0  0  0  0  0  0  0
   -0.7016    1.1038   -2.0367 H   0  0  0  0  0  0  0  0  0  0  0  0
    2.4440    1.3954   -0.1536 H   0  0  0  0  0  0  0  0  0  0  0  0
    2.1467   -0.0117    0.8586 H   0  0  0  0  0  0  0  0  0  0  0  0
    2.4338   -1.5298   -1.1329 H   0  0  0  0  0  0  0  0  0  0  0  0
    2.8747   -0.1462   -2.1155 H   0  0  0  0  0  0  0  0  0  0  0  0
    3.9616   -2.3960    0.5899 H   0  0  0  0  0  0  0  0  0  0  0  0
    6.2815   -2.5556    1.3885 H   0  0  0  0  0  0  0  0  0  0  0  0
    7.2960    0.9848   -0.9024 H   0  0  0  0  0  0  0  0  0  0  0  0
    4.9722    1.1288   -1.6915 H   0  0  0  0  0  0  0  0  0  0  0  0
   -2.8262    3.8062    0.8491 H   0  0  0  0  0  0  0  0  0  0  0  0
  1  2  1  0
  2  3  1  0
  3  4  2  0
  4  5  1  0
  5  6  1  0
  6  7  1  0
  6  8  1  0
  5  9  2  0
  9 10  1  0
 10 11  1  0
 11 12  1  0
 12 13  1  0
 12 14  1  0
 14 15  1  0
 15 16  1  0
 16 17  2  0
 17 18  1  0
 18 19  2  0
 19 20  1  0
 20 21  2  0
 20 22  1  0
 19 23  1  0
 23 24  2  0
 10 25  2  0
 25 26  1  0
 25  3  1  0
 24 16  1  0
  1 27  1  0
  1 28  1  0
  1 29  1  0
  4 30  1  0
  7 31  1  0
  7 32  1  0
  7 33  1  0
  8 34  1  0
  8 35  1  0
  8 36  1  0
  9 37  1  0
 11 38  1  0
 11 39  1  0
 13 40  1  0
 13 41  1  0
 13 42  1  0
 14 43  1  0
 14 44  1  0
 15 45  1  0
 15 46  1  0
 17 47  1  0
 18 48  1  0
 23 49  1  0
 24 50  1  0
 26 51  1  0
M  CHG  2  20   1  22  -1
M  END
$$$$
