
     RDKit          3D

 44 45  0  0  0  0  0  0  0  0999 V2000
   -3.8503   -1.1542    1.1072 C   0  0  0  0  0  0  0  0  0  0  0  0
   -3.0750   -0.0752    0.4938 N   0  0  0  0  0  0  0  0  0  0  0  0
   -1.7072   -0.1886    0.2016 C   0  0  0  0  0  0  0  0  0  0  0  0
   -1.1239    0.6663   -0.4717 O   0  0  0  0  0  0  0  0  0  0  0  0
   -0.9511   -1.4161    0.7330 C   0  0  0  0  0  0  0  0  0  0  0  0
    0.4608   -1.3204    0.5334 O   0  0  0  0  0  0  0  0  0  0  0  0
    1.0778   -0.4760    1.3953 C   0  0  0  0  0  0  0  0  0  0  0  0
    0.5536    0.0874    2.3451 O   0  0  0  0  0  0  0  0  0  0  0  0
    2.5126   -0.3123    1.0819 C   0  0  0  0  0  0  0  0  0  0  0  0
    3.1280   -0.8811    0.0331 C   0  0  0  0  0  0  0  0  0  0  0  0
    4.5570   -0.7144   -0.2680 C   0  0  0  0  0  0  0  0  0  0  0  0
    5.2601   -1.7986   -0.8141 C   0  0  0  0  0  0  0  0  0  0  0  0
    6.6139   -1.6858   -1.1442 C   0  0  0  0  0  0  0  0  0  0  0  0
    7.2834   -0.4804   -0.9426 C   0  0  0  0  0  0  0  0  0  0  0  0
    6.5847    0.6116   -0.4133 C   0  0  0  0  0  0  0  0  0  0  0  0
    7.2821    1.8870   -0.2073 N   0  0  0  0  0  4  0  0  0  0  0  0
    8.4605    1.9669   -0.5825 O   0  0  0  0  0  0  0  0  0  0  0  0
    6.6526    2.8080    0.3322 O   0  0  0  0  0  1  0  0  0  0  0  0
    5.2256    0.5027   -0.0808 C   0  0  0  0  0  0  0  0  0  0  0  0
   -3.7494    1.1590    0.0242 C   0  0  0  0  0  0  0  0  0  0  0  0
   -4.0918    1.1152   -1.4770 C   0  0  0  0  0  0  0  0  0  0  0  0
   -5.4349    0.4188   -1.6209 C   0  0  0  0  0  0  0  0  0  0  0  0
   -6.3822    0.9306   -0.2005 S   0  0  0  0  0  6  0  0  0  0  0  0
   -7.2443    2.0274   -0.5883 O   0  0  0  0  0  0  0  0  0  0  0  0
   -6.8935   -0.2501    0.4655 O   0  0  0  0  0  0  0  0  0  0  0  0
   -5.0268    1.5841    0.7523 C   0  0  0  0  0  0  0  0  0  0  0  0
   -4.5836   -1.5198    0.3874 H   0  0  0  0  0  0  0  0  0  0  0  0
   -4.3486   -0.7826    2.0048 H   0  0  0  0  0  0  0  0  0  0  0  0
   -3.2347   -2.0054    1.3972 H   0  0  0  0  0  0  0  0  0  0  0  0
   -1.1669   -1.5788    1.7946 H   0  0  0  0  0  0  0  0  0  0  0  0
   -1.2913   -2.2913    0.1700 H   0  0  0  0  0  0  0  0  0  0  0  0
    3.0387    0.3204    1.7886 H   0  0  0  0  0  0  0  0  0  0  0  0
    2.5771   -1.5231   -0.6512 H   0  0  0  0  0  0  0  0  0  0  0  0
    4.7585   -2.7507   -0.9819 H   0  0  0  0  0  0  0  0  0  0  0  0
    7.1438   -2.5401   -1.5601 H   0  0  0  0  0  0  0  0  0  0  0  0
    8.3371   -0.4070   -1.2044 H   0  0  0  0  0  0  0  0  0  0  0  0
    4.6877    1.3650    0.3083 H   0  0  0  0  0  0  0  0  0  0  0  0
   -3.0181    1.9638    0.1776 H   0  0  0  0  0  0  0  0  0  0  0  0
   -4.1868    2.1447   -1.8460 H   0  0  0  0  0  0  0  0  0  0  0  0
   -3.3257    0.6211   -2.0822 H   0  0  0  0  0  0  0  0  0  0  0  0
   -5.9580    0.7106   -2.5343 H   0  0  0  0  0  0  0  0  0  0  0  0
   -5.3286   -0.6681   -1.5924 H   0  0  0  0  0  0  0  0  0  0  0  0
   -5.1272    2.6747    0.7215 H   0  0  0  0  0  0  0  0  0  0  0  0
   -5.0956    1.2548    1.7897 H   0  0  0  0  0  0  0  0  0  0  0  0
  1  2  1  0
  2  3  1  0
  3  4  2  0
  3  5  1  0
  5  6  1  0
  6  7  1  0
  7  8  2  0
  7  9  1  0
  9 10  2  0
 10 11  1  0
 11 12  2  0
 12 13  1  0
 13 14  2  0
 14 15  1  0
 15 16  1  0
 16 17  2  0
 16 18  1  0
 15 19  2  0
  2 20  1  0
 20 21  1  0
 21 22  1  0
 22 23  1  0
 23 24  2  0
 23 25  2  0
 23 26  1  0
 19 11  1  0
 26 20  1  0
  1 27  1  0
  1 28  1  0
  1 29  1  0
  5 30  1  0
  5 31  1  0
  9 32  1  0
 10 33  1  0
 12 34  1  0
 13 35  1  0
 14 36  1  0
 19 37  1  0
 20 38  1  0
 21 39  1  0
 21 40  1  0
 22 41  1  0
 22 42  1  0
 26 43  1  0
 26 44  1  0
M  CHG  2  16   1  18  -1
M  END
$$$$
