
     RDKit          3D

 46 49  0  0  0  0  0  0  0  0999 V2000
   -8.1272    0.6999    0.3877 C   0  0  0  0  0  0  0  0  0  0  0  0
   -6.7114    0.2865    0.2316 C   0  0  0  0  0  0  0  0  0  0  0  0
   -5.5389    0.9431    0.5437 C   0  0  0  0  0  0  0  0  0  0  0  0
   -4.4521    0.0974    0.1886 C   0  0  0  0  0  0  0  0  0  0  0  0
   -3.0531    0.2092    0.2651 C   0  0  0  0  0  0  0  0  0  0  0  0
   -2.4821    1.3091    0.7800 F   0  0  0  0  0  0  0  0  0  0  0  0
   -2.2600   -0.8451   -0.1970 C   0  0  0  0  0  0  0  0  0  0  0  0
   -0.8651   -0.7700   -0.0945 O   0  0  0  0  0  0  0  0  0  0  0  0
   -0.2618    0.0730   -1.0105 C   0  0  0  0  0  0  0  0  0  0  0  0
   -0.8576    0.6553   -1.9970 N   0  0  0  0  0  0  0  0  0  0  0  0
   -0.0862    1.4512   -2.8048 C   0  0  0  0  0  0  0  0  0  0  0  0
    1.1887    1.6703   -2.6987 N   0  0  0  0  0  0  0  0  0  0  0  0
    1.7768    1.0375   -1.6675 N   0  0  0  0  0  0  0  0  0  0  0  0
    3.1037    1.1020   -1.3438 C   0  0  0  0  0  0  0  0  0  0  0  0
    3.2988    0.3215   -0.2267 C   0  0  0  0  0  0  0  0  0  0  0  0
    4.4542    0.0924    0.4393 O   0  0  0  0  0  0  0  0  0  0  0  0
    5.5947    0.8031   -0.0564 C   0  0  0  0  0  0  0  0  0  0  0  0
    6.8046    0.4599    0.8237 C   0  0  1  0  0  0  0  0  0  0  0  0
    6.5921    0.8280    2.2863 C   0  0  0  0  0  0  0  0  0  0  0  0
    7.0747   -0.9427    0.7472 O   0  0  0  0  0  0  0  0  0  0  0  0
    2.0450   -0.2437    0.1440 C   0  0  0  0  0  0  0  0  0  0  0  0
    1.7858   -1.1492    1.2939 C   0  0  0  0  0  0  0  0  0  0  0  0
    1.1303    0.2293   -0.7837 C   0  0  0  0  0  0  0  0  0  0  0  0
   -2.8214   -2.0152   -0.7003 C   0  0  0  0  0  0  0  0  0  0  0  0
   -4.2116   -2.1470   -0.7851 C   0  0  0  0  0  0  0  0  0  0  0  0
   -4.9994   -1.0760   -0.3361 C   0  0  0  0  0  0  0  0  0  0  0  0
   -6.3687   -0.9328   -0.3005 N   0  0  0  0  0  0  0  0  0  0  0  0
   -8.6615    0.0029    1.0411 H   0  0  0  0  0  0  0  0  0  0  0  0
   -8.6310    0.7207   -0.5839 H   0  0  0  0  0  0  0  0  0  0  0  0
   -8.1979    1.6996    0.8280 H   0  0  0  0  0  0  0  0  0  0  0  0
   -5.4611    1.9306    0.9812 H   0  0  0  0  0  0  0  0  0  0  0  0
   -0.6216    1.9494   -3.6313 H   0  0  0  0  0  0  0  0  0  0  0  0
    3.7707    1.6996   -1.9469 H   0  0  0  0  0  0  0  0  0  0  0  0
    5.8018    0.4803   -1.0841 H   0  0  0  0  0  0  0  0  0  0  0  0
    5.4155    1.8847   -0.0263 H   0  0  0  0  0  0  0  0  0  0  0  0
    7.6878    0.9831    0.4426 H   0  0  0  0  0  0  0  0  0  0  0  0
    7.4887    0.5909    2.8695 H   0  0  0  0  0  0  0  0  0  0  0  0
    6.3757    1.8945    2.3994 H   0  0  0  0  0  0  0  0  0  0  0  0
    5.7730    0.2522    2.7306 H   0  0  0  0  0  0  0  0  0  0  0  0
    6.2227   -1.3926    0.9041 H   0  0  0  0  0  0  0  0  0  0  0  0
    2.6983   -1.3457    1.8655 H   0  0  0  0  0  0  0  0  0  0  0  0
    1.3972   -2.1109    0.9439 H   0  0  0  0  0  0  0  0  0  0  0  0
    1.0545   -0.7032    1.9756 H   0  0  0  0  0  0  0  0  0  0  0  0
   -2.1805   -2.8273   -1.0328 H   0  0  0  0  0  0  0  0  0  0  0  0
   -4.6600   -3.0519   -1.1836 H   0  0  0  0  0  0  0  0  0  0  0  0
   -7.0249   -1.6319   -0.6208 H   0  0  0  0  0  0  0  0  0  0  0  0
  1  2  1  0
  2  3  2  0
  3  4  1  0
  4  5  2  0
  5  6  1  0
  5  7  1  0
  7  8  1  0
  8  9  1  0
  9 10  2  0
 10 11  1  0
 11 12  2  0
 12 13  1  0
 13 14  1  0
 14 15  2  0
 15 16  1  0
 16 17  1  0
 17 18  1  0
 18 19  1  0
 18 20  1  0
 15 21  1  0
 21 22  1  0
 21 23  2  0
  7 24  2  0
 24 25  1  0
 25 26  2  0
 26 27  1  0
 27  2  1  0
 26  4  1  0
 23  9  1  0
 23 13  1  0
  1 28  1  0
  1 29  1  0
  1 30  1  0
  3 31  1  0
 11 32  1  0
 14 33  1  0
 17 34  1  0
 17 35  1  0
 18 36  1  6
 19 37  1  0
 19 38  1  0
 19 39  1  0
 20 40  1  0
 22 41  1  0
 22 42  1  0
 22 43  1  0
 24 44  1  0
 25 45  1  0
 27 46  1  0
M  END
$$$$
