
     RDKit          3D

 59 61  0  0  0  0  0  0  0  0999 V2000
   -7.4200    0.0904    1.1764 C   0  0  0  0  0  0  0  0  0  0  0  0
   -6.9975   -1.1548    0.4102 C   0  0  0  0  0  0  0  0  0  0  0  0
   -6.0628   -0.8466   -0.7556 C   0  0  0  0  0  0  0  0  0  0  0  0
   -4.7493   -0.4201   -0.3098 N   0  0  0  0  0  0  0  0  0  0  0  0
   -3.7272   -0.3222   -1.2230 C   0  0  0  0  0  0  0  0  0  0  0  0
   -3.8810   -0.5976   -2.4093 O   0  0  0  0  0  0  0  0  0  0  0  0
   -2.5184    0.1237   -0.6957 N   0  0  0  0  0  0  0  0  0  0  0  0
   -2.2132    0.1183    0.7421 C   0  0  0  0  0  0  0  0  0  0  0  0
   -2.2579    1.5233    1.3362 C   0  0  0  0  0  0  0  0  0  0  0  0
   -1.1385    2.3169    0.9463 O   0  0  0  0  0  0  0  0  0  0  0  0
   -1.1219    2.6473   -0.4393 C   0  0  0  0  0  0  0  0  0  0  0  0
   -0.4794    1.5576   -1.2994 C   0  0  1  0  0  0  0  0  0  0  0  0
    0.8681    1.0931   -0.7350 C   0  0  0  0  0  0  0  0  0  0  0  0
    1.5540    0.1670   -1.6439 N   0  0  0  0  0  0  0  0  0  0  0  0
    2.9348   -0.0075   -1.6808 C   0  0  0  0  0  0  0  0  0  0  0  0
    3.4794   -0.7687   -2.4844 O   0  0  0  0  0  0  0  0  0  0  0  0
    3.7865    0.7832   -0.6731 C   0  0  0  0  0  0  0  0  0  0  0  0
    3.4476    0.5959    0.6954 O   0  0  0  0  0  0  0  0  0  0  0  0
    3.7619   -0.7146    1.1722 C   0  0  0  0  0  0  0  0  0  0  0  0
    5.2291   -0.8482    1.4917 C   0  0  0  0  0  0  0  0  0  0  0  0
    5.8170   -0.0324    2.4689 C   0  0  0  0  0  0  0  0  0  0  0  0
    7.1756   -0.1491    2.7652 C   0  0  0  0  0  0  0  0  0  0  0  0
    7.9593   -1.0811    2.0871 C   0  0  0  0  0  0  0  0  0  0  0  0
    7.3859   -1.8955    1.1121 C   0  0  0  0  0  0  0  0  0  0  0  0
    6.0269   -1.7805    0.8144 C   0  0  0  0  0  0  0  0  0  0  0  0
    0.7255   -0.6482   -2.5297 C   0  0  0  0  0  0  0  0  0  0  0  0
   -0.6375   -0.9330   -1.9182 C   0  0  0  0  0  0  0  0  0  0  0  0
   -1.4115    0.3684   -1.6387 C   0  0  1  0  0  0  0  0  0  0  0  0
   -6.5660    0.5750    1.6586 H   0  0  0  0  0  0  0  0  0  0  0  0
   -7.8981    0.8165    0.5110 H   0  0  0  0  0  0  0  0  0  0  0  0
   -8.1381   -0.1755    1.9588 H   0  0  0  0  0  0  0  0  0  0  0  0
   -6.5195   -1.8596    1.1001 H   0  0  0  0  0  0  0  0  0  0  0  0
   -7.8974   -1.6435    0.0199 H   0  0  0  0  0  0  0  0  0  0  0  0
   -6.4768   -0.0615   -1.3988 H   0  0  0  0  0  0  0  0  0  0  0  0
   -5.9375   -1.7462   -1.3695 H   0  0  0  0  0  0  0  0  0  0  0  0
   -4.7444    0.3264    0.3660 H   0  0  0  0  0  0  0  0  0  0  0  0
   -2.9276   -0.5200    1.2714 H   0  0  0  0  0  0  0  0  0  0  0  0
   -1.2281   -0.3351    0.8866 H   0  0  0  0  0  0  0  0  0  0  0  0
   -2.2148    1.4446    2.4277 H   0  0  0  0  0  0  0  0  0  0  0  0
   -3.1881    2.0454    1.0837 H   0  0  0  0  0  0  0  0  0  0  0  0
   -2.1236    2.9180   -0.7948 H   0  0  0  0  0  0  0  0  0  0  0  0
   -0.5114    3.5543   -0.5226 H   0  0  0  0  0  0  0  0  0  0  0  0
   -0.2550    2.0359   -2.2659 H   0  0  0  0  0  0  0  0  0  0  0  0
    0.7473    0.5700    0.2190 H   0  0  0  0  0  0  0  0  0  0  0  0
    1.5038    1.9645   -0.5540 H   0  0  0  0  0  0  0  0  0  0  0  0
    4.8427    0.5421   -0.8404 H   0  0  0  0  0  0  0  0  0  0  0  0
    3.6820    1.8481   -0.9086 H   0  0  0  0  0  0  0  0  0  0  0  0
    3.4221   -1.4821    0.4672 H   0  0  0  0  0  0  0  0  0  0  0  0
    3.1928   -0.8710    2.0957 H   0  0  0  0  0  0  0  0  0  0  0  0
    5.2142    0.7044    2.9963 H   0  0  0  0  0  0  0  0  0  0  0  0
    7.6227    0.4899    3.5219 H   0  0  0  0  0  0  0  0  0  0  0  0
    9.0181   -1.1698    2.3155 H   0  0  0  0  0  0  0  0  0  0  0  0
    7.9985   -2.6180    0.5791 H   0  0  0  0  0  0  0  0  0  0  0  0
    5.5976   -2.4172    0.0433 H   0  0  0  0  0  0  0  0  0  0  0  0
    0.6199   -0.1009   -3.4737 H   0  0  0  0  0  0  0  0  0  0  0  0
    1.2324   -1.5927   -2.7545 H   0  0  0  0  0  0  0  0  0  0  0  0
   -0.4985   -1.5033   -0.9912 H   0  0  0  0  0  0  0  0  0  0  0  0
   -1.2208   -1.5756   -2.5882 H   0  0  0  0  0  0  0  0  0  0  0  0
   -1.8837    0.6519   -2.5905 H   0  0  0  0  0  0  0  0  0  0  0  0
  1  2  1  0
  2  3  1  0
  3  4  1  0
  4  5  1  0
  5  6  2  0
  5  7  1  0
  7  8  1  0
  8  9  1  0
  9 10  1  0
 10 11  1  0
 11 12  1  0
 12 13  1  0
 13 14  1  0
 14 15  1  0
 15 16  2  0
 15 17  1  0
 17 18  1  0
 18 19  1  0
 19 20  1  0
 20 21  2  0
 21 22  1  0
 22 23  2  0
 23 24  1  0
 24 25  2  0
 14 26  1  0
 26 27  1  0
 27 28  1  0
 28  7  1  0
 28 12  1  0
 25 20  1  0
  1 29  1  0
  1 30  1  0
  1 31  1  0
  2 32  1  0
  2 33  1  0
  3 34  1  0
  3 35  1  0
  4 36  1  0
  8 37  1  0
  8 38  1  0
  9 39  1  0
  9 40  1  0
 11 41  1  0
 11 42  1  0
 12 43  1  6
 13 44  1  0
 13 45  1  0
 17 46  1  0
 17 47  1  0
 19 48  1  0
 19 49  1  0
 21 50  1  0
 22 51  1  0
 23 52  1  0
 24 53  1  0
 25 54  1  0
 26 55  1  0
 26 56  1  0
 27 57  1  0
 27 58  1  0
 28 59  1  6
M  END
$$$$
