
     RDKit          3D

 57 60  0  0  0  0  0  0  0  0999 V2000
    5.5039   -2.0850   -0.0244 C   0  0  0  0  0  0  0  0  0  0  0  0
    4.9195   -1.9094   -1.4161 C   0  0  0  0  0  0  0  0  0  0  0  0
    3.7580   -1.0684   -1.3673 O   0  0  0  0  0  0  0  0  0  0  0  0
    4.0509    0.2510   -1.5893 C   0  0  0  0  0  0  0  0  0  0  0  0
    4.4343    0.6756   -2.8642 C   0  0  0  0  0  0  0  0  0  0  0  0
    4.7199    2.0233   -3.0956 C   0  0  0  0  0  0  0  0  0  0  0  0
    4.6132    2.9518   -2.0591 C   0  0  0  0  0  0  0  0  0  0  0  0
    4.2012    2.5377   -0.7919 C   0  0  0  0  0  0  0  0  0  0  0  0
    3.8932    1.1910   -0.5650 C   0  0  0  0  0  0  0  0  0  0  0  0
    3.4635    0.8009    0.7935 C   0  0  0  0  0  0  0  0  0  0  0  0
    4.2651    0.9546    1.7118 O   0  0  0  0  0  0  0  0  0  0  0  0
    2.1753    0.3161    0.9779 N   0  0  0  0  0  0  0  0  0  0  0  0
    1.1350    0.2825   -0.0543 C   0  0  0  0  0  0  0  0  0  0  0  0
   -0.2736    0.3589    0.5480 C   0  0  0  0  0  0  0  0  0  0  0  0
   -0.5349   -0.7733    1.4970 N   0  0  0  0  0  0  0  0  0  0  0  0
   -1.9067   -0.5844    2.4952 S   0  0  0  0  0  6  0  0  0  0  0  0
   -2.1197   -1.8162    3.2232 O   0  0  0  0  0  0  0  0  0  0  0  0
   -1.7440    0.6710    3.1988 O   0  0  0  0  0  0  0  0  0  0  0  0
   -3.2350   -0.4098    1.3144 C   0  0  0  0  0  0  0  0  0  0  0  0
   -3.8481    0.8485    1.2098 C   0  0  0  0  0  0  0  0  0  0  0  0
   -4.8806    1.0502    0.2973 C   0  0  0  0  0  0  0  0  0  0  0  0
   -5.3071   -0.0034   -0.5086 C   0  0  0  0  0  0  0  0  0  0  0  0
   -4.7091   -1.2615   -0.4015 C   0  0  0  0  0  0  0  0  0  0  0  0
   -3.6592   -1.4856    0.5082 C   0  0  0  0  0  0  0  0  0  0  0  0
   -3.0699   -2.8668    0.5952 C   0  0  0  0  0  0  0  0  0  0  0  0
   -6.3182    0.1935   -1.4461 N   0  0  0  0  0  0  0  0  0  0  0  0
   -6.9531    1.3953   -1.5790 C   0  0  0  0  0  0  0  0  0  0  0  0
   -7.8142    1.5707   -2.4377 O   0  0  0  0  0  0  0  0  0  0  0  0
   -6.5463    2.4709   -0.5712 C   0  0  0  0  0  0  0  0  0  0  0  0
   -5.3888    2.3159    0.2361 O   0  0  0  0  0  0  0  0  0  0  0  0
    0.6934   -1.2248    2.2420 C   0  0  0  0  0  0  0  0  0  0  0  0
    1.7790   -0.1456    2.3081 C   0  0  0  0  0  0  0  0  0  0  0  0
    5.8972   -1.1372    0.3560 H   0  0  0  0  0  0  0  0  0  0  0  0
    4.7353   -2.4202    0.6814 H   0  0  0  0  0  0  0  0  0  0  0  0
    6.3191   -2.8156   -0.0357 H   0  0  0  0  0  0  0  0  0  0  0  0
    4.5852   -2.8843   -1.7902 H   0  0  0  0  0  0  0  0  0  0  0  0
    5.6851   -1.5464   -2.1147 H   0  0  0  0  0  0  0  0  0  0  0  0
    4.5120   -0.0382   -3.6797 H   0  0  0  0  0  0  0  0  0  0  0  0
    5.0318    2.3487   -4.0854 H   0  0  0  0  0  0  0  0  0  0  0  0
    4.8501    3.9979   -2.2382 H   0  0  0  0  0  0  0  0  0  0  0  0
    4.1207    3.2591    0.0187 H   0  0  0  0  0  0  0  0  0  0  0  0
    1.2501   -0.6603   -0.6007 H   0  0  0  0  0  0  0  0  0  0  0  0
    1.2784    1.1079   -0.7584 H   0  0  0  0  0  0  0  0  0  0  0  0
   -0.3895    1.3180    1.0651 H   0  0  0  0  0  0  0  0  0  0  0  0
   -1.0030    0.3122   -0.2666 H   0  0  0  0  0  0  0  0  0  0  0  0
   -3.5253    1.6809    1.8330 H   0  0  0  0  0  0  0  0  0  0  0  0
   -5.0582   -2.0783   -1.0305 H   0  0  0  0  0  0  0  0  0  0  0  0
   -1.9774   -2.8375    0.5662 H   0  0  0  0  0  0  0  0  0  0  0  0
   -3.3820   -3.4831   -0.2564 H   0  0  0  0  0  0  0  0  0  0  0  0
   -3.4057   -3.3667    1.5081 H   0  0  0  0  0  0  0  0  0  0  0  0
   -6.6029   -0.5443   -2.0765 H   0  0  0  0  0  0  0  0  0  0  0  0
   -7.3996    2.6205    0.1020 H   0  0  0  0  0  0  0  0  0  0  0  0
   -6.4084    3.3987   -1.1400 H   0  0  0  0  0  0  0  0  0  0  0  0
    1.0764   -2.1087    1.7165 H   0  0  0  0  0  0  0  0  0  0  0  0
    0.4465   -1.5479    3.2586 H   0  0  0  0  0  0  0  0  0  0  0  0
    2.6539   -0.5305    2.8432 H   0  0  0  0  0  0  0  0  0  0  0  0
    1.4133    0.7302    2.8570 H   0  0  0  0  0  0  0  0  0  0  0  0
  1  2  1  0
  2  3  1  0
  3  4  1  0
  4  5  2  0
  5  6  1  0
  6  7  2  0
  7  8  1  0
  8  9  2  0
  9 10  1  0
 10 11  2  0
 10 12  1  0
 12 13  1  0
 13 14  1  0
 14 15  1  0
 15 16  1  0
 16 17  2  0
 16 18  2  0
 16 19  1  0
 19 20  2  0
 20 21  1  0
 21 22  2  0
 22 23  1  0
 23 24  2  0
 24 25  1  0
 22 26  1  0
 26 27  1  0
 27 28  2  0
 27 29  1  0
 29 30  1  0
 15 31  1  0
 31 32  1  0
  9  4  1  0
 32 12  1  0
 24 19  1  0
 30 21  1  0
  1 33  1  0
  1 34  1  0
  1 35  1  0
  2 36  1  0
  2 37  1  0
  5 38  1  0
  6 39  1  0
  7 40  1  0
  8 41  1  0
 13 42  1  0
 13 43  1  0
 14 44  1  0
 14 45  1  0
 20 46  1  0
 23 47  1  0
 25 48  1  0
 25 49  1  0
 25 50  1  0
 26 51  1  0
 29 52  1  0
 29 53  1  0
 31 54  1  0
 31 55  1  0
 32 56  1  0
 32 57  1  0
M  END
$$$$
