
     RDKit          3D

 56 61  0  0  0  0  0  0  0  0999 V2000
   -6.4046   -0.8033   -2.3086 O   0  0  0  0  0  0  0  0  0  0  0  0
   -6.2229    0.0296   -1.4216 C   0  0  0  0  0  0  0  0  0  0  0  0
   -7.4070    0.8383   -1.0117 C   0  0  0  0  0  0  0  0  0  0  0  0
   -7.6843    1.6492    0.2277 C   0  0  0  0  0  0  0  0  0  0  0  0
   -8.2703    0.2719    0.1024 C   0  0  0  0  0  0  0  0  0  0  0  0
   -4.9718    0.2440   -0.8810 N   0  0  0  0  0  0  0  0  0  0  0  0
   -4.5972    1.0633    0.2557 C   0  0  0  0  0  0  0  0  0  0  0  0
   -3.1224    0.7605    0.5042 C   0  0  0  0  0  0  0  0  0  0  0  0
   -2.6233    0.3246   -0.8738 C   0  0  1  0  0  0  0  0  0  0  0  0
   -1.2638   -0.3744   -0.8953 C   0  0  0  0  0  0  0  0  0  0  0  0
   -1.0810   -1.5964   -0.0199 C   0  0  0  0  0  0  0  0  0  0  0  0
   -2.0911   -2.3514    0.3149 N   0  0  0  0  0  0  0  0  0  0  0  0
   -1.5606   -3.2862    1.1392 N   0  0  0  0  0  0  0  0  0  0  0  0
   -0.1926   -3.1014    1.2774 C   0  0  0  0  0  0  0  0  0  0  0  0
    0.5321   -3.8325    1.9354 O   0  0  0  0  0  0  0  0  0  0  0  0
    0.1111   -1.9929    0.4981 N   0  0  0  0  0  0  0  0  0  0  0  0
    1.4224   -1.4855    0.3154 C   0  0  0  0  0  0  0  0  0  0  0  0
    2.3879   -1.6396    1.3208 C   0  0  0  0  0  0  0  0  0  0  0  0
    3.6888   -1.1399    1.1699 C   0  0  0  0  0  0  0  0  0  0  0  0
    4.0768   -0.4759    0.0013 C   0  0  0  0  0  0  0  0  0  0  0  0
    5.4417    0.0487   -0.1548 C   0  0  0  0  0  0  0  0  0  0  0  0
    6.5558   -0.8047   -0.0163 C   0  0  0  0  0  0  0  0  0  0  0  0
    7.8711   -0.3426   -0.1573 C   0  0  0  0  0  0  0  0  0  0  0  0
    8.0235    1.0110   -0.4386 C   0  0  0  0  0  0  0  0  0  0  0  0
    9.2106    1.6540   -0.6153 O   0  0  0  0  0  0  0  0  0  0  0  0
    8.9199    2.9581   -0.8752 C   0  0  0  0  0  0  0  0  0  0  0  0
    7.5592    3.1631   -0.8607 C   0  0  0  0  0  0  0  0  0  0  0  0
    6.9669    1.9021   -0.5856 C   0  0  0  0  0  0  0  0  0  0  0  0
    5.6538    1.4154   -0.4435 C   0  0  0  0  0  0  0  0  0  0  0  0
    3.1230   -0.3411   -1.0155 C   0  0  0  0  0  0  0  0  0  0  0  0
    1.8208   -0.8418   -0.8621 C   0  0  0  0  0  0  0  0  0  0  0  0
   -3.8164   -0.4466   -1.4381 C   0  0  0  0  0  0  0  0  0  0  0  0
   -7.9489    1.1817   -1.8988 H   0  0  0  0  0  0  0  0  0  0  0  0
   -6.9591    1.8081    1.0127 H   0  0  0  0  0  0  0  0  0  0  0  0
   -8.3594    2.4960    0.1183 H   0  0  0  0  0  0  0  0  0  0  0  0
   -7.8560   -0.5193    0.7227 H   0  0  0  0  0  0  0  0  0  0  0  0
   -9.3354    0.1642   -0.0894 H   0  0  0  0  0  0  0  0  0  0  0  0
   -4.7578    2.1135   -0.0042 H   0  0  0  0  0  0  0  0  0  0  0  0
   -5.1882    0.7895    1.1324 H   0  0  0  0  0  0  0  0  0  0  0  0
   -3.0385   -0.0468    1.2413 H   0  0  0  0  0  0  0  0  0  0  0  0
   -2.5817    1.6279    0.8985 H   0  0  0  0  0  0  0  0  0  0  0  0
   -2.5166    1.2391   -1.4806 H   0  0  0  0  0  0  0  0  0  0  0  0
   -0.5199    0.3745   -0.6013 H   0  0  0  0  0  0  0  0  0  0  0  0
   -1.0489   -0.6812   -1.9265 H   0  0  0  0  0  0  0  0  0  0  0  0
   -2.0989   -4.0431    1.5397 H   0  0  0  0  0  0  0  0  0  0  0  0
    2.1480   -2.1271    2.2640 H   0  0  0  0  0  0  0  0  0  0  0  0
    4.3958   -1.2670    1.9894 H   0  0  0  0  0  0  0  0  0  0  0  0
    6.4034   -1.8636    0.1946 H   0  0  0  0  0  0  0  0  0  0  0  0
    8.7266   -1.0005   -0.0559 H   0  0  0  0  0  0  0  0  0  0  0  0
    9.7737    3.5996   -1.0437 H   0  0  0  0  0  0  0  0  0  0  0  0
    7.0559    4.1040   -1.0356 H   0  0  0  0  0  0  0  0  0  0  0  0
    4.8124    2.0993   -0.5502 H   0  0  0  0  0  0  0  0  0  0  0  0
    3.3948    0.1349   -1.9564 H   0  0  0  0  0  0  0  0  0  0  0  0
    1.1612   -0.7604   -1.7184 H   0  0  0  0  0  0  0  0  0  0  0  0
   -3.8447   -0.4067   -2.5360 H   0  0  0  0  0  0  0  0  0  0  0  0
   -3.8739   -1.4939   -1.1255 H   0  0  0  0  0  0  0  0  0  0  0  0
  1  2  2  0
  2  3  1  0
  3  4  1  0
  4  5  1  0
  2  6  1  0
  6  7  1  0
  7  8  1  0
  8  9  1  0
  9 10  1  0
 10 11  1  0
 11 12  2  0
 12 13  1  0
 13 14  1  0
 14 15  2  0
 14 16  1  0
 16 17  1  0
 17 18  2  0
 18 19  1  0
 19 20  2  0
 20 21  1  0
 21 22  2  0
 22 23  1  0
 23 24  2  0
 24 25  1  0
 25 26  1  0
 26 27  2  0
 27 28  1  0
 28 29  2  0
 20 30  1  0
 30 31  2  0
  9 32  1  0
  5  3  1  0
 32  6  1  0
 16 11  1  0
 31 17  1  0
 29 21  1  0
 28 24  1  0
  3 33  1  0
  4 34  1  0
  4 35  1  0
  5 36  1  0
  5 37  1  0
  7 38  1  0
  7 39  1  0
  8 40  1  0
  8 41  1  0
  9 42  1  6
 10 43  1  0
 10 44  1  0
 13 45  1  0
 18 46  1  0
 19 47  1  0
 22 48  1  0
 23 49  1  0
 26 50  1  0
 27 51  1  0
 29 52  1  0
 30 53  1  0
 31 54  1  0
 32 55  1  0
 32 56  1  0
M  END
$$$$
