
     RDKit          3D

 42 44  0  0  0  0  0  0  0  0999 V2000
    8.5290    0.4763    0.9248 C   0  0  0  0  0  0  0  0  0  0  0  0
    7.3535    0.3279    0.0305 C   0  0  0  0  0  0  0  0  0  0  0  0
    7.3437    0.3916   -1.3464 C   0  0  0  0  0  0  0  0  0  0  0  0
    5.7535    0.1528   -1.9269 S   0  0  0  0  0  0  0  0  0  0  0  0
    5.1763   -0.0159   -0.3162 C   0  0  0  0  0  0  0  0  0  0  0  0
    3.8385   -0.2417   -0.0720 N   0  0  0  0  0  0  0  0  0  0  0  0
    3.3565   -0.4310    1.1984 C   0  0  0  0  0  0  0  0  0  0  0  0
    3.9301   -0.5048    2.2726 O   0  0  0  0  0  0  0  0  0  0  0  0
    1.9811   -0.5673    1.1171 N   0  0  0  0  0  0  0  0  0  0  0  0
    1.5252   -0.6271   -0.2427 C   0  0  0  0  0  0  0  0  0  0  0  0
    0.4537    0.3983   -0.5719 C   0  0  0  0  0  0  0  0  0  0  0  0
   -0.8962   -0.0259   -0.0432 C   0  0  0  0  0  0  0  0  0  0  0  0
   -1.0722   -1.0500    0.6045 O   0  0  0  0  0  0  0  0  0  0  0  0
   -1.9011    0.8627   -0.3577 N   0  0  0  0  0  0  0  0  0  0  0  0
   -3.2747    0.6652    0.0805 C   0  0  0  0  0  0  0  0  0  0  0  0
   -4.0150   -0.3681   -0.7681 C   0  0  0  0  0  0  0  0  0  0  0  0
   -5.4903   -0.3586   -0.4623 C   0  0  0  0  0  0  0  0  0  0  0  0
   -6.3999    0.1814   -1.3691 C   0  0  0  0  0  0  0  0  0  0  0  0
   -7.7544    0.1777   -1.0453 C   0  0  0  0  0  0  0  0  0  0  0  0
   -8.1643   -0.3628    0.1678 C   0  0  0  0  0  0  0  0  0  0  0  0
   -7.1966   -0.8771    1.0120 C   0  0  0  0  0  0  0  0  0  0  0  0
   -5.8760   -0.8823    0.7259 N   0  0  0  0  0  0  0  0  0  0  0  0
    2.8231   -0.3238   -0.9930 C   0  0  0  0  0  0  0  0  0  0  0  0
    2.8528   -0.1993   -2.2116 O   0  0  0  0  0  0  0  0  0  0  0  0
    6.1147    0.0949    0.6004 N   0  0  0  0  0  0  0  0  0  0  0  0
    8.2891    1.1389    1.7623 H   0  0  0  0  0  0  0  0  0  0  0  0
    8.8236   -0.4977    1.3274 H   0  0  0  0  0  0  0  0  0  0  0  0
    9.3850    0.9003    0.3907 H   0  0  0  0  0  0  0  0  0  0  0  0
    8.1717    0.5604   -2.0197 H   0  0  0  0  0  0  0  0  0  0  0  0
    1.4520   -0.8969    1.9185 H   0  0  0  0  0  0  0  0  0  0  0  0
    1.2247   -1.6570   -0.4637 H   0  0  0  0  0  0  0  0  0  0  0  0
    0.3604    0.5148   -1.6586 H   0  0  0  0  0  0  0  0  0  0  0  0
    0.7046    1.3793   -0.1507 H   0  0  0  0  0  0  0  0  0  0  0  0
   -1.6790    1.7096   -0.8674 H   0  0  0  0  0  0  0  0  0  0  0  0
   -3.2654    0.3658    1.1357 H   0  0  0  0  0  0  0  0  0  0  0  0
   -3.7641    1.6439    0.0174 H   0  0  0  0  0  0  0  0  0  0  0  0
   -3.6172   -1.3722   -0.5773 H   0  0  0  0  0  0  0  0  0  0  0  0
   -3.8491   -0.1715   -1.8343 H   0  0  0  0  0  0  0  0  0  0  0  0
   -6.0682    0.5982   -2.3160 H   0  0  0  0  0  0  0  0  0  0  0  0
   -8.4840    0.5903   -1.7359 H   0  0  0  0  0  0  0  0  0  0  0  0
   -9.2115   -0.3847    0.4481 H   0  0  0  0  0  0  0  0  0  0  0  0
   -7.4638   -1.3147    1.9701 H   0  0  0  0  0  0  0  0  0  0  0  0
  1  2  1  0
  2  3  2  0
  3  4  1  0
  4  5  1  0
  5  6  1  0
  6  7  1  0
  7  8  2  0
  7  9  1  0
  9 10  1  0
 10 11  1  0
 11 12  1  0
 12 13  2  0
 12 14  1  0
 14 15  1  0
 15 16  1  0
 16 17  1  0
 17 18  2  0
 18 19  1  0
 19 20  2  0
 20 21  1  0
 21 22  2  0
 10 23  1  0
 23 24  2  0
  5 25  2  0
 25  2  1  0
 23  6  1  0
 22 17  1  0
  1 26  1  0
  1 27  1  0
  1 28  1  0
  3 29  1  0
  9 30  1  0
 10 31  1  0
 11 32  1  0
 11 33  1  0
 14 34  1  0
 15 35  1  0
 15 36  1  0
 16 37  1  0
 16 38  1  0
 18 39  1  0
 19 40  1  0
 20 41  1  0
 21 42  1  0
M  END
$$$$
