
     RDKit          3D

 19 19  0  0  0  0  0  0  0  0999 V2000
    3.8530   -0.6010    0.0053 N   0  0  0  0  0  0  0  0  0  0  0  0
    2.5043   -0.3694    0.3594 N   0  0  0  0  0  0  0  0  0  0  0  0
    1.5914   -0.0586   -0.6427 C   0  0  0  0  0  0  0  0  0  0  0  0
    1.9153    0.0825   -1.8194 O   0  0  0  0  0  0  0  0  0  0  0  0
    0.1656    0.0597   -0.2296 C   0  0  0  0  0  0  0  0  0  0  0  0
   -0.2078    0.4139    1.0740 C   0  0  0  0  0  0  0  0  0  0  0  0
   -1.5608    0.5127    1.4080 C   0  0  0  0  0  0  0  0  0  0  0  0
   -2.5322    0.2681    0.4430 C   0  0  0  0  0  0  0  0  0  0  0  0
   -3.8377    0.3781    0.8180 O   0  0  0  0  0  0  0  0  0  0  0  0
   -2.1776   -0.0692   -0.8589 C   0  0  0  0  0  0  0  0  0  0  0  0
   -0.8254   -0.1688   -1.1957 C   0  0  0  0  0  0  0  0  0  0  0  0
    4.2841    0.3161   -0.1502 H   0  0  0  0  0  0  0  0  0  0  0  0
    3.8435   -1.0095   -0.9394 H   0  0  0  0  0  0  0  0  0  0  0  0
    2.1843   -0.7045    1.2651 H   0  0  0  0  0  0  0  0  0  0  0  0
    0.5321    0.6436    1.8349 H   0  0  0  0  0  0  0  0  0  0  0  0
   -1.8581    0.7897    2.4161 H   0  0  0  0  0  0  0  0  0  0  0  0
   -4.4012    0.1984    0.0471 H   0  0  0  0  0  0  0  0  0  0  0  0
   -2.9292   -0.2541   -1.6201 H   0  0  0  0  0  0  0  0  0  0  0  0
   -0.5435   -0.4277   -2.2150 H   0  0  0  0  0  0  0  0  0  0  0  0
  1  2  1  0
  2  3  1  0
  3  4  2  0
  3  5  1  0
  5  6  2  0
  6  7  1  0
  7  8  2  0
  8  9  1  0
  8 10  1  0
 10 11  2  0
 11  5  1  0
  1 12  1  0
  1 13  1  0
  2 14  1  0
  6 15  1  0
  7 16  1  0
  9 17  1  0
 10 18  1  0
 11 19  1  0
M  END
$$$$
