
     RDKit          3D

 67 70  0  0  0  0  0  0  0  0999 V2000
    4.3678   -1.1429    2.6444 C   0  0  0  0  0  0  0  0  0  0  0  0
    3.3742   -0.5270    1.6929 C   0  0  0  0  0  0  0  0  0  0  0  0
    2.0210   -0.4724    2.0928 C   0  0  0  0  0  0  0  0  0  0  0  0
    1.0440    0.0777    1.2667 C   0  0  0  0  0  0  0  0  0  0  0  0
   -0.3221    0.1763    1.6053 N   0  0  0  0  0  0  0  0  0  0  0  0
   -0.9209   -0.1782    2.8014 C   0  0  0  0  0  0  0  0  0  0  0  0
   -0.3609   -0.6136    3.8013 O   0  0  0  0  0  0  0  0  0  0  0  0
   -2.3958    0.0455    2.8681 C   0  0  0  0  0  0  0  0  0  0  0  0
   -2.9646    0.3470    4.1113 C   0  0  0  0  0  0  0  0  0  0  0  0
   -4.3366    0.5643    4.2187 C   0  0  0  0  0  0  0  0  0  0  0  0
   -5.1441    0.4815    3.0832 C   0  0  0  0  0  0  0  0  0  0  0  0
   -4.5902    0.1755    1.8335 C   0  0  0  0  0  0  0  0  0  0  0  0
   -5.4718    0.1096    0.7357 N   0  0  0  0  0  0  0  0  0  0  0  0
   -5.1370   -0.0273   -0.5933 C   0  0  0  0  0  0  0  0  0  0  0  0
   -4.0147   -0.0317   -1.0831 O   0  0  0  0  0  0  0  0  0  0  0  0
   -6.3154   -0.0859   -1.4975 C   0  0  0  0  0  0  0  0  0  0  0  0
   -7.4271   -0.7852   -1.2164 C   0  0  0  0  0  0  0  0  0  0  0  0
   -8.6128   -0.8657   -2.1342 C   0  0  0  0  0  0  0  0  0  0  0  0
   -9.7940   -0.2261   -1.5376 N   0  0  0  0  0  0  0  0  0  0  0  0
  -10.7890    0.0558   -2.5770 C   0  0  0  0  0  0  0  0  0  0  0  0
  -10.4041   -1.0602   -0.4974 C   0  0  0  0  0  0  0  0  0  0  0  0
   -3.2164   -0.0607    1.7356 C   0  0  0  0  0  0  0  0  0  0  0  0
    1.4291    0.5630    0.0178 C   0  0  0  0  0  0  0  0  0  0  0  0
    2.7694    0.5182   -0.3867 C   0  0  0  0  0  0  0  0  0  0  0  0
    3.7706   -0.0063    0.4391 C   0  0  0  0  0  0  0  0  0  0  0  0
    5.1170   -0.0615    0.0519 N   0  0  0  0  0  0  0  0  0  0  0  0
    5.8259    0.3441   -1.0752 C   0  0  0  0  0  0  0  0  0  0  0  0
    5.2205    0.7943   -2.1804 N   0  0  0  0  0  0  0  0  0  0  0  0
    6.0031    1.1600   -3.2072 C   0  0  0  0  0  0  0  0  0  0  0  0
    7.3729    1.0911   -3.1784 C   0  0  0  0  0  0  0  0  0  0  0  0
    7.9317    0.6132   -2.0113 C   0  0  0  0  0  0  0  0  0  0  0  0
    9.3858    0.4825   -1.8098 C   0  0  0  0  0  0  0  0  0  0  0  0
   10.2903    0.2474   -2.8570 C   0  0  0  0  0  0  0  0  0  0  0  0
   11.6593    0.1414   -2.6056 C   0  0  0  0  0  0  0  0  0  0  0  0
   12.1010    0.2715   -1.3016 C   0  0  0  0  0  0  0  0  0  0  0  0
   11.2788    0.4916   -0.2580 N   0  0  0  0  0  0  0  0  0  0  0  0
    9.9525    0.5848   -0.5365 C   0  0  0  0  0  0  0  0  0  0  0  0
    7.1615    0.2445   -0.9624 N   0  0  0  0  0  0  0  0  0  0  0  0
    4.8924   -1.9738    2.1614 H   0  0  0  0  0  0  0  0  0  0  0  0
    3.8794   -1.5444    3.5386 H   0  0  0  0  0  0  0  0  0  0  0  0
    5.0924   -0.3911    2.9733 H   0  0  0  0  0  0  0  0  0  0  0  0
    1.7558   -0.8755    3.0657 H   0  0  0  0  0  0  0  0  0  0  0  0
   -0.9073    0.6122    0.9035 H   0  0  0  0  0  0  0  0  0  0  0  0
   -2.3362    0.4130    4.9977 H   0  0  0  0  0  0  0  0  0  0  0  0
   -4.7744    0.7995    5.1857 H   0  0  0  0  0  0  0  0  0  0  0  0
   -6.2111    0.6623    3.1908 H   0  0  0  0  0  0  0  0  0  0  0  0
   -6.4526    0.2584    0.9393 H   0  0  0  0  0  0  0  0  0  0  0  0
   -6.1898    0.4405   -2.4372 H   0  0  0  0  0  0  0  0  0  0  0  0
   -7.4901   -1.3632   -0.2996 H   0  0  0  0  0  0  0  0  0  0  0  0
   -8.3564   -0.3615   -3.0761 H   0  0  0  0  0  0  0  0  0  0  0  0
   -8.8109   -1.9148   -2.3907 H   0  0  0  0  0  0  0  0  0  0  0  0
  -10.3757    0.7326   -3.3334 H   0  0  0  0  0  0  0  0  0  0  0  0
  -11.1325   -0.8565   -3.0786 H   0  0  0  0  0  0  0  0  0  0  0  0
  -11.6606    0.5651   -2.1496 H   0  0  0  0  0  0  0  0  0  0  0  0
   -9.7165   -1.2203    0.3395 H   0  0  0  0  0  0  0  0  0  0  0  0
  -10.7183   -2.0389   -0.8795 H   0  0  0  0  0  0  0  0  0  0  0  0
  -11.2832   -0.5599   -0.0746 H   0  0  0  0  0  0  0  0  0  0  0  0
   -2.7806   -0.3653    0.7909 H   0  0  0  0  0  0  0  0  0  0  0  0
    0.6994    0.9883   -0.6664 H   0  0  0  0  0  0  0  0  0  0  0  0
    3.0079    0.9147   -1.3688 H   0  0  0  0  0  0  0  0  0  0  0  0
    5.7826   -0.3399    0.7563 H   0  0  0  0  0  0  0  0  0  0  0  0
    5.4763    1.5268   -4.0830 H   0  0  0  0  0  0  0  0  0  0  0  0
    7.9597    1.4160   -4.0256 H   0  0  0  0  0  0  0  0  0  0  0  0
    9.9430    0.1252   -3.8794 H   0  0  0  0  0  0  0  0  0  0  0  0
   12.3630   -0.0435   -3.4098 H   0  0  0  0  0  0  0  0  0  0  0  0
   13.1559    0.1965   -1.0543 H   0  0  0  0  0  0  0  0  0  0  0  0
    9.3293    0.7612    0.3384 H   0  0  0  0  0  0  0  0  0  0  0  0
  1  2  1  0
  2  3  2  0
  3  4  1  0
  4  5  1  0
  5  6  1  0
  6  7  2  0
  6  8  1  0
  8  9  2  0
  9 10  1  0
 10 11  2  0
 11 12  1  0
 12 13  1  0
 13 14  1  0
 14 15  2  0
 14 16  1  0
 16 17  2  0
 17 18  1  0
 18 19  1  0
 19 20  1  0
 19 21  1  0
 12 22  2  0
  4 23  2  0
 23 24  1  0
 24 25  2  0
 25 26  1  0
 26 27  1  0
 27 28  2  0
 28 29  1  0
 29 30  2  0
 30 31  1  0
 31 32  1  0
 32 33  2  0
 33 34  1  0
 34 35  2  0
 35 36  1  0
 36 37  2  0
 31 38  2  0
 25  2  1  0
 38 27  1  0
 22  8  1  0
 37 32  1  0
  1 39  1  0
  1 40  1  0
  1 41  1  0
  3 42  1  0
  5 43  1  0
  9 44  1  0
 10 45  1  0
 11 46  1  0
 13 47  1  0
 16 48  1  0
 17 49  1  0
 18 50  1  0
 18 51  1  0
 20 52  1  0
 20 53  1  0
 20 54  1  0
 21 55  1  0
 21 56  1  0
 21 57  1  0
 22 58  1  0
 23 59  1  0
 24 60  1  0
 26 61  1  0
 29 62  1  0
 30 63  1  0
 33 64  1  0
 34 65  1  0
 35 66  1  0
 37 67  1  0
M  END
$$$$
