
     RDKit          3D

 56 60  0  0  0  0  0  0  0  0999 V2000
   -0.6806    5.0782   -2.2356 C   0  0  0  0  0  0  0  0  0  0  0  0
   -0.8865    3.7518   -1.6268 C   0  0  0  0  0  0  0  0  0  0  0  0
   -1.1100    3.5887   -0.3177 N   0  0  0  0  0  0  0  0  0  0  0  0
   -1.2505    2.2049   -0.1863 O   0  0  0  0  0  0  0  0  0  0  0  0
   -1.0945    1.6821   -1.4378 C   0  0  0  0  0  0  0  0  0  0  0  0
   -1.1532    0.2087   -1.5940 C   0  0  0  0  0  0  0  0  0  0  0  0
   -2.3477   -0.4159   -0.8550 C   0  0  0  0  0  0  0  0  0  0  0  0
   -1.7661   -0.9092    0.4027 N   0  0  0  0  0  0  0  0  0  0  0  0
   -2.6361   -1.8488    1.1186 C   0  0  0  0  0  0  0  0  0  0  0  0
   -3.8796   -1.1857    1.6733 C   0  0  0  0  0  0  0  0  0  0  0  0
   -5.1564   -1.6379    1.3092 C   0  0  0  0  0  0  0  0  0  0  0  0
   -6.3000   -1.0302    1.8345 C   0  0  0  0  0  0  0  0  0  0  0  0
   -6.1800    0.0335    2.7280 C   0  0  0  0  0  0  0  0  0  0  0  0
   -4.9169    0.4927    3.0975 C   0  0  0  0  0  0  0  0  0  0  0  0
   -3.7734   -0.1153    2.5753 C   0  0  0  0  0  0  0  0  0  0  0  0
   -0.4937   -1.5175    0.0076 C   0  0  0  0  0  0  0  0  0  0  0  0
    0.0634   -0.5385   -1.0314 C   0  0  0  0  0  0  0  0  0  0  0  0
    1.3315    0.2307   -0.5503 C   0  0  0  0  0  0  0  0  0  0  0  0
    2.2084   -0.6930   -1.3373 N   0  0  0  0  0  0  0  0  0  0  0  0
    3.3504   -1.7446   -0.6589 S   0  0  0  0  0  6  0  0  0  0  0  0
    2.6928   -2.4813    0.3971 O   0  0  0  0  0  0  0  0  0  0  0  0
    4.0455   -2.4112   -1.7360 O   0  0  0  0  0  0  0  0  0  0  0  0
    4.5476   -0.8056    0.1021 C   0  0  0  0  0  0  0  0  0  0  0  0
    5.0572   -0.9234    1.4136 C   0  0  0  0  0  0  0  0  0  0  0  0
    4.7101   -1.8896    2.4856 C   0  0  0  0  0  0  0  0  0  0  0  0
    5.9935    0.0098    1.6413 N   0  0  0  0  0  0  0  0  0  0  0  0
    6.1138    0.7276    0.4635 O   0  0  0  0  0  0  0  0  0  0  0  0
    5.2484    0.2331   -0.4627 C   0  0  0  0  0  0  0  0  0  0  0  0
    5.2746    0.8696   -1.7941 C   0  0  0  0  0  0  0  0  0  0  0  0
    1.0094   -1.1652   -2.0897 C   0  0  0  0  0  0  0  0  0  0  0  0
   -0.8535    2.5914   -2.3562 N   0  0  0  0  0  0  0  0  0  0  0  0
    0.2113    5.5568   -1.8203 H   0  0  0  0  0  0  0  0  0  0  0  0
   -1.5429    5.7255   -2.0498 H   0  0  0  0  0  0  0  0  0  0  0  0
   -0.5480    4.9933   -3.3194 H   0  0  0  0  0  0  0  0  0  0  0  0
   -1.2721   -0.0070   -2.6645 H   0  0  0  0  0  0  0  0  0  0  0  0
   -2.7372   -1.2549   -1.4509 H   0  0  0  0  0  0  0  0  0  0  0  0
   -3.1681    0.2940   -0.6916 H   0  0  0  0  0  0  0  0  0  0  0  0
   -2.0920   -2.2768    1.9735 H   0  0  0  0  0  0  0  0  0  0  0  0
   -2.9109   -2.6951    0.4726 H   0  0  0  0  0  0  0  0  0  0  0  0
   -5.2705   -2.4663    0.6146 H   0  0  0  0  0  0  0  0  0  0  0  0
   -7.2856   -1.3885    1.5474 H   0  0  0  0  0  0  0  0  0  0  0  0
   -7.0703    0.5055    3.1365 H   0  0  0  0  0  0  0  0  0  0  0  0
   -4.8199    1.3243    3.7916 H   0  0  0  0  0  0  0  0  0  0  0  0
   -2.7911    0.2528    2.8665 H   0  0  0  0  0  0  0  0  0  0  0  0
   -0.6572   -2.5029   -0.4493 H   0  0  0  0  0  0  0  0  0  0  0  0
    0.1621   -1.6446    0.8750 H   0  0  0  0  0  0  0  0  0  0  0  0
    1.4581    1.2570   -0.9119 H   0  0  0  0  0  0  0  0  0  0  0  0
    1.5282    0.2170    0.5265 H   0  0  0  0  0  0  0  0  0  0  0  0
    5.3181   -1.7325    3.3836 H   0  0  0  0  0  0  0  0  0  0  0  0
    3.6571   -1.7832    2.7750 H   0  0  0  0  0  0  0  0  0  0  0  0
    4.8809   -2.9174    2.1435 H   0  0  0  0  0  0  0  0  0  0  0  0
    5.7714    0.2147   -2.5166 H   0  0  0  0  0  0  0  0  0  0  0  0
    4.2630    1.0772   -2.1554 H   0  0  0  0  0  0  0  0  0  0  0  0
    5.8189    1.8182   -1.7675 H   0  0  0  0  0  0  0  0  0  0  0  0
    0.9740   -0.7048   -3.0847 H   0  0  0  0  0  0  0  0  0  0  0  0
    0.9549   -2.2525   -2.2042 H   0  0  0  0  0  0  0  0  0  0  0  0
  1  2  1  0
  2  3  2  0
  3  4  1  0
  4  5  1  0
  5  6  1  0
  6  7  1  0
  7  8  1  0
  8  9  1  0
  9 10  1  0
 10 11  2  0
 11 12  1  0
 12 13  2  0
 13 14  1  0
 14 15  2  0
  8 16  1  0
 16 17  1  0
 17 18  1  0
 18 19  1  0
 19 20  1  0
 20 21  2  0
 20 22  2  0
 20 23  1  0
 23 24  1  0
 24 25  1  0
 24 26  2  0
 26 27  1  0
 27 28  1  0
 28 29  1  0
 19 30  1  0
  5 31  2  0
 31  2  1  0
 17  6  1  0
 28 23  2  0
 15 10  1  0
 30 17  1  0
  1 32  1  0
  1 33  1  0
  1 34  1  0
  6 35  1  0
  7 36  1  0
  7 37  1  0
  9 38  1  0
  9 39  1  0
 11 40  1  0
 12 41  1  0
 13 42  1  0
 14 43  1  0
 15 44  1  0
 16 45  1  0
 16 46  1  0
 18 47  1  0
 18 48  1  0
 25 49  1  0
 25 50  1  0
 25 51  1  0
 29 52  1  0
 29 53  1  0
 29 54  1  0
 30 55  1  0
 30 56  1  0
M  END
$$$$
