
     RDKit          3D

 37 39  0  0  0  0  0  0  0  0999 V2000
   -4.2411   -2.4452    0.0936 C   0  0  0  0  0  0  0  0  0  0  0  0
   -4.3130   -1.1380   -0.4626 O   0  0  0  0  0  0  0  0  0  0  0  0
   -3.3941   -0.2256   -0.0237 C   0  0  0  0  0  0  0  0  0  0  0  0
   -3.5222    1.0470   -0.5917 C   0  0  0  0  0  0  0  0  0  0  0  0
   -2.6486    2.0773   -0.2403 C   0  0  0  0  0  0  0  0  0  0  0  0
   -1.6311    1.8235    0.6809 C   0  0  0  0  0  0  0  0  0  0  0  0
   -0.5086    3.1291    1.1264 S   0  0  0  0  0  6  0  0  0  0  0  0
   -1.2168    4.3832    0.9844 O   0  0  0  0  0  0  0  0  0  0  0  0
    0.1380    2.7641    2.3683 O   0  0  0  0  0  0  0  0  0  0  0  0
    0.6274    3.0863   -0.1273 N   0  0  0  0  0  0  0  0  0  0  0  0
    1.2983    1.8669   -0.4230 C   0  0  0  0  0  0  0  0  0  0  0  0
    1.0691    1.2515   -1.6537 C   0  0  0  0  0  0  0  0  0  0  0  0
    1.6910    0.0399   -1.9353 C   0  0  0  0  0  0  0  0  0  0  0  0
    1.4638   -0.5532   -3.1165 F   0  0  0  0  0  0  0  0  0  0  0  0
    2.5366   -0.5608   -1.0053 C   0  0  0  0  0  0  0  0  0  0  0  0
    3.1545   -1.7863   -1.2941 N   0  0  0  0  0  0  0  0  0  0  0  0
    3.9934   -2.4312   -0.4271 C   0  0  0  0  0  0  0  0  0  0  0  0
    4.5216   -3.5040   -0.6945 O   0  0  0  0  0  0  0  0  0  0  0  0
    4.2407   -1.7660    0.8771 C   0  0  0  0  0  0  0  0  0  0  0  0
    3.6670   -0.5949    1.1861 C   0  0  0  0  0  0  0  0  0  0  0  0
    2.7736    0.0570    0.2280 C   0  0  0  0  0  0  0  0  0  0  0  0
    2.1519    1.2762    0.5152 C   0  0  0  0  0  0  0  0  0  0  0  0
   -1.5045    0.5632    1.2718 C   0  0  0  0  0  0  0  0  0  0  0  0
   -2.3845   -0.4625    0.9121 C   0  0  0  0  0  0  0  0  0  0  0  0
   -4.4089   -2.4235    1.1755 H   0  0  0  0  0  0  0  0  0  0  0  0
   -5.0395   -3.0438   -0.3553 H   0  0  0  0  0  0  0  0  0  0  0  0
   -3.2875   -2.9253   -0.1498 H   0  0  0  0  0  0  0  0  0  0  0  0
   -4.3171    1.2350   -1.3106 H   0  0  0  0  0  0  0  0  0  0  0  0
   -2.7733    3.0628   -0.6825 H   0  0  0  0  0  0  0  0  0  0  0  0
    0.3572    3.6928   -0.9010 H   0  0  0  0  0  0  0  0  0  0  0  0
    0.4068    1.6867   -2.3944 H   0  0  0  0  0  0  0  0  0  0  0  0
    2.9845   -2.2354   -2.1860 H   0  0  0  0  0  0  0  0  0  0  0  0
    4.9080   -2.2819    1.5564 H   0  0  0  0  0  0  0  0  0  0  0  0
    3.8541   -0.1167    2.1417 H   0  0  0  0  0  0  0  0  0  0  0  0
    2.3371    1.7704    1.4669 H   0  0  0  0  0  0  0  0  0  0  0  0
   -0.7266    0.3685    2.0072 H   0  0  0  0  0  0  0  0  0  0  0  0
   -2.2574   -1.4322    1.3830 H   0  0  0  0  0  0  0  0  0  0  0  0
  1  2  1  0
  2  3  1  0
  3  4  2  0
  4  5  1  0
  5  6  2  0
  6  7  1  0
  7  8  2  0
  7  9  2  0
  7 10  1  0
 10 11  1  0
 11 12  2  0
 12 13  1  0
 13 14  1  0
 13 15  2  0
 15 16  1  0
 16 17  1  0
 17 18  2  0
 17 19  1  0
 19 20  2  0
 20 21  1  0
 21 22  2  0
  6 23  1  0
 23 24  2  0
 24  3  1  0
 22 11  1  0
 21 15  1  0
  1 25  1  0
  1 26  1  0
  1 27  1  0
  4 28  1  0
  5 29  1  0
 10 30  1  0
 12 31  1  0
 16 32  1  0
 19 33  1  0
 20 34  1  0
 22 35  1  0
 23 36  1  0
 24 37  1  0
M  END
$$$$
