
     RDKit          3D

 48 50  0  0  0  0  0  0  0  0999 V2000
   -6.0144    0.1918   -0.8272 C   0  0  0  0  0  0  0  0  0  0  0  0
   -4.6990   -0.3284   -0.2707 C   0  0  0  0  0  0  0  0  0  0  0  0
   -3.5111    0.1529   -1.1067 C   0  0  0  0  0  0  0  0  0  0  0  0
   -2.2252   -0.3477   -0.6148 N   0  0  0  0  0  0  0  0  0  0  0  0
   -1.8694   -1.6536   -0.9788 C   0  0  0  0  0  0  0  0  0  0  0  0
   -2.5442   -2.3293   -1.7574 O   0  0  0  0  0  0  0  0  0  0  0  0
   -0.5422   -2.2025   -0.4519 C   0  0  0  0  0  0  0  0  0  0  0  0
    0.0407   -1.5319    0.7932 C   0  0  0  0  0  0  0  0  0  0  0  0
   -0.1762   -0.0183    0.7531 C   0  0  2  0  0  0  0  0  0  0  0  0
    0.6247    0.6612   -0.3970 C   0  0  0  0  0  0  0  0  0  0  0  0
    2.0629    0.6351   -0.1771 N   0  0  0  0  0  0  0  0  0  0  0  0
    2.9086   -0.2420   -0.8178 C   0  0  0  0  0  0  0  0  0  0  0  0
    2.5165   -1.0876   -1.6146 O   0  0  0  0  0  0  0  0  0  0  0  0
    4.3613   -0.1458   -0.5130 C   0  0  0  0  0  0  0  0  0  0  0  0
    5.2347   -1.0174   -1.1742 C   0  0  0  0  0  0  0  0  0  0  0  0
    6.5890   -0.9378   -0.8956 C   0  0  0  0  0  0  0  0  0  0  0  0
    7.1201   -0.0616   -0.0155 N   0  0  0  0  0  0  0  0  0  0  0  0
    6.2563    0.7699    0.6110 C   0  0  0  0  0  0  0  0  0  0  0  0
    4.8893    0.7635    0.3970 C   0  0  0  0  0  0  0  0  0  0  0  0
    4.1155    1.6288    1.0696 F   0  0  0  0  0  0  0  0  0  0  0  0
    0.0674    0.7000    2.0918 C   0  0  0  0  0  0  0  0  0  0  0  0
   -0.8259    1.9487    2.0245 C   0  0  0  0  0  0  0  0  0  0  0  0
   -1.9000    1.6546    0.9662 C   0  0  0  0  0  0  0  0  0  0  0  0
   -1.6970    0.1773    0.6285 C   0  0  1  0  0  0  0  0  0  0  0  0
   -6.0332    1.2863   -0.8300 H   0  0  0  0  0  0  0  0  0  0  0  0
   -6.1723   -0.1580   -1.8524 H   0  0  0  0  0  0  0  0  0  0  0  0
   -6.8507   -0.1608   -0.2155 H   0  0  0  0  0  0  0  0  0  0  0  0
   -4.5925    0.0064    0.7672 H   0  0  0  0  0  0  0  0  0  0  0  0
   -4.7258   -1.4239   -0.2461 H   0  0  0  0  0  0  0  0  0  0  0  0
   -3.4724    1.2468   -1.1358 H   0  0  0  0  0  0  0  0  0  0  0  0
   -3.6378   -0.1783   -2.1447 H   0  0  0  0  0  0  0  0  0  0  0  0
   -0.6849   -3.2685   -0.2380 H   0  0  0  0  0  0  0  0  0  0  0  0
    0.1703   -2.1376   -1.2805 H   0  0  0  0  0  0  0  0  0  0  0  0
   -0.4569   -1.9553    1.6762 H   0  0  0  0  0  0  0  0  0  0  0  0
    1.1009   -1.7861    0.8997 H   0  0  0  0  0  0  0  0  0  0  0  0
    0.4016    0.2062   -1.3672 H   0  0  0  0  0  0  0  0  0  0  0  0
    0.3692    1.7214   -0.4908 H   0  0  0  0  0  0  0  0  0  0  0  0
    2.4542    1.3277    0.4518 H   0  0  0  0  0  0  0  0  0  0  0  0
    4.8685   -1.7447   -1.8931 H   0  0  0  0  0  0  0  0  0  0  0  0
    7.3018   -1.5953   -1.3867 H   0  0  0  0  0  0  0  0  0  0  0  0
    6.7031    1.4660    1.3138 H   0  0  0  0  0  0  0  0  0  0  0  0
    1.1137    0.9577    2.2788 H   0  0  0  0  0  0  0  0  0  0  0  0
   -0.2595    0.0730    2.9315 H   0  0  0  0  0  0  0  0  0  0  0  0
   -0.2435    2.8302    1.7342 H   0  0  0  0  0  0  0  0  0  0  0  0
   -1.2730    2.1571    3.0021 H   0  0  0  0  0  0  0  0  0  0  0  0
   -2.9056    1.8520    1.3518 H   0  0  0  0  0  0  0  0  0  0  0  0
   -1.7567    2.2986    0.0913 H   0  0  0  0  0  0  0  0  0  0  0  0
   -2.2009   -0.4010    1.4200 H   0  0  0  0  0  0  0  0  0  0  0  0
  1  2  1  0
  2  3  1  0
  3  4  1  0
  4  5  1  0
  5  6  2  0
  5  7  1  0
  7  8  1  0
  8  9  1  0
  9 10  1  6
 10 11  1  0
 11 12  1  0
 12 13  2  0
 12 14  1  0
 14 15  2  0
 15 16  1  0
 16 17  2  0
 17 18  1  0
 18 19  2  0
 19 20  1  0
  9 21  1  0
 21 22  1  0
 22 23  1  0
 23 24  1  0
 24  4  1  0
 24  9  1  0
 19 14  1  0
  1 25  1  0
  1 26  1  0
  1 27  1  0
  2 28  1  0
  2 29  1  0
  3 30  1  0
  3 31  1  0
  7 32  1  0
  7 33  1  0
  8 34  1  0
  8 35  1  0
 10 36  1  0
 10 37  1  0
 11 38  1  0
 15 39  1  0
 16 40  1  0
 18 41  1  0
 21 42  1  0
 21 43  1  0
 22 44  1  0
 22 45  1  0
 23 46  1  0
 23 47  1  0
 24 48  1  1
M  END
$$$$
