
     RDKit          3D

 49 52  0  0  0  0  0  0  0  0999 V2000
    7.9764    0.9461    1.5587 C   0  0  0  0  0  0  0  0  0  0  0  0
    6.8912    0.1395    1.9997 O   0  0  0  0  0  0  0  0  0  0  0  0
    5.8525   -0.0309    1.1263 C   0  0  0  0  0  0  0  0  0  0  0  0
    5.7343    0.5613   -0.1336 C   0  0  0  0  0  0  0  0  0  0  0  0
    4.6123    0.3026   -0.9280 C   0  0  0  0  0  0  0  0  0  0  0  0
    3.6013   -0.5374   -0.4545 C   0  0  0  0  0  0  0  0  0  0  0  0
    2.4358   -0.8098   -1.3217 C   0  0  0  0  0  0  0  0  0  0  0  0
    2.6413   -1.3088   -2.4242 O   0  0  0  0  0  0  0  0  0  0  0  0
    1.1814   -0.4572   -0.8589 N   0  0  0  0  0  0  0  0  0  0  0  0
    0.8753    0.3706    0.2999 C   0  0  0  0  0  0  0  0  0  0  0  0
   -0.6465    0.4674    0.3112 C   0  0  0  0  0  0  0  0  0  0  0  0
   -0.9997    0.3636   -1.1754 C   0  0  0  0  0  0  0  0  0  0  0  0
   -2.4671    0.0969   -1.5071 C   0  0  0  0  0  0  0  0  0  0  0  0
   -3.0437   -1.1185   -0.8691 C   0  0  0  0  0  0  0  0  0  0  0  0
   -2.8470   -2.3597   -1.2677 N   0  0  0  0  0  0  0  0  0  0  0  0
   -3.5361   -3.2002   -0.4295 N   0  0  0  0  0  0  0  0  0  0  0  0
   -4.1525   -2.4567    0.4560 C   0  0  0  0  0  0  0  0  0  0  0  0
   -3.8843   -1.1418    0.2155 N   0  0  0  0  0  0  0  0  0  0  0  0
   -4.3812   -0.0351    1.0093 C   0  0  0  0  0  0  0  0  0  0  0  0
   -5.7535    0.3901    0.5799 C   0  0  0  0  0  0  0  0  0  0  0  0
   -5.9592    1.5247   -0.3924 C   0  0  0  0  0  0  0  0  0  0  0  0
   -6.3130    1.7070    1.0572 C   0  0  0  0  0  0  0  0  0  0  0  0
   -0.0035   -0.6836   -1.6769 C   0  0  0  0  0  0  0  0  0  0  0  0
    3.7237   -1.1530    0.7921 C   0  0  0  0  0  0  0  0  0  0  0  0
    4.8450   -0.8891    1.5812 C   0  0  0  0  0  0  0  0  0  0  0  0
    8.4459    0.5231    0.6643 H   0  0  0  0  0  0  0  0  0  0  0  0
    8.7277    0.9594    2.3542 H   0  0  0  0  0  0  0  0  0  0  0  0
    7.6552    1.9787    1.3869 H   0  0  0  0  0  0  0  0  0  0  0  0
    6.4978    1.2218   -0.5308 H   0  0  0  0  0  0  0  0  0  0  0  0
    4.5283    0.7495   -1.9160 H   0  0  0  0  0  0  0  0  0  0  0  0
    1.2587   -0.0728    1.2213 H   0  0  0  0  0  0  0  0  0  0  0  0
    1.3391    1.3519    0.1515 H   0  0  0  0  0  0  0  0  0  0  0  0
   -0.9993    1.3955    0.7701 H   0  0  0  0  0  0  0  0  0  0  0  0
   -1.0577   -0.3744    0.8798 H   0  0  0  0  0  0  0  0  0  0  0  0
   -0.7319    1.3224   -1.6445 H   0  0  0  0  0  0  0  0  0  0  0  0
   -3.0537    0.9815   -1.2406 H   0  0  0  0  0  0  0  0  0  0  0  0
   -2.5689   -0.0091   -2.5948 H   0  0  0  0  0  0  0  0  0  0  0  0
   -4.7829   -2.8118    1.2588 H   0  0  0  0  0  0  0  0  0  0  0  0
   -3.6574    0.7843    0.9563 H   0  0  0  0  0  0  0  0  0  0  0  0
   -4.4087   -0.3728    2.0521 H   0  0  0  0  0  0  0  0  0  0  0  0
   -6.4489   -0.4431    0.5389 H   0  0  0  0  0  0  0  0  0  0  0  0
   -6.7712    1.4364   -1.1069 H   0  0  0  0  0  0  0  0  0  0  0  0
   -5.1034    2.0709   -0.7702 H   0  0  0  0  0  0  0  0  0  0  0  0
   -7.3652    1.7482    1.3192 H   0  0  0  0  0  0  0  0  0  0  0  0
   -5.6866    2.3621    1.6523 H   0  0  0  0  0  0  0  0  0  0  0  0
    0.2196   -0.5684   -2.7422 H   0  0  0  0  0  0  0  0  0  0  0  0
   -0.3259   -1.7121   -1.4913 H   0  0  0  0  0  0  0  0  0  0  0  0
    2.9623   -1.8443    1.1431 H   0  0  0  0  0  0  0  0  0  0  0  0
    4.9435   -1.3652    2.5540 H   0  0  0  0  0  0  0  0  0  0  0  0
  1  2  1  0
  2  3  1  0
  3  4  2  0
  4  5  1  0
  5  6  2  0
  6  7  1  0
  7  8  2  0
  7  9  1  0
  9 10  1  0
 10 11  1  0
 11 12  1  0
 12 13  1  0
 13 14  1  0
 14 15  2  0
 15 16  1  0
 16 17  2  0
 17 18  1  0
 18 19  1  0
 19 20  1  0
 20 21  1  0
 21 22  1  0
 12 23  1  0
  6 24  1  0
 24 25  2  0
 25  3  1  0
 23  9  1  0
 18 14  1  0
 22 20  1  0
  1 26  1  0
  1 27  1  0
  1 28  1  0
  4 29  1  0
  5 30  1  0
 10 31  1  0
 10 32  1  0
 11 33  1  0
 11 34  1  0
 12 35  1  0
 13 36  1  0
 13 37  1  0
 17 38  1  0
 19 39  1  0
 19 40  1  0
 20 41  1  0
 21 42  1  0
 21 43  1  0
 22 44  1  0
 22 45  1  0
 23 46  1  0
 23 47  1  0
 24 48  1  0
 25 49  1  0
M  END
$$$$
