
     RDKit          3D

 47 49  0  0  0  0  0  0  0  0999 V2000
    7.0455    3.1174    0.1953 C   0  0  0  0  0  0  0  0  0  0  0  0
    6.8589    1.8910   -0.5001 O   0  0  0  0  0  0  0  0  0  0  0  0
    5.6727    1.2428   -0.2962 C   0  0  0  0  0  0  0  0  0  0  0  0
    5.5300    0.0468   -0.9984 C   0  0  0  0  0  0  0  0  0  0  0  0
    4.3632   -0.7198   -0.8816 C   0  0  0  0  0  0  0  0  0  0  0  0
    3.3072   -0.3181   -0.0495 C   0  0  0  0  0  0  0  0  0  0  0  0
    2.0913   -1.0732    0.0759 N   0  0  0  0  0  0  0  0  0  0  0  0
    0.9903   -0.2794    0.3309 N   0  0  0  0  0  0  0  0  0  0  0  0
   -0.1937   -0.8175    0.2907 C   0  0  0  0  0  0  0  0  0  0  0  0
   -1.3841    0.0834    0.6150 C   0  0  0  0  0  0  0  0  0  0  0  0
   -1.2050    1.0405    1.3550 O   0  0  0  0  0  0  0  0  0  0  0  0
   -2.5731   -0.3064    0.0237 N   0  0  0  0  0  0  0  0  0  0  0  0
   -3.8236    0.3366    0.1074 C   0  0  0  0  0  0  0  0  0  0  0  0
   -4.9091   -0.2991   -0.5105 C   0  0  0  0  0  0  0  0  0  0  0  0
   -6.1871    0.2717   -0.4814 C   0  0  0  0  0  0  0  0  0  0  0  0
   -6.3914    1.4949    0.1640 C   0  0  0  0  0  0  0  0  0  0  0  0
   -7.7280    2.1437    0.2280 C   0  0  0  0  0  0  0  0  0  0  0  0
   -8.6355    1.8142   -0.7412 N   0  0  0  0  0  0  0  0  0  0  0  0
   -8.0046    2.9686    1.0890 O   0  0  0  0  0  0  0  0  0  0  0  0
   -5.3130    2.1256    0.7922 C   0  0  0  0  0  0  0  0  0  0  0  0
   -4.0355    1.5527    0.7585 C   0  0  0  0  0  0  0  0  0  0  0  0
   -0.3544   -2.2676   -0.0673 C   0  0  0  0  0  0  0  0  0  0  0  0
   -1.4593   -2.7100   -0.3551 O   0  0  0  0  0  0  0  0  0  0  0  0
    0.8418   -3.1091   -0.0672 C   0  0  0  0  0  0  0  0  0  0  0  0
    2.0253   -2.4794    0.0051 C   0  0  0  0  0  0  0  0  0  0  0  0
    3.2288   -3.1646    0.0520 O   0  0  0  0  0  0  0  0  0  0  0  0
    3.2275   -4.5857    0.0774 C   0  0  0  0  0  0  0  0  0  0  0  0
    3.4651    0.9018    0.6369 C   0  0  0  0  0  0  0  0  0  0  0  0
    4.6320    1.6710    0.5222 C   0  0  0  0  0  0  0  0  0  0  0  0
    8.0338    3.5050   -0.0703 H   0  0  0  0  0  0  0  0  0  0  0  0
    6.3030    3.8619   -0.1106 H   0  0  0  0  0  0  0  0  0  0  0  0
    7.0288    2.9634    1.2794 H   0  0  0  0  0  0  0  0  0  0  0  0
    6.3303   -0.2923   -1.6512 H   0  0  0  0  0  0  0  0  0  0  0  0
    4.2881   -1.6244   -1.4773 H   0  0  0  0  0  0  0  0  0  0  0  0
   -2.5638   -1.1993   -0.4694 H   0  0  0  0  0  0  0  0  0  0  0  0
   -4.7784   -1.2545   -1.0141 H   0  0  0  0  0  0  0  0  0  0  0  0
   -7.0111   -0.2649   -0.9421 H   0  0  0  0  0  0  0  0  0  0  0  0
   -9.4809    2.3714   -0.7504 H   0  0  0  0  0  0  0  0  0  0  0  0
   -8.3533    1.3928   -1.6140 H   0  0  0  0  0  0  0  0  0  0  0  0
   -5.4594    3.0717    1.3111 H   0  0  0  0  0  0  0  0  0  0  0  0
   -3.2305    2.0878    1.2535 H   0  0  0  0  0  0  0  0  0  0  0  0
    0.6931   -4.1740   -0.1437 H   0  0  0  0  0  0  0  0  0  0  0  0
    2.6965   -4.9622    0.9576 H   0  0  0  0  0  0  0  0  0  0  0  0
    2.7997   -4.9926   -0.8443 H   0  0  0  0  0  0  0  0  0  0  0  0
    4.2667   -4.9217    0.1421 H   0  0  0  0  0  0  0  0  0  0  0  0
    2.6702    1.2631    1.2872 H   0  0  0  0  0  0  0  0  0  0  0  0
    4.6854    2.5958    1.0862 H   0  0  0  0  0  0  0  0  0  0  0  0
  1  2  1  0
  2  3  1  0
  3  4  2  0
  4  5  1  0
  5  6  2  0
  6  7  1  0
  7  8  1  0
  8  9  2  0
  9 10  1  0
 10 11  2  0
 10 12  1  0
 12 13  1  0
 13 14  2  0
 14 15  1  0
 15 16  2  0
 16 17  1  0
 17 18  1  0
 17 19  2  0
 16 20  1  0
 20 21  2  0
  9 22  1  0
 22 23  2  0
 22 24  1  0
 24 25  2  0
 25 26  1  0
 26 27  1  0
  6 28  1  0
 28 29  2  0
 29  3  1  0
 25  7  1  0
 21 13  1  0
  1 30  1  0
  1 31  1  0
  1 32  1  0
  4 33  1  0
  5 34  1  0
 12 35  1  0
 14 36  1  0
 15 37  1  0
 18 38  1  0
 18 39  1  0
 20 40  1  0
 21 41  1  0
 24 42  1  0
 27 43  1  0
 27 44  1  0
 27 45  1  0
 28 46  1  0
 29 47  1  0
M  END
$$$$
