
     RDKit          3D

 35 37  0  0  0  0  0  0  0  0999 V2000
   -5.0097   -0.2781    0.7326 O   0  0  0  0  0  0  0  0  0  0  0  0
   -4.0054    0.7025    0.4897 C   0  0  0  0  0  0  0  0  0  0  0  0
   -3.0980    0.2522   -0.6512 C   0  0  1  0  0  0  0  0  0  0  0  0
   -2.0127    1.1715   -0.8544 O   0  0  0  0  0  0  0  0  0  0  0  0
   -0.8516    0.4022   -1.2458 C   0  0  1  0  0  0  0  0  0  0  0  0
    0.2293    0.6258   -0.2946 N   0  0  0  0  0  0  0  0  0  0  0  0
    0.1100    1.2081    0.9403 C   0  0  0  0  0  0  0  0  0  0  0  0
    1.2525    1.2285    1.5880 N   0  0  0  0  0  0  0  0  0  0  0  0
    2.1579    0.6395    0.7351 C   0  0  0  0  0  0  0  0  0  0  0  0
    1.5533    0.2856   -0.4530 C   0  0  0  0  0  0  0  0  0  0  0  0
    2.0857   -0.2540   -1.5747 N   0  0  0  0  0  0  0  0  0  0  0  0
    3.4192   -0.5508   -1.7646 C   0  0  0  0  0  0  0  0  0  0  0  0
    4.4125   -0.7509   -0.9847 N   0  0  0  0  0  0  0  0  0  0  0  0
    4.2365   -0.7605    0.4777 C   0  0  0  0  0  0  0  0  0  0  0  0
    3.5953    0.4918    1.1012 C   0  0  1  0  0  0  0  0  0  0  0  0
    4.3422    1.6719    0.7849 O   0  0  0  0  0  0  0  0  0  0  0  0
   -1.2802   -1.0568   -1.3345 C   0  0  0  0  0  0  0  0  0  0  0  0
   -2.4581   -1.1064   -0.3927 C   0  0  2  0  0  0  0  0  0  0  0  0
   -3.3170   -2.1896   -0.6935 O   0  0  0  0  0  0  0  0  0  0  0  0
   -5.6022    0.0902    1.4140 H   0  0  0  0  0  0  0  0  0  0  0  0
   -4.4845    1.6546    0.2377 H   0  0  0  0  0  0  0  0  0  0  0  0
   -3.4302    0.8571    1.4090 H   0  0  0  0  0  0  0  0  0  0  0  0
   -3.6916    0.2103   -1.5742 H   0  0  0  0  0  0  0  0  0  0  0  0
   -0.5047    0.7840   -2.2121 H   0  0  0  0  0  0  0  0  0  0  0  0
   -0.8253    1.6004    1.3180 H   0  0  0  0  0  0  0  0  0  0  0  0
    1.5487   -0.2599   -2.4353 H   0  0  0  0  0  0  0  0  0  0  0  0
    3.6322   -0.6292   -2.8456 H   0  0  0  0  0  0  0  0  0  0  0  0
    3.6820   -1.6630    0.7651 H   0  0  0  0  0  0  0  0  0  0  0  0
    5.2430   -0.8649    0.9010 H   0  0  0  0  0  0  0  0  0  0  0  0
    3.6519    0.3773    2.1911 H   0  0  0  0  0  0  0  0  0  0  0  0
    3.7861    2.4106    1.0889 H   0  0  0  0  0  0  0  0  0  0  0  0
   -1.6090   -1.2918   -2.3550 H   0  0  0  0  0  0  0  0  0  0  0  0
   -0.5019   -1.7821   -1.0777 H   0  0  0  0  0  0  0  0  0  0  0  0
   -2.1101   -1.1999    0.6430 H   0  0  0  0  0  0  0  0  0  0  0  0
   -4.1462   -2.0261   -0.1960 H   0  0  0  0  0  0  0  0  0  0  0  0
  1  2  1  0
  2  3  1  0
  3  4  1  0
  4  5  1  0
  5  6  1  0
  6  7  1  0
  7  8  2  0
  8  9  1  0
  9 10  2  0
 10 11  1  0
 11 12  1  0
 12 13  2  0
 13 14  1  0
 14 15  1  0
 15 16  1  0
  5 17  1  0
 17 18  1  0
 18 19  1  0
 18  3  1  0
 10  6  1  0
 15  9  1  0
  1 20  1  0
  2 21  1  0
  2 22  1  0
  3 23  1  6
  5 24  1  6
  7 25  1  0
 11 26  1  0
 12 27  1  0
 14 28  1  0
 14 29  1  0
 15 30  1  1
 16 31  1  0
 17 32  1  0
 17 33  1  0
 18 34  1  1
 19 35  1  0
M  END
$$$$
