
     RDKit          3D

 56 55  0  0  0  0  0  0  0  0999 V2000
   -5.2362    0.8896    0.5406 C   0  0  0  0  0  0  0  0  0  0  0  0
   -4.4409   -0.1419    1.3263 C   0  0  0  0  0  0  0  0  0  0  0  0
   -3.5814   -0.9511    0.4705 N   0  0  0  0  0  0  0  0  0  0  0  0
   -4.1950   -2.0483   -0.2589 C   0  0  0  0  0  0  0  0  0  0  0  0
   -2.3230   -0.4537    0.1376 C   0  0  0  0  0  0  0  0  0  0  0  0
   -1.8485    0.5611    0.6390 O   0  0  0  0  0  0  0  0  0  0  0  0
   -1.6832   -1.2311   -0.8272 O   0  0  0  0  0  0  0  0  0  0  0  0
   -0.3962   -0.8463   -1.2382 C   0  0  0  0  0  0  0  0  0  0  0  0
   -0.1880   -0.7001   -2.6068 C   0  0  0  0  0  0  0  0  0  0  0  0
    1.0804   -0.3628   -3.0684 C   0  0  0  0  0  0  0  0  0  0  0  0
    2.1292   -0.1909   -2.1609 C   0  0  0  0  0  0  0  0  0  0  0  0
    1.9356   -0.3634   -0.7754 C   0  0  0  0  0  0  0  0  0  0  0  0
    3.1256   -0.1488    0.1645 C   0  0  2  0  0  0  0  0  0  0  0  0
    2.9499   -0.7667    1.5636 C   0  0  0  0  0  0  0  0  0  0  0  0
    3.5476    1.2710    0.1641 N   0  0  0  0  0  0  0  0  0  0  0  0
    4.8938    1.4600    0.6979 C   0  0  0  0  0  0  0  0  0  0  0  0
    2.6023    2.1702    0.8254 C   0  0  0  0  0  0  0  0  0  0  0  0
    0.6506   -0.7020   -0.3246 C   0  0  0  0  0  0  0  0  0  0  0  0
    1.9111    1.8599   -0.7489 O   0  0  0  0  0  0  0  0  0  0  0  0
    1.1631    1.5435    0.1607 C   0  0  0  0  0  0  0  0  0  0  0  0
    1.4505    1.8775    1.4401 O   0  0  0  0  0  0  0  0  0  0  0  0
   -0.1328    0.7495    0.0441 C   0  0  2  0  0  0  0  0  0  0  0  0
   -0.8839    0.7279    1.2660 O   0  0  0  0  0  0  0  0  0  0  0  0
    0.2061   -0.6729   -0.3982 C   0  0  1  0  0  0  0  0  0  0  0  0
    0.5300   -1.4876    0.7343 O   0  0  0  0  0  0  0  0  0  0  0  0
   -0.9674   -1.2141   -1.2056 C   0  0  0  0  0  0  0  0  0  0  0  0
   -1.3151   -0.8442   -2.3152 O   0  0  0  0  0  0  0  0  0  0  0  0
   -1.6610   -2.1713   -0.5498 O   0  0  0  0  0  0  0  0  0  0  0  0
   -5.8940    0.4092   -0.1906 H   0  0  0  0  0  0  0  0  0  0  0  0
   -4.5725    1.5696   -0.0028 H   0  0  0  0  0  0  0  0  0  0  0  0
   -5.8573    1.4856    1.2164 H   0  0  0  0  0  0  0  0  0  0  0  0
   -3.8246    0.3741    2.0712 H   0  0  0  0  0  0  0  0  0  0  0  0
   -5.1154   -0.8091    1.8744 H   0  0  0  0  0  0  0  0  0  0  0  0
   -4.7511   -1.6400   -1.1076 H   0  0  0  0  0  0  0  0  0  0  0  0
   -4.8758   -2.5906    0.4035 H   0  0  0  0  0  0  0  0  0  0  0  0
   -3.4455   -2.7512   -0.6313 H   0  0  0  0  0  0  0  0  0  0  0  0
   -1.0063   -0.8377   -3.3060 H   0  0  0  0  0  0  0  0  0  0  0  0
    1.2565   -0.2263   -4.1319 H   0  0  0  0  0  0  0  0  0  0  0  0
    3.1121    0.0935   -2.5340 H   0  0  0  0  0  0  0  0  0  0  0  0
    3.9375   -0.7277   -0.3010 H   0  0  0  0  0  0  0  0  0  0  0  0
    3.8775   -0.7148    2.1425 H   0  0  0  0  0  0  0  0  0  0  0  0
    2.1654   -0.2729    2.1458 H   0  0  0  0  0  0  0  0  0  0  0  0
    2.6843   -1.8275    1.4853 H   0  0  0  0  0  0  0  0  0  0  0  0
    5.2280    2.4899    0.5288 H   0  0  0  0  0  0  0  0  0  0  0  0
    5.6130    0.8141    0.1825 H   0  0  0  0  0  0  0  0  0  0  0  0
    4.9552    1.2600    1.7727 H   0  0  0  0  0  0  0  0  0  0  0  0
    2.5347    1.9907    1.9035 H   0  0  0  0  0  0  0  0  0  0  0  0
    1.5986    2.0914    0.3959 H   0  0  0  0  0  0  0  0  0  0  0  0
    2.9111    3.2122    0.6810 H   0  0  0  0  0  0  0  0  0  0  0  0
    0.4462   -0.8370    0.7324 H   0  0  0  0  0  0  0  0  0  0  0  0
    2.2965    2.3707    1.3750 H   0  0  0  0  0  0  0  0  0  0  0  0
   -0.7475    1.2783   -0.6928 H   0  0  0  0  0  0  0  0  0  0  0  0
   -0.2140    0.8009    1.9778 H   0  0  0  0  0  0  0  0  0  0  0  0
    1.0747   -0.7040   -1.0659 H   0  0  0  0  0  0  0  0  0  0  0  0
   -0.3324   -1.6943    1.1496 H   0  0  0  0  0  0  0  0  0  0  0  0
   -2.3781   -2.4198   -1.1711 H   0  0  0  0  0  0  0  0  0  0  0  0
  1  2  1  0
  2  3  1  0
  3  4  1  0
  3  5  1  0
  5  6  2  0
  5  7  1  0
  7  8  1  0
  8  9  2  0
  9 10  1  0
 10 11  2  0
 11 12  1  0
 12 13  1  0
 13 14  1  0
 13 15  1  0
 15 16  1  0
 15 17  1  0
 12 18  2  0
 19 20  2  0
 20 21  1  0
 20 22  1  0
 22 23  1  0
 22 24  1  0
 24 25  1  0
 24 26  1  0
 26 27  2  0
 26 28  1  0
 18  8  1  0
  1 29  1  0
  1 30  1  0
  1 31  1  0
  2 32  1  0
  2 33  1  0
  4 34  1  0
  4 35  1  0
  4 36  1  0
  9 37  1  0
 10 38  1  0
 11 39  1  0
 13 40  1  6
 14 41  1  0
 14 42  1  0
 14 43  1  0
 16 44  1  0
 16 45  1  0
 16 46  1  0
 17 47  1  0
 17 48  1  0
 17 49  1  0
 18 50  1  0
 21 51  1  0
 22 52  1  6
 23 53  1  0
 24 54  1  6
 25 55  1  0
 28 56  1  0
M  END
$$$$
