
     RDKit          3D

 44 47  0  0  0  0  0  0  0  0999 V2000
   -2.3884    1.2637    2.5005 O   0  0  0  0  0  0  0  0  0  0  0  0
   -1.0671    1.3386    2.1369 C   0  0  0  0  0  0  0  0  0  0  0  0
   -0.3484    2.4223    2.6410 C   0  0  0  0  0  0  0  0  0  0  0  0
    0.9953    2.6065    2.3114 C   0  0  0  0  0  0  0  0  0  0  0  0
    1.5608    1.6521    1.4662 C   0  0  0  0  0  0  0  0  0  0  0  0
    2.8246    1.5152    0.9525 N   0  0  0  0  0  0  0  0  0  0  0  0
    2.8739    0.3820    0.1724 C   0  0  0  0  0  0  0  0  0  0  0  0
    4.0689   -0.0913   -0.5381 C   0  0  0  0  0  0  0  0  0  0  0  0
    4.0252   -1.3318   -1.1939 C   0  0  0  0  0  0  0  0  0  0  0  0
    5.1370   -1.8246   -1.8816 C   0  0  0  0  0  0  0  0  0  0  0  0
    6.3125   -1.0808   -1.9255 C   0  0  0  0  0  0  0  0  0  0  0  0
    6.3747    0.1540   -1.2842 C   0  0  0  0  0  0  0  0  0  0  0  0
    5.2608    0.6470   -0.5953 C   0  0  0  0  0  0  0  0  0  0  0  0
    1.6912   -0.2093    0.1746 N   0  0  0  0  0  0  0  0  0  0  0  0
    0.8649    0.5623    0.9601 C   0  0  0  0  0  0  0  0  0  0  0  0
   -0.4945    0.3720    1.2825 C   0  0  0  0  0  0  0  0  0  0  0  0
   -1.2554   -0.8414    0.8045 C   0  0  0  0  0  0  0  0  0  0  0  0
   -2.6547   -0.5435    0.4147 N   0  0  0  0  0  0  0  0  0  0  0  0
   -2.6909    0.2472   -0.8382 C   0  0  0  0  0  0  0  0  0  0  0  0
   -3.9952    0.0936   -1.6349 C   0  0  0  0  0  0  0  0  0  0  0  0
   -5.1752   -0.2014   -0.7218 C   0  0  0  0  0  0  0  0  0  0  0  0
   -4.9167   -1.4557    0.1155 C   0  0  0  0  0  0  0  0  0  0  0  0
   -3.4266   -1.7821    0.2702 C   0  0  0  0  0  0  0  0  0  0  0  0
   -2.8052    0.6161    1.8885 H   0  0  0  0  0  0  0  0  0  0  0  0
   -0.8472    3.1340    3.2946 H   0  0  0  0  0  0  0  0  0  0  0  0
    1.5595    3.4475    2.6978 H   0  0  0  0  0  0  0  0  0  0  0  0
    3.5946    2.1392    1.1325 H   0  0  0  0  0  0  0  0  0  0  0  0
    3.1121   -1.9251   -1.1690 H   0  0  0  0  0  0  0  0  0  0  0  0
    5.0804   -2.7882   -2.3812 H   0  0  0  0  0  0  0  0  0  0  0  0
    7.1781   -1.4624   -2.4608 H   0  0  0  0  0  0  0  0  0  0  0  0
    7.2919    0.7367   -1.3218 H   0  0  0  0  0  0  0  0  0  0  0  0
    5.3513    1.6169   -0.1170 H   0  0  0  0  0  0  0  0  0  0  0  0
   -1.2573   -1.5430    1.6495 H   0  0  0  0  0  0  0  0  0  0  0  0
   -0.7253   -1.3407   -0.0165 H   0  0  0  0  0  0  0  0  0  0  0  0
   -1.8624   -0.0173   -1.5082 H   0  0  0  0  0  0  0  0  0  0  0  0
   -2.5642    1.3050   -0.5786 H   0  0  0  0  0  0  0  0  0  0  0  0
   -3.8882   -0.7268   -2.3562 H   0  0  0  0  0  0  0  0  0  0  0  0
   -4.1838    1.0037   -2.2153 H   0  0  0  0  0  0  0  0  0  0  0  0
   -5.3363    0.6543   -0.0538 H   0  0  0  0  0  0  0  0  0  0  0  0
   -6.0950   -0.3216   -1.3048 H   0  0  0  0  0  0  0  0  0  0  0  0
   -5.3773   -1.3205    1.1020 H   0  0  0  0  0  0  0  0  0  0  0  0
   -5.4168   -2.3159   -0.3457 H   0  0  0  0  0  0  0  0  0  0  0  0
   -3.3147   -2.4186    1.1566 H   0  0  0  0  0  0  0  0  0  0  0  0
   -3.0712   -2.3677   -0.5880 H   0  0  0  0  0  0  0  0  0  0  0  0
  1  2  1  0
  2  3  2  0
  3  4  1  0
  4  5  2  0
  5  6  1  0
  6  7  1  0
  7  8  1  0
  8  9  2  0
  9 10  1  0
 10 11  2  0
 11 12  1  0
 12 13  2  0
  7 14  2  0
 14 15  1  0
 15 16  2  0
 16 17  1  0
 17 18  1  0
 18 19  1  0
 19 20  1  0
 20 21  1  0
 21 22  1  0
 22 23  1  0
 16  2  1  0
 23 18  1  0
 15  5  1  0
 13  8  1  0
  1 24  1  0
  3 25  1  0
  4 26  1  0
  6 27  1  0
  9 28  1  0
 10 29  1  0
 11 30  1  0
 12 31  1  0
 13 32  1  0
 17 33  1  0
 17 34  1  0
 19 35  1  0
 19 36  1  0
 20 37  1  0
 20 38  1  0
 21 39  1  0
 21 40  1  0
 22 41  1  0
 22 42  1  0
 23 43  1  0
 23 44  1  0
M  END
$$$$
