
     RDKit          3D

104108  0  0  0  0  0  0  0  0999 V2000
  -10.0423    0.2057    1.6994 C   0  0  0  0  0  0  0  0  0  0  0  0
   -8.9354   -0.9453    0.9222 S   0  0  0  0  0  6  0  0  0  0  0  0
   -9.7098   -2.1126    0.5448 O   0  0  0  0  0  0  0  0  0  0  0  0
   -7.7695   -1.0693    1.7760 O   0  0  0  0  0  0  0  0  0  0  0  0
   -8.4513   -0.0877   -0.5630 C   0  0  0  0  0  0  0  0  0  0  0  0
   -7.4770   -0.9312   -1.3713 C   0  0  0  0  0  0  0  0  0  0  0  0
   -7.0567   -0.1881   -2.5687 N   0  0  0  0  0  0  0  0  0  0  0  0
   -6.1578   -0.9831   -3.4195 C   0  0  0  0  0  0  0  0  0  0  0  0
   -4.8028   -1.1506   -2.8256 C   0  0  0  0  0  0  0  0  0  0  0  0
   -3.9946   -2.2458   -2.6119 C   0  0  0  0  0  0  0  0  0  0  0  0
   -2.8207   -1.7573   -1.9849 C   0  0  0  0  0  0  0  0  0  0  0  0
   -2.9743   -0.3904   -1.8531 C   0  0  0  0  0  0  0  0  0  0  0  0
   -2.1531    0.6822   -1.2977 C   0  0  0  0  0  0  0  0  0  0  0  0
   -2.5282    2.0218   -1.4148 C   0  0  0  0  0  0  0  0  0  0  0  0
   -1.7235    3.0394   -0.8890 C   0  0  0  0  0  0  0  0  0  0  0  0
   -0.5358    2.7675   -0.2297 C   0  0  0  0  0  0  0  0  0  0  0  0
    0.1771    3.7937    0.2389 N   0  0  0  0  0  0  0  0  0  0  0  0
    1.3199    3.4921    0.8624 C   0  0  0  0  0  0  0  0  0  0  0  0
    1.8085    2.2657    1.0631 N   0  0  0  0  0  0  0  0  0  0  0  0
    1.0775    1.2361    0.5977 C   0  0  0  0  0  0  0  0  0  0  0  0
    1.5347   -0.0922    0.8109 N   0  0  0  0  0  0  0  0  0  0  0  0
    2.8354   -0.5282    1.1457 C   0  0  0  0  0  0  0  0  0  0  0  0
    3.9858    0.1813    0.7780 C   0  0  0  0  0  0  0  0  0  0  0  0
    5.2660   -0.3202    1.0439 C   0  0  0  0  0  0  0  0  0  0  0  0
    5.4176   -1.5537    1.6794 C   0  0  0  0  0  0  0  0  0  0  0  0
    6.6475   -2.1109    1.9173 O   0  0  0  0  0  0  0  0  0  0  0  0
    7.6115   -1.2290    2.5042 C   0  0  0  0  0  0  0  0  0  0  0  0
    8.6101   -0.7082    1.4948 C   0  0  0  0  0  0  0  0  0  0  0  0
    8.9668   -1.4521    0.3570 C   0  0  0  0  0  0  0  0  0  0  0  0
    9.9051   -0.9594   -0.5551 C   0  0  0  0  0  0  0  0  0  0  0  0
   10.5123    0.2737   -0.3312 C   0  0  0  0  0  0  0  0  0  0  0  0
   10.1767    1.0022    0.8033 C   0  0  0  0  0  0  0  0  0  0  0  0
   10.7606    2.1906    1.0204 F   0  0  0  0  0  0  0  0  0  0  0  0
    9.2386    0.5260    1.7145 C   0  0  0  0  0  0  0  0  0  0  0  0
    4.2766   -2.2965    2.0009 C   0  0  0  0  0  0  0  0  0  0  0  0
    4.3984   -3.8527    2.7449 Cl  0  0  0  0  0  0  0  0  0  0  0  0
    3.0001   -1.7905    1.7325 C   0  0  0  0  0  0  0  0  0  0  0  0
   -0.1397    1.4322   -0.0858 C   0  0  0  0  0  0  0  0  0  0  0  0
   -0.9535    0.3999   -0.6321 C   0  0  0  0  0  0  0  0  0  0  0  0
   -4.1862   -0.0218   -2.3685 O   0  0  0  0  0  0  0  0  0  0  0  0
   -3.1815    0.0852    0.2012 C   0  0  0  0  0  0  0  0  0  0  0  0
   -1.6844   -0.0311    0.1907 C   0  0  0  0  0  0  0  0  0  0  0  0
   -0.9844    0.0349   -1.0225 C   0  0  0  0  0  0  0  0  0  0  0  0
    0.4075   -0.0520   -1.0407 C   0  0  0  0  0  0  0  0  0  0  0  0
    1.1003   -0.1976    0.1633 C   0  0  0  0  0  0  0  0  0  0  0  0
    2.8659   -0.2841    0.1308 S   0  0  0  0  0  6  0  0  0  0  0  0
    3.3701    0.1523    1.4150 O   0  0  0  0  0  0  0  0  0  0  0  0
    3.2365   -1.5545   -0.4462 O   0  0  0  0  0  0  0  0  0  0  0  0
    3.3088    0.8784   -0.8974 O   0  0  0  0  0  0  0  0  0  0  0  0
    0.4214   -0.2476    1.3826 C   0  0  0  0  0  0  0  0  0  0  0  0
   -0.9718   -0.1624    1.3923 C   0  0  0  0  0  0  0  0  0  0  0  0
   -3.1812    0.1618    0.0029 C   0  0  0  0  0  0  0  0  0  0  0  0
   -1.6853    0.0491    0.0101 C   0  0  0  0  0  0  0  0  0  0  0  0
   -1.0366   -0.7792   -0.9173 C   0  0  0  0  0  0  0  0  0  0  0  0
    0.3520   -0.9190   -0.8907 C   0  0  0  0  0  0  0  0  0  0  0  0
    1.0902   -0.2266    0.0718 C   0  0  0  0  0  0  0  0  0  0  0  0
    2.8523   -0.3668    0.1123 S   0  0  0  0  0  6  0  0  0  0  0  0
    3.2152   -1.0358    1.3402 O   0  0  0  0  0  0  0  0  0  0  0  0
    3.3071   -0.8355   -1.1805 O   0  0  0  0  0  0  0  0  0  0  0  0
    3.3760    1.1586    0.2065 O   0  0  0  0  0  0  0  0  0  0  0  0
    0.4579    0.5980    1.0052 C   0  0  0  0  0  0  0  0  0  0  0  0
   -0.9306    0.7263    0.9778 C   0  0  0  0  0  0  0  0  0  0  0  0
   -9.5047    1.1368    1.8946 H   0  0  0  0  0  0  0  0  0  0  0  0
  -10.3818   -0.2303    2.6422 H   0  0  0  0  0  0  0  0  0  0  0  0
  -10.8942    0.3784    1.0379 H   0  0  0  0  0  0  0  0  0  0  0  0
   -9.3630    0.1199   -1.1325 H   0  0  0  0  0  0  0  0  0  0  0  0
   -7.9970    0.8583   -0.2514 H   0  0  0  0  0  0  0  0  0  0  0  0
   -7.9659   -1.8676   -1.6662 H   0  0  0  0  0  0  0  0  0  0  0  0
   -6.6122   -1.1944   -0.7503 H   0  0  0  0  0  0  0  0  0  0  0  0
   -6.5288    0.6401   -2.2850 H   0  0  0  0  0  0  0  0  0  0  0  0
   -6.6061   -1.9561   -3.6501 H   0  0  0  0  0  0  0  0  0  0  0  0
   -6.0467   -0.4592   -4.3757 H   0  0  0  0  0  0  0  0  0  0  0  0
   -4.2274   -3.2698   -2.8716 H   0  0  0  0  0  0  0  0  0  0  0  0
   -1.9679   -2.3424   -1.6694 H   0  0  0  0  0  0  0  0  0  0  0  0
   -3.4487    2.2981   -1.9218 H   0  0  0  0  0  0  0  0  0  0  0  0
   -2.0340    4.0760   -1.0043 H   0  0  0  0  0  0  0  0  0  0  0  0
    1.9061    4.3216    1.2417 H   0  0  0  0  0  0  0  0  0  0  0  0
    0.8184   -0.6058    1.3130 H   0  0  0  0  0  0  0  0  0  0  0  0
    3.9031    1.1332    0.2570 H   0  0  0  0  0  0  0  0  0  0  0  0
    6.1264    0.2562    0.7104 H   0  0  0  0  0  0  0  0  0  0  0  0
    7.1244   -0.4066    3.0441 H   0  0  0  0  0  0  0  0  0  0  0  0
    8.1608   -1.8161    3.2491 H   0  0  0  0  0  0  0  0  0  0  0  0
    8.5031   -2.4178    0.1695 H   0  0  0  0  0  0  0  0  0  0  0  0
   10.1614   -1.5436   -1.4363 H   0  0  0  0  0  0  0  0  0  0  0  0
   11.2451    0.6652   -1.0286 H   0  0  0  0  0  0  0  0  0  0  0  0
    9.0104    1.1282    2.5898 H   0  0  0  0  0  0  0  0  0  0  0  0
    2.1307   -2.3924    1.9841 H   0  0  0  0  0  0  0  0  0  0  0  0
   -0.6260   -0.6334   -0.5405 H   0  0  0  0  0  0  0  0  0  0  0  0
   -3.6071   -0.3480    1.1135 H   0  0  0  0  0  0  0  0  0  0  0  0
   -3.4781    1.1378    0.1428 H   0  0  0  0  0  0  0  0  0  0  0  0
   -3.6144   -0.4558   -0.6477 H   0  0  0  0  0  0  0  0  0  0  0  0
   -1.5245    0.1478   -1.9604 H   0  0  0  0  0  0  0  0  0  0  0  0
    0.9409   -0.0140   -1.9870 H   0  0  0  0  0  0  0  0  0  0  0  0
    3.9325    1.4631   -0.4196 H   0  0  0  0  0  0  0  0  0  0  0  0
    0.9633   -0.3510    2.3203 H   0  0  0  0  0  0  0  0  0  0  0  0
   -1.5011   -0.2016    2.3429 H   0  0  0  0  0  0  0  0  0  0  0  0
   -3.5626    0.1676   -1.0218 H   0  0  0  0  0  0  0  0  0  0  0  0
   -3.5037    1.0948    0.4754 H   0  0  0  0  0  0  0  0  0  0  0  0
   -3.6222   -0.6811    0.5443 H   0  0  0  0  0  0  0  0  0  0  0  0
   -1.6135   -1.3250   -1.6628 H   0  0  0  0  0  0  0  0  0  0  0  0
    0.8441   -1.5658   -1.6150 H   0  0  0  0  0  0  0  0  0  0  0  0
    4.0257    1.2886   -0.5165 H   0  0  0  0  0  0  0  0  0  0  0  0
    1.0374    1.1306    1.7569 H   0  0  0  0  0  0  0  0  0  0  0  0
   -1.4221    1.3597    1.7155 H   0  0  0  0  0  0  0  0  0  0  0  0
  1  2  1  0
  2  3  2  0
  2  4  2  0
  2  5  1  0
  5  6  1  0
  6  7  1  0
  7  8  1  0
  8  9  1  0
  9 10  2  0
 10 11  1  0
 11 12  2  0
 12 13  1  0
 13 14  2  0
 14 15  1  0
 15 16  2  0
 16 17  1  0
 17 18  2  0
 18 19  1  0
 19 20  2  0
 20 21  1  0
 21 22  1  0
 22 23  2  0
 23 24  1  0
 24 25  2  0
 25 26  1  0
 26 27  1  0
 27 28  1  0
 28 29  2  0
 29 30  1  0
 30 31  2  0
 31 32  1  0
 32 33  1  0
 32 34  2  0
 25 35  1  0
 35 36  1  0
 35 37  2  0
 20 38  1  0
 38 39  2  0
 12 40  1  0
 41 42  1  0
 42 43  2  0
 43 44  1  0
 44 45  2  0
 45 46  1  0
 46 47  2  0
 46 48  2  0
 46 49  1  0
 45 50  1  0
 50 51  2  0
 52 53  1  0
 53 54  2  0
 54 55  1  0
 55 56  2  0
 56 57  1  0
 57 58  2  0
 57 59  2  0
 57 60  1  0
 56 61  1  0
 61 62  2  0
 40  9  1  0
 51 42  1  0
 62 53  1  0
 39 13  1  0
 38 16  1  0
 37 22  1  0
 34 28  1  0
  1 63  1  0
  1 64  1  0
  1 65  1  0
  5 66  1  0
  5 67  1  0
  6 68  1  0
  6 69  1  0
  7 70  1  0
  8 71  1  0
  8 72  1  0
 10 73  1  0
 11 74  1  0
 14 75  1  0
 15 76  1  0
 18 77  1  0
 21 78  1  0
 23 79  1  0
 24 80  1  0
 27 81  1  0
 27 82  1  0
 29 83  1  0
 30 84  1  0
 31 85  1  0
 34 86  1  0
 37 87  1  0
 39 88  1  0
 41 89  1  0
 41 90  1  0
 41 91  1  0
 43 92  1  0
 44 93  1  0
 49 94  1  0
 50 95  1  0
 51 96  1  0
 52 97  1  0
 52 98  1  0
 52 99  1  0
 54100  1  0
 55101  1  0
 60102  1  0
 61103  1  0
 62104  1  0
M  END
$$$$
