
     RDKit          3D

 42 44  0  0  0  0  0  0  0  0999 V2000
   -7.6445   -0.6786   -0.4963 C   0  0  0  0  0  0  0  0  0  0  0  0
   -6.1510   -0.5753   -0.4120 C   0  0  0  0  0  0  0  0  0  0  0  0
   -5.5279    0.6756   -0.3649 C   0  0  0  0  0  0  0  0  0  0  0  0
   -4.1361    0.7773   -0.2544 C   0  0  0  0  0  0  0  0  0  0  0  0
   -3.3454   -0.3696   -0.1846 C   0  0  0  0  0  0  0  0  0  0  0  0
   -1.9408   -0.3512   -0.0581 N   0  0  0  0  0  0  0  0  0  0  0  0
   -1.0992    0.7310   -0.1910 C   0  0  0  0  0  0  0  0  0  0  0  0
   -1.4408    1.8460   -0.5756 O   0  0  0  0  0  0  0  0  0  0  0  0
    0.2271    0.4614    0.1389 N   0  0  0  0  0  0  0  0  0  0  0  0
    1.2193    1.5158   -0.0818 C   0  0  0  0  0  0  0  0  0  0  0  0
    2.6304    0.9568   -0.3126 C   0  0  0  0  0  0  0  0  0  0  0  0
    3.0588    0.0106    0.7262 N   0  0  0  0  0  0  0  0  0  0  0  0
    4.3916   -0.3083    1.0142 C   0  0  0  0  0  0  0  0  0  0  0  0
    4.6628   -0.9127    2.0553 O   0  0  0  0  0  0  0  0  0  0  0  0
    5.4484    0.0715    0.0863 C   0  0  0  0  0  0  0  0  0  0  0  0
    6.8212    0.0847    0.2736 C   0  0  0  0  0  0  0  0  0  0  0  0
    7.4051    0.4934   -0.9484 C   0  0  0  0  0  0  0  0  0  0  0  0
    6.3611    0.6912   -1.8184 C   0  0  0  0  0  0  0  0  0  0  0  0
    5.1773    0.4315   -1.2079 O   0  0  0  0  0  0  0  0  0  0  0  0
    2.0145   -0.4867    1.6224 C   0  0  0  0  0  0  0  0  0  0  0  0
    0.6809   -0.7112    0.8978 C   0  0  0  0  0  0  0  0  0  0  0  0
   -3.9713   -1.6218   -0.2086 C   0  0  0  0  0  0  0  0  0  0  0  0
   -5.3619   -1.7248   -0.3187 C   0  0  0  0  0  0  0  0  0  0  0  0
   -7.9444   -1.5975   -1.0110 H   0  0  0  0  0  0  0  0  0  0  0  0
   -8.0768   -0.6793    0.5091 H   0  0  0  0  0  0  0  0  0  0  0  0
   -8.0626    0.1612   -1.0612 H   0  0  0  0  0  0  0  0  0  0  0  0
   -6.1194    1.5875   -0.4130 H   0  0  0  0  0  0  0  0  0  0  0  0
   -3.7010    1.7712   -0.2152 H   0  0  0  0  0  0  0  0  0  0  0  0
   -1.4923   -1.2522   -0.0489 H   0  0  0  0  0  0  0  0  0  0  0  0
    0.9281    2.1390   -0.9345 H   0  0  0  0  0  0  0  0  0  0  0  0
    1.2081    2.1532    0.8109 H   0  0  0  0  0  0  0  0  0  0  0  0
    2.6507    0.4122   -1.2637 H   0  0  0  0  0  0  0  0  0  0  0  0
    3.3388    1.7895   -0.3645 H   0  0  0  0  0  0  0  0  0  0  0  0
    7.3261   -0.1762    1.1942 H   0  0  0  0  0  0  0  0  0  0  0  0
    8.4557    0.6193   -1.1695 H   0  0  0  0  0  0  0  0  0  0  0  0
    6.2968    0.9959   -2.8540 H   0  0  0  0  0  0  0  0  0  0  0  0
    2.3314   -1.4206    2.0989 H   0  0  0  0  0  0  0  0  0  0  0  0
    1.8925    0.2626    2.4141 H   0  0  0  0  0  0  0  0  0  0  0  0
    0.7873   -1.5279    0.1739 H   0  0  0  0  0  0  0  0  0  0  0  0
   -0.0868   -0.9980    1.6244 H   0  0  0  0  0  0  0  0  0  0  0  0
   -3.3888   -2.5367   -0.1425 H   0  0  0  0  0  0  0  0  0  0  0  0
   -5.8232   -2.7096   -0.3320 H   0  0  0  0  0  0  0  0  0  0  0  0
  1  2  1  0
  2  3  2  0
  3  4  1  0
  4  5  2  0
  5  6  1  0
  6  7  1  0
  7  8  2  0
  7  9  1  0
  9 10  1  0
 10 11  1  0
 11 12  1  0
 12 13  1  0
 13 14  2  0
 13 15  1  0
 15 16  2  0
 16 17  1  0
 17 18  2  0
 18 19  1  0
 12 20  1  0
 20 21  1  0
  5 22  1  0
 22 23  2  0
 23  2  1  0
 21  9  1  0
 19 15  1  0
  1 24  1  0
  1 25  1  0
  1 26  1  0
  3 27  1  0
  4 28  1  0
  6 29  1  0
 10 30  1  0
 10 31  1  0
 11 32  1  0
 11 33  1  0
 16 34  1  0
 17 35  1  0
 18 36  1  0
 20 37  1  0
 20 38  1  0
 21 39  1  0
 21 40  1  0
 22 41  1  0
 23 42  1  0
M  END
$$$$
