
     RDKit          3D

 37 39  0  0  0  0  0  0  0  0999 V2000
   -5.1822    1.1805   -1.6220 C   0  0  0  0  0  0  0  0  0  0  0  0
   -4.5979    0.6476   -0.3261 C   0  0  0  0  0  0  0  0  0  0  0  0
   -3.1649    1.0943   -0.1110 C   0  0  0  0  0  0  0  0  0  0  0  0
   -2.5461    1.8018   -0.8976 O   0  0  0  0  0  0  0  0  0  0  0  0
   -2.6327    0.6209    1.0697 N   0  0  0  0  0  0  0  0  0  0  0  0
   -1.2530    0.8519    1.4242 C   0  0  0  0  0  0  0  0  0  0  0  0
   -0.4245   -0.3020    0.9633 C   0  0  2  0  0  0  0  0  0  0  0  0
   -0.2262   -1.5152    1.8275 C   0  0  0  0  0  0  0  0  0  0  0  0
    0.9255   -0.5573    1.6035 C   0  0  1  0  0  0  0  0  0  0  0  0
    2.0977   -0.9626    0.7445 C   0  0  0  0  0  0  0  0  0  0  0  0
    2.8065   -2.1570    0.9818 C   0  0  0  0  0  0  0  0  0  0  0  0
    3.9016   -2.5478    0.1891 C   0  0  0  0  0  0  0  0  0  0  0  0
    4.3310   -1.7442   -0.8638 C   0  0  0  0  0  0  0  0  0  0  0  0
    3.6558   -0.5637   -1.0824 C   0  0  0  0  0  0  0  0  0  0  0  0
    2.5701   -0.1766   -0.3055 C   0  0  0  0  0  0  0  0  0  0  0  0
    2.0366    1.0993   -0.8438 C   0  0  0  0  0  0  0  0  0  0  0  0
    3.2111    1.5045   -1.7326 C   0  0  0  0  0  0  0  0  0  0  0  0
    3.9719    0.3247   -2.0782 O   0  0  0  0  0  0  0  0  0  0  0  0
   -5.1802    2.2755   -1.6331 H   0  0  0  0  0  0  0  0  0  0  0  0
   -4.6036    0.8355   -2.4853 H   0  0  0  0  0  0  0  0  0  0  0  0
   -6.2147    0.8390   -1.7436 H   0  0  0  0  0  0  0  0  0  0  0  0
   -5.2017    0.9974    0.5187 H   0  0  0  0  0  0  0  0  0  0  0  0
   -4.6222   -0.4478   -0.3379 H   0  0  0  0  0  0  0  0  0  0  0  0
   -3.1423   -0.0805    1.5892 H   0  0  0  0  0  0  0  0  0  0  0  0
   -0.8940    1.7790    0.9656 H   0  0  0  0  0  0  0  0  0  0  0  0
   -1.2138    0.9695    2.5123 H   0  0  0  0  0  0  0  0  0  0  0  0
   -0.5158   -0.4581   -0.1072 H   0  0  0  0  0  0  0  0  0  0  0  0
   -0.6761   -1.5362    2.8134 H   0  0  0  0  0  0  0  0  0  0  0  0
   -0.2102   -2.4805    1.3330 H   0  0  0  0  0  0  0  0  0  0  0  0
    1.1877    0.0684    2.4551 H   0  0  0  0  0  0  0  0  0  0  0  0
    2.4972   -2.8063    1.7990 H   0  0  0  0  0  0  0  0  0  0  0  0
    4.4139   -3.4828    0.4007 H   0  0  0  0  0  0  0  0  0  0  0  0
    5.1707   -2.0293   -1.4868 H   0  0  0  0  0  0  0  0  0  0  0  0
    1.8287    1.8526   -0.0797 H   0  0  0  0  0  0  0  0  0  0  0  0
    1.1402    0.9132   -1.4439 H   0  0  0  0  0  0  0  0  0  0  0  0
    3.8844    2.1943   -1.2075 H   0  0  0  0  0  0  0  0  0  0  0  0
    2.8713    1.9981   -2.6490 H   0  0  0  0  0  0  0  0  0  0  0  0
  1  2  1  0
  2  3  1  0
  3  4  2  0
  3  5  1  0
  5  6  1  0
  6  7  1  0
  7  8  1  0
  8  9  1  0
  9 10  1  0
 10 11  2  0
 11 12  1  0
 12 13  2  0
 13 14  1  0
 14 15  2  0
 15 16  1  0
 16 17  1  0
 17 18  1  0
  9  7  1  0
 15 10  1  0
 18 14  1  0
  1 19  1  0
  1 20  1  0
  1 21  1  0
  2 22  1  0
  2 23  1  0
  5 24  1  0
  6 25  1  0
  6 26  1  0
  7 27  1  6
  8 28  1  0
  8 29  1  0
  9 30  1  1
 11 31  1  0
 12 32  1  0
 13 33  1  0
 16 34  1  0
 16 35  1  0
 17 36  1  0
 17 37  1  0
M  END
$$$$
