
     RDKit          3D

 78 81  0  0  0  0  0  0  0  0999 V2000
    3.6285    3.3924   -3.1954 C   0  0  0  0  0  0  0  0  0  0  0  0
    3.9054    2.0541   -2.8084 O   0  0  0  0  0  0  0  0  0  0  0  0
    2.9258    1.3641   -2.1415 C   0  0  0  0  0  0  0  0  0  0  0  0
    1.6810    1.8905   -1.7932 C   0  0  0  0  0  0  0  0  0  0  0  0
    0.7248    1.1081   -1.0946 C   0  0  0  0  0  0  0  0  0  0  0  0
   -0.5454    1.5464   -0.6889 C   0  0  0  0  0  0  0  0  0  0  0  0
   -0.9277    2.8722   -0.9673 N   0  0  0  0  0  0  0  0  0  0  0  0
   -2.2662    3.3745   -0.6162 C   0  0  0  0  0  0  0  0  0  0  0  0
   -3.3982    2.6821   -1.3858 C   0  0  0  0  0  0  0  0  0  0  0  0
   -4.7011    2.6525   -0.5836 C   0  0  0  0  0  0  0  0  0  0  0  0
   -4.8794    3.9154    0.1330 N   0  0  0  0  0  0  0  0  0  0  0  0
   -6.2305    4.0433    0.6734 C   0  0  0  0  0  0  0  0  0  0  0  0
   -3.8708    4.1002    1.1881 C   0  0  0  0  0  0  0  0  0  0  0  0
   -2.5190    3.4392    0.8884 C   0  0  0  0  0  0  0  0  0  0  0  0
   -1.4079    0.7226   -0.0731 N   0  0  0  0  0  0  0  0  0  0  0  0
   -1.0438   -0.5408    0.1920 C   0  0  0  0  0  0  0  0  0  0  0  0
   -1.9401   -1.3909    0.8701 N   0  0  0  0  0  0  0  0  0  0  0  0
   -3.3108   -0.8759    0.8747 C   0  0  0  0  0  0  0  0  0  0  0  0
   -4.2832   -1.6651    1.7504 C   0  0  0  0  0  0  0  0  0  0  0  0
   -4.6201   -3.0388    1.1731 C   0  0  0  0  0  0  0  0  0  0  0  0
   -3.7108   -4.1201    1.5599 N   0  0  0  0  0  0  0  0  0  0  0  0
   -3.8976   -5.2840    0.6950 C   0  0  0  0  0  0  0  0  0  0  0  0
   -2.2946   -3.7348    1.6646 C   0  0  0  0  0  0  0  0  0  0  0  0
   -1.7231   -2.8144    0.5663 C   0  0  0  0  0  0  0  0  0  0  0  0
    0.1652   -1.0121   -0.1397 N   0  0  0  0  0  0  0  0  0  0  0  0
    1.0251   -0.2117   -0.7718 C   0  0  0  0  0  0  0  0  0  0  0  0
    2.2679   -0.7259   -1.1215 C   0  0  0  0  0  0  0  0  0  0  0  0
    3.2254    0.0367   -1.7980 C   0  0  0  0  0  0  0  0  0  0  0  0
    4.4685   -0.4092   -2.1654 O   0  0  0  0  0  0  0  0  0  0  0  0
    4.8495   -1.7569   -1.9033 C   0  0  0  0  0  0  0  0  0  0  0  0
    5.4198   -1.9300   -0.4937 C   0  0  0  0  0  0  0  0  0  0  0  0
    6.6440   -1.0298   -0.2646 C   0  0  0  0  0  0  0  0  0  0  0  0
    7.3141   -1.1539    1.0394 N   0  0  0  0  0  0  0  0  0  0  0  0
    6.4631   -0.7505    2.1548 C   0  0  0  0  0  0  0  0  0  0  0  0
    7.8897   -2.4752    1.2654 C   0  0  0  0  0  0  0  0  0  0  0  0
    3.4532    4.0278   -2.3210 H   0  0  0  0  0  0  0  0  0  0  0  0
    4.5099    3.7795   -3.7159 H   0  0  0  0  0  0  0  0  0  0  0  0
    2.7850    3.4357   -3.8924 H   0  0  0  0  0  0  0  0  0  0  0  0
    1.4162    2.9068   -2.0642 H   0  0  0  0  0  0  0  0  0  0  0  0
   -0.2086    3.4944   -0.6075 H   0  0  0  0  0  0  0  0  0  0  0  0
   -2.2637    4.4183   -0.9632 H   0  0  0  0  0  0  0  0  0  0  0  0
   -3.1474    1.6601   -1.6875 H   0  0  0  0  0  0  0  0  0  0  0  0
   -3.5602    3.2291   -2.3246 H   0  0  0  0  0  0  0  0  0  0  0  0
   -4.7067    1.8049    0.1127 H   0  0  0  0  0  0  0  0  0  0  0  0
   -5.5254    2.4876   -1.2887 H   0  0  0  0  0  0  0  0  0  0  0  0
   -6.4640    3.2493    1.3918 H   0  0  0  0  0  0  0  0  0  0  0  0
   -6.3559    5.0103    1.1728 H   0  0  0  0  0  0  0  0  0  0  0  0
   -6.9721    4.0074   -0.1322 H   0  0  0  0  0  0  0  0  0  0  0  0
   -4.2233    3.7111    2.1526 H   0  0  0  0  0  0  0  0  0  0  0  0
   -3.7185    5.1782    1.3210 H   0  0  0  0  0  0  0  0  0  0  0  0
   -1.7175    3.9944    1.3907 H   0  0  0  0  0  0  0  0  0  0  0  0
   -2.5195    2.4375    1.3293 H   0  0  0  0  0  0  0  0  0  0  0  0
   -3.7011   -0.8189   -0.1506 H   0  0  0  0  0  0  0  0  0  0  0  0
   -3.3172    0.1413    1.2857 H   0  0  0  0  0  0  0  0  0  0  0  0
   -3.9202   -1.7389    2.7825 H   0  0  0  0  0  0  0  0  0  0  0  0
   -5.2174   -1.0898    1.8007 H   0  0  0  0  0  0  0  0  0  0  0  0
   -5.6203   -3.3164    1.5299 H   0  0  0  0  0  0  0  0  0  0  0  0
   -4.6964   -2.9587    0.0804 H   0  0  0  0  0  0  0  0  0  0  0  0
   -4.9485   -5.5943    0.6864 H   0  0  0  0  0  0  0  0  0  0  0  0
   -3.3247   -6.1398    1.0687 H   0  0  0  0  0  0  0  0  0  0  0  0
   -3.5882   -5.0861   -0.3369 H   0  0  0  0  0  0  0  0  0  0  0  0
   -2.1361   -3.2657    2.6446 H   0  0  0  0  0  0  0  0  0  0  0  0
   -1.6858   -4.6484    1.7012 H   0  0  0  0  0  0  0  0  0  0  0  0
   -2.1301   -3.0677   -0.4210 H   0  0  0  0  0  0  0  0  0  0  0  0
   -0.6528   -3.0539    0.5348 H   0  0  0  0  0  0  0  0  0  0  0  0
    2.4631   -1.7550   -0.8395 H   0  0  0  0  0  0  0  0  0  0  0  0
    4.0345   -2.4609   -2.1054 H   0  0  0  0  0  0  0  0  0  0  0  0
    5.6317   -2.0035   -2.6316 H   0  0  0  0  0  0  0  0  0  0  0  0
    5.6878   -2.9835   -0.3617 H   0  0  0  0  0  0  0  0  0  0  0  0
    4.6493   -1.6902    0.2455 H   0  0  0  0  0  0  0  0  0  0  0  0
    7.3849   -1.2268   -1.0506 H   0  0  0  0  0  0  0  0  0  0  0  0
    6.3563    0.0205   -0.4009 H   0  0  0  0  0  0  0  0  0  0  0  0
    5.6326   -1.4438    2.3240 H   0  0  0  0  0  0  0  0  0  0  0  0
    6.0512    0.2510    1.9881 H   0  0  0  0  0  0  0  0  0  0  0  0
    7.0503   -0.6960    3.0780 H   0  0  0  0  0  0  0  0  0  0  0  0
    8.5417   -2.7627    0.4330 H   0  0  0  0  0  0  0  0  0  0  0  0
    7.1286   -3.2519    1.3950 H   0  0  0  0  0  0  0  0  0  0  0  0
    8.5174   -2.4666    2.1636 H   0  0  0  0  0  0  0  0  0  0  0  0
  1  2  1  0
  2  3  1  0
  3  4  2  0
  4  5  1  0
  5  6  2  0
  6  7  1  0
  7  8  1  0
  8  9  1  0
  9 10  1  0
 10 11  1  0
 11 12  1  0
 11 13  1  0
 13 14  1  0
  6 15  1  0
 15 16  2  0
 16 17  1  0
 17 18  1  0
 18 19  1  0
 19 20  1  0
 20 21  1  0
 21 22  1  0
 21 23  1  0
 23 24  1  0
 16 25  1  0
 25 26  2  0
 26 27  1  0
 27 28  2  0
 28 29  1  0
 29 30  1  0
 30 31  1  0
 31 32  1  0
 32 33  1  0
 33 34  1  0
 33 35  1  0
 28  3  1  0
 26  5  1  0
 14  8  1  0
 24 17  1  0
  1 36  1  0
  1 37  1  0
  1 38  1  0
  4 39  1  0
  7 40  1  0
  8 41  1  0
  9 42  1  0
  9 43  1  0
 10 44  1  0
 10 45  1  0
 12 46  1  0
 12 47  1  0
 12 48  1  0
 13 49  1  0
 13 50  1  0
 14 51  1  0
 14 52  1  0
 18 53  1  0
 18 54  1  0
 19 55  1  0
 19 56  1  0
 20 57  1  0
 20 58  1  0
 22 59  1  0
 22 60  1  0
 22 61  1  0
 23 62  1  0
 23 63  1  0
 24 64  1  0
 24 65  1  0
 27 66  1  0
 30 67  1  0
 30 68  1  0
 31 69  1  0
 31 70  1  0
 32 71  1  0
 32 72  1  0
 34 73  1  0
 34 74  1  0
 34 75  1  0
 35 76  1  0
 35 77  1  0
 35 78  1  0
M  END
$$$$
