
     RDKit          3D

 15 15  0  0  0  0  0  0  0  0999 V2000
    2.6901    0.0353    0.3495 C   0  0  0  0  0  0  0  0  0  0  0  0
    1.2524   -0.1533    0.0423 C   0  0  0  0  0  0  0  0  0  0  0  0
    0.1367    0.4039    0.7067 C   0  0  0  0  0  0  0  0  0  0  0  0
   -0.9693   -0.0792    0.0368 C   0  0  0  0  0  0  0  0  0  0  0  0
   -2.3685    0.1168    0.2248 C   0  0  0  0  0  0  0  0  0  0  0  0
   -3.2725   -0.3673   -0.4373 O   0  0  0  0  0  0  0  0  0  0  0  0
   -2.6236    0.9357    1.2639 O   0  0  0  0  0  0  0  0  0  0  0  0
   -0.4652   -0.8711   -0.9564 N   0  0  0  0  0  0  0  0  0  0  0  0
    0.8767   -0.9345   -0.9770 N   0  0  0  0  0  0  0  0  0  0  0  0
    3.2110    0.4769   -0.5061 H   0  0  0  0  0  0  0  0  0  0  0  0
    3.1615   -0.9241    0.5857 H   0  0  0  0  0  0  0  0  0  0  0  0
    2.8260    0.7000    1.2086 H   0  0  0  0  0  0  0  0  0  0  0  0
    0.1344    1.0688    1.5597 H   0  0  0  0  0  0  0  0  0  0  0  0
   -3.6007    0.9864    1.2846 H   0  0  0  0  0  0  0  0  0  0  0  0
   -0.9889   -1.3943   -1.6514 H   0  0  0  0  0  0  0  0  0  0  0  0
  1  2  1  0
  2  3  1  0
  3  4  2  0
  4  5  1  0
  5  6  2  0
  5  7  1  0
  4  8  1  0
  8  9  1  0
  9  2  2  0
  1 10  1  0
  1 11  1  0
  1 12  1  0
  3 13  1  0
  7 14  1  0
  8 15  1  0
M  END
$$$$
