
     RDKit          3D

 59 62  0  0  0  0  0  0  0  0999 V2000
   -6.9465    1.3760    1.1939 C   0  0  0  0  0  0  0  0  0  0  0  0
   -5.9804    2.3293    0.8661 O   0  0  0  0  0  0  0  0  0  0  0  0
   -4.6566    2.0999    0.5447 C   0  0  0  0  0  0  0  0  0  0  0  0
   -4.0549    0.8567    0.4998 C   0  0  0  0  0  0  0  0  0  0  0  0
   -2.7272    0.6834    0.1737 C   0  0  0  0  0  0  0  0  0  0  0  0
   -2.0998   -0.5482    0.1243 C   0  0  0  0  0  0  0  0  0  0  0  0
   -0.7535   -0.7079   -0.2061 C   0  0  0  0  0  0  0  0  0  0  0  0
   -0.0197    0.3664   -0.4935 N   0  0  0  0  0  0  0  0  0  0  0  0
    1.3789    0.3655   -0.8976 C   0  0  0  0  0  0  0  0  0  0  0  0
    2.3103    0.4522    0.2658 C   0  0  0  0  0  0  0  0  0  0  0  0
    3.7723    0.5045   -0.1609 C   0  0  0  0  0  0  0  0  0  0  0  0
    4.6450    0.6393    0.9727 N   0  0  0  0  0  0  0  0  0  0  0  0
    5.9790    0.9392    0.5261 C   0  0  0  0  0  0  0  0  0  0  0  0
    6.6453   -0.1628   -0.2091 C   0  0  0  0  0  0  0  0  0  0  0  0
    7.9366    0.2849   -0.5787 O   0  0  0  0  0  0  0  0  0  0  0  0
   -0.6523    1.5775   -0.4389 C   0  0  0  0  0  0  0  0  0  0  0  0
    0.0453    2.6140   -0.7122 O   0  0  0  0  0  0  0  0  0  0  0  0
   -1.9507    1.7746   -0.1229 C   0  0  0  0  0  0  0  0  0  0  0  0
   -2.5433    3.0248   -0.0822 C   0  0  0  0  0  0  0  0  0  0  0  0
   -3.8711    3.1904    0.2446 C   0  0  0  0  0  0  0  0  0  0  0  0
   -4.3960    4.4790    0.2662 O   0  0  0  0  0  0  0  0  0  0  0  0
   -3.5953    5.5961   -0.0397 C   0  0  0  0  0  0  0  0  0  0  0  0
   -0.4100   -2.1360   -0.1665 C   0  0  0  0  0  0  0  0  0  0  0  0
    0.7809   -2.8057   -0.4059 C   0  0  0  0  0  0  0  0  0  0  0  0
    0.7748   -4.1851   -0.2789 C   0  0  0  0  0  0  0  0  0  0  0  0
   -0.3576   -4.9094    0.0727 C   0  0  0  0  0  0  0  0  0  0  0  0
   -1.5111   -4.1949    0.2987 C   0  0  0  0  0  0  0  0  0  0  0  0
   -1.5624   -2.8086    0.1852 C   0  0  0  0  0  0  0  0  0  0  0  0
   -2.6564   -1.8631    0.3822 C   0  0  0  0  0  0  0  0  0  0  0  0
   -3.8271   -2.1558    0.7078 O   0  0  0  0  0  0  0  0  0  0  0  0
    0.0088   -6.2439    0.1010 O   0  0  0  0  0  0  0  0  0  0  0  0
    1.2899   -6.3630   -0.4835 C   0  0  0  0  0  0  0  0  0  0  0  0
    1.8377   -5.0700   -0.4675 O   0  0  0  0  0  0  0  0  0  0  0  0
    0.6899    0.0000    0.0000 Cl  0  0  0  0  0  0  0  0  0  0  0  0
   -7.7003    1.3717    0.3530 H   0  0  0  0  0  0  0  0  0  0  0  0
   -7.4889    1.6706    2.0943 H   0  0  0  0  0  0  0  0  0  0  0  0
   -6.5689    0.3432    1.2146 H   0  0  0  0  0  0  0  0  0  0  0  0
   -4.6583   -0.0050    0.7290 H   0  0  0  0  0  0  0  0  0  0  0  0
    1.5529    1.3589   -1.4571 H   0  0  0  0  0  0  0  0  0  0  0  0
    1.6286   -0.3637   -1.6768 H   0  0  0  0  0  0  0  0  0  0  0  0
    2.0893    1.2951    0.9433 H   0  0  0  0  0  0  0  0  0  0  0  0
    2.2384   -0.5024    0.8693 H   0  0  0  0  0  0  0  0  0  0  0  0
    3.9205    1.3394   -0.8477 H   0  0  0  0  0  0  0  0  0  0  0  0
    4.0582   -0.4222   -0.7118 H   0  0  0  0  0  0  0  0  0  0  0  0
    4.2880    1.3956    1.6264 H   0  0  0  0  0  0  0  0  0  0  0  0
    5.9027    1.8215   -0.1643 H   0  0  0  0  0  0  0  0  0  0  0  0
    6.6366    1.2468    1.3796 H   0  0  0  0  0  0  0  0  0  0  0  0
    6.1504   -0.4245   -1.1719 H   0  0  0  0  0  0  0  0  0  0  0  0
    6.8338   -1.0882    0.3827 H   0  0  0  0  0  0  0  0  0  0  0  0
    7.9239    1.2897   -0.5876 H   0  0  0  0  0  0  0  0  0  0  0  0
   -1.9284    3.8863   -0.3184 H   0  0  0  0  0  0  0  0  0  0  0  0
   -3.1059    5.4062   -1.0090 H   0  0  0  0  0  0  0  0  0  0  0  0
   -2.8385    5.7366    0.7673 H   0  0  0  0  0  0  0  0  0  0  0  0
   -4.2242    6.4890   -0.1222 H   0  0  0  0  0  0  0  0  0  0  0  0
    1.6959   -2.3230   -0.6616 H   0  0  0  0  0  0  0  0  0  0  0  0
   -2.4013   -4.7485    0.5762 H   0  0  0  0  0  0  0  0  0  0  0  0
    1.2669   -6.7693   -1.5039 H   0  0  0  0  0  0  0  0  0  0  0  0
    1.8958   -7.0030    0.2039 H   0  0  0  0  0  0  0  0  0  0  0  0
   -0.6899    0.0000    0.0000 H   0  0  0  0  0  0  0  0  0  0  0  0
  1  2  1  0
  2  3  1  0
  3  4  2  0
  4  5  1  0
  5  6  1  0
  6  7  2  0
  7  8  1  0
  8  9  1  0
  9 10  1  0
 10 11  1  0
 11 12  1  0
 12 13  1  0
 13 14  1  0
 14 15  1  0
  8 16  1  0
 16 17  2  0
 16 18  1  0
 18 19  1  0
 19 20  2  0
 20 21  1  0
 21 22  1  0
  7 23  1  0
 23 24  2  0
 24 25  1  0
 25 26  2  0
 26 27  1  0
 27 28  2  0
 28 29  1  0
 29 30  2  0
 26 31  1  0
 31 32  1  0
 32 33  1  0
 20  3  1  0
 28 23  1  0
 18  5  2  0
 33 25  1  0
 29  6  1  0
  1 35  1  0
  1 36  1  0
  1 37  1  0
  4 38  1  0
  9 39  1  0
  9 40  1  0
 10 41  1  0
 10 42  1  0
 11 43  1  0
 11 44  1  0
 12 45  1  0
 13 46  1  0
 13 47  1  0
 14 48  1  0
 14 49  1  0
 15 50  1  0
 19 51  1  0
 22 52  1  0
 22 53  1  0
 22 54  1  0
 24 55  1  0
 27 56  1  0
 32 57  1  0
 32 58  1  0
 34 59  1  0
M  END
$$$$
