
     RDKit          3D

 58 60  0  0  0  0  0  0  0  0999 V2000
   -2.7101   -2.6967   -0.3385 C   0  0  0  0  0  0  0  0  0  0  0  0
   -2.2789   -1.9534    0.8100 N   0  0  0  0  0  0  0  0  0  0  0  0
   -2.9504   -2.3771    2.0015 C   0  0  0  0  0  0  0  0  0  0  0  0
   -2.2555   -0.5331    0.6119 C   0  0  2  0  0  0  0  0  0  0  0  0
   -3.5511    0.0647    0.3287 C   0  0  0  0  0  0  0  0  0  0  0  0
   -4.7309   -0.6585    0.4045 O   0  0  0  0  0  0  0  0  0  0  0  0
   -3.5922    1.3442   -0.0122 C   0  0  0  0  0  0  0  0  0  0  0  0
   -4.8432    2.0045   -0.3062 C   0  0  0  0  0  0  0  0  0  0  0  0
   -4.8937    3.3653   -0.6703 N   0  0  0  0  0  0  0  0  0  0  0  0
   -5.9121    1.3535   -0.2366 O   0  0  0  0  0  0  0  0  0  0  0  0
   -2.3037    2.0244   -0.0751 C   0  0  0  0  0  0  0  0  0  0  0  0
   -2.2357    3.2265    0.2448 O   0  0  0  0  0  0  0  0  0  0  0  0
   -1.0760    1.3210   -0.5105 C   0  0  1  0  0  0  0  0  0  0  0  0
   -0.8945    1.7295   -1.8617 O   0  0  0  0  0  0  0  0  0  0  0  0
    0.1273    1.7908    0.2040 C   0  0  0  0  0  0  0  0  0  0  0  0
    0.0959    2.8983    0.9949 O   0  0  0  0  0  0  0  0  0  0  0  0
    1.2494    1.1009    0.0547 C   0  0  0  0  0  0  0  0  0  0  0  0
    2.4883    1.4927    0.7233 C   0  0  0  0  0  0  0  0  0  0  0  0
    2.4685    2.5215    1.4146 O   0  0  0  0  0  0  0  0  0  0  0  0
    3.6937    0.6905    0.5712 C   0  0  0  0  0  0  0  0  0  0  0  0
    4.8713    1.0631    1.2147 C   0  0  0  0  0  0  0  0  0  0  0  0
    4.9778    2.1519    1.9877 O   0  0  0  0  0  0  0  0  0  0  0  0
    6.0067    0.2520    1.0421 C   0  0  0  0  0  0  0  0  0  0  0  0
    5.8943   -0.8579    0.2525 C   0  0  0  0  0  0  0  0  0  0  0  0
    4.7446   -1.2276   -0.3797 C   0  0  0  0  0  0  0  0  0  0  0  0
    4.6903   -2.6829   -1.3790 Cl  0  0  0  0  0  0  0  0  0  0  0  0
    3.5960   -0.4288   -0.2201 C   0  0  0  0  0  0  0  0  0  0  0  0
    2.4117   -0.8966   -0.9363 C   0  0  1  0  0  0  0  0  0  0  0  0
    2.7602   -1.0151   -2.4279 C   0  0  0  0  0  0  0  0  0  0  0  0
    2.1318   -2.2172   -0.4610 O   0  0  0  0  0  0  0  0  0  0  0  0
    1.1768   -0.0813   -0.8186 C   0  0  1  0  0  0  0  0  0  0  0  0
    0.0236   -0.9265   -0.2591 C   0  0  0  0  0  0  0  0  0  0  0  0
   -1.2576   -0.1812   -0.4585 C   0  0  1  0  0  0  0  0  0  0  0  0
    0.6889    0.0000    0.0000 Cl  0  0  0  0  0  0  0  0  0  0  0  0
   -3.6242   -3.3082   -0.1684 H   0  0  0  0  0  0  0  0  0  0  0  0
   -1.9014   -3.4138   -0.6016 H   0  0  0  0  0  0  0  0  0  0  0  0
   -2.8911   -2.0794   -1.2402 H   0  0  0  0  0  0  0  0  0  0  0  0
   -2.9358   -1.6450    2.8122 H   0  0  0  0  0  0  0  0  0  0  0  0
   -3.9971   -2.7440    1.8143 H   0  0  0  0  0  0  0  0  0  0  0  0
   -2.4051   -3.2843    2.3764 H   0  0  0  0  0  0  0  0  0  0  0  0
   -1.8698   -0.0838    1.5676 H   0  0  0  0  0  0  0  0  0  0  0  0
   -5.4009   -0.5278    1.1607 H   0  0  0  0  0  0  0  0  0  0  0  0
   -5.6183    3.9698   -0.2362 H   0  0  0  0  0  0  0  0  0  0  0  0
   -4.2423    3.7956   -1.3517 H   0  0  0  0  0  0  0  0  0  0  0  0
   -1.5422    1.2451   -2.4061 H   0  0  0  0  0  0  0  0  0  0  0  0
    0.2423    2.9206    2.0019 H   0  0  0  0  0  0  0  0  0  0  0  0
    4.3812    2.8551    2.2655 H   0  0  0  0  0  0  0  0  0  0  0  0
    6.8984    0.5636    1.5493 H   0  0  0  0  0  0  0  0  0  0  0  0
    6.7796   -1.5062    0.1069 H   0  0  0  0  0  0  0  0  0  0  0  0
    2.5246   -2.0291   -2.8072 H   0  0  0  0  0  0  0  0  0  0  0  0
    3.7835   -0.6719   -2.6378 H   0  0  0  0  0  0  0  0  0  0  0  0
    2.1025   -0.3249   -3.0342 H   0  0  0  0  0  0  0  0  0  0  0  0
    2.3925   -2.2156    0.4838 H   0  0  0  0  0  0  0  0  0  0  0  0
    0.8435    0.2057   -1.8514 H   0  0  0  0  0  0  0  0  0  0  0  0
    0.0034   -1.9328   -0.6897 H   0  0  0  0  0  0  0  0  0  0  0  0
    0.2243   -0.9858    0.8479 H   0  0  0  0  0  0  0  0  0  0  0  0
   -1.6700   -0.4643   -1.4717 H   0  0  0  0  0  0  0  0  0  0  0  0
   -0.6889    0.0000    0.0000 H   0  0  0  0  0  0  0  0  0  0  0  0
  1  2  1  0
  2  3  1  0
  2  4  1  0
  4  5  1  0
  5  6  1  0
  5  7  2  0
  7  8  1  0
  8  9  1  0
  8 10  2  0
  7 11  1  0
 11 12  2  0
 11 13  1  0
 13 14  1  6
 13 15  1  0
 15 16  1  0
 15 17  2  0
 17 18  1  0
 18 19  2  0
 18 20  1  0
 20 21  2  0
 21 22  1  0
 21 23  1  0
 23 24  2  0
 24 25  1  0
 25 26  1  0
 25 27  2  0
 27 28  1  0
 28 29  1  0
 28 30  1  1
 28 31  1  0
 31 32  1  0
 32 33  1  0
 33  4  1  0
 33 13  1  0
 31 17  1  0
 27 20  1  0
  1 35  1  0
  1 36  1  0
  1 37  1  0
  3 38  1  0
  3 39  1  0
  3 40  1  0
  4 41  1  1
  6 42  1  0
  9 43  1  0
  9 44  1  0
 14 45  1  0
 16 46  1  0
 22 47  1  0
 23 48  1  0
 24 49  1  0
 29 50  1  0
 29 51  1  0
 29 52  1  0
 30 53  1  0
 31 54  1  6
 32 55  1  0
 32 56  1  0
 33 57  1  6
 34 58  1  0
M  END
$$$$
