
     RDKit          3D

 52 54  0  0  0  0  0  0  0  0999 V2000
   -1.7146    1.6585    2.7356 C   0  0  0  0  0  0  0  0  0  0  0  0
   -1.0994    0.6955    1.7493 C   0  0  0  0  0  0  0  0  0  0  0  0
    0.0438    0.2896    1.9607 O   0  0  0  0  0  0  0  0  0  0  0  0
   -1.8708    0.3023    0.6483 N   0  0  0  0  0  0  0  0  0  0  0  0
   -3.2883    0.7220    0.4659 C   0  0  0  0  0  0  0  0  0  0  0  0
   -4.2704   -0.3542    0.9451 C   0  0  0  0  0  0  0  0  0  0  0  0
   -4.6639   -1.3629   -0.1290 C   0  0  0  0  0  0  0  0  0  0  0  0
   -4.6059   -0.8634   -1.4624 O   0  0  0  0  0  0  0  0  0  0  0  0
   -4.8128    0.5390   -1.5538 C   0  0  0  0  0  0  0  0  0  0  0  0
   -3.6272    1.2641   -0.9354 C   0  0  0  0  0  0  0  0  0  0  0  0
   -1.2784   -0.6470   -0.3397 C   0  0  0  0  0  0  0  0  0  0  0  0
   -0.8959   -2.0102    0.2747 C   0  0  0  0  0  0  0  0  0  0  0  0
    0.4154   -2.5465   -0.2896 C   0  0  0  0  0  0  0  0  0  0  0  0
    1.5350   -1.5250   -0.1202 C   0  0  0  0  0  0  0  0  0  0  0  0
    1.2003   -0.2086   -0.6666 N   0  0  0  0  0  0  0  0  0  0  0  0
    2.1447    0.7860   -0.9089 C   0  0  0  0  0  0  0  0  0  0  0  0
    1.9464    1.7528   -1.6418 O   0  0  0  0  0  0  0  0  0  0  0  0
    3.4695    0.6800   -0.2646 C   0  0  0  0  0  0  0  0  0  0  0  0
    3.5797    0.6238    1.1209 C   0  0  0  0  0  0  0  0  0  0  0  0
    4.8502    0.5517    1.6538 C   0  0  0  0  0  0  0  0  0  0  0  0
    5.9784    0.5448    0.9082 N   0  0  0  0  0  0  0  0  0  0  0  0
    5.8470    0.6356   -0.4377 C   0  0  0  0  0  0  0  0  0  0  0  0
    7.1052    0.6594   -1.2523 C   0  0  0  0  0  0  0  0  0  0  0  0
    4.6106    0.7108   -1.0630 C   0  0  0  0  0  0  0  0  0  0  0  0
   -0.1463   -0.0134   -1.1893 C   0  0  0  0  0  0  0  0  0  0  0  0
   -2.6263    1.2375    3.1669 H   0  0  0  0  0  0  0  0  0  0  0  0
   -1.9111    2.6200    2.2543 H   0  0  0  0  0  0  0  0  0  0  0  0
   -1.0096    1.8331    3.5550 H   0  0  0  0  0  0  0  0  0  0  0  0
   -3.4554    1.5727    1.1314 H   0  0  0  0  0  0  0  0  0  0  0  0
   -3.9064   -0.8733    1.8395 H   0  0  0  0  0  0  0  0  0  0  0  0
   -5.1909    0.1593    1.2573 H   0  0  0  0  0  0  0  0  0  0  0  0
   -5.6799   -1.7289    0.0573 H   0  0  0  0  0  0  0  0  0  0  0  0
   -4.0077   -2.2372   -0.0859 H   0  0  0  0  0  0  0  0  0  0  0  0
   -5.7592    0.8123   -1.0722 H   0  0  0  0  0  0  0  0  0  0  0  0
   -4.8979    0.8028   -2.6128 H   0  0  0  0  0  0  0  0  0  0  0  0
   -3.8578    2.3350   -0.8749 H   0  0  0  0  0  0  0  0  0  0  0  0
   -2.7674    1.1884   -1.6085 H   0  0  0  0  0  0  0  0  0  0  0  0
   -2.0704   -0.8662   -1.0619 H   0  0  0  0  0  0  0  0  0  0  0  0
   -1.6930   -2.7361    0.0743 H   0  0  0  0  0  0  0  0  0  0  0  0
   -0.8232   -1.9600    1.3666 H   0  0  0  0  0  0  0  0  0  0  0  0
    0.2862   -2.7865   -1.3523 H   0  0  0  0  0  0  0  0  0  0  0  0
    0.6852   -3.4803    0.2162 H   0  0  0  0  0  0  0  0  0  0  0  0
    2.4452   -1.8873   -0.6113 H   0  0  0  0  0  0  0  0  0  0  0  0
    1.7596   -1.4092    0.9444 H   0  0  0  0  0  0  0  0  0  0  0  0
    2.7046    0.6472    1.7615 H   0  0  0  0  0  0  0  0  0  0  0  0
    5.0047    0.5014    2.7278 H   0  0  0  0  0  0  0  0  0  0  0  0
    7.1724    1.5945   -1.8170 H   0  0  0  0  0  0  0  0  0  0  0  0
    7.9877    0.5856   -0.6086 H   0  0  0  0  0  0  0  0  0  0  0  0
    7.1206   -0.1841   -1.9493 H   0  0  0  0  0  0  0  0  0  0  0  0
    4.5282    0.7962   -2.1415 H   0  0  0  0  0  0  0  0  0  0  0  0
   -0.3432    1.0539   -1.3425 H   0  0  0  0  0  0  0  0  0  0  0  0
   -0.1471   -0.4754   -2.1855 H   0  0  0  0  0  0  0  0  0  0  0  0
  1  2  1  0
  2  3  2  0
  2  4  1  0
  4  5  1  0
  5  6  1  0
  6  7  1  0
  7  8  1  0
  8  9  1  0
  9 10  1  0
  4 11  1  0
 11 12  1  0
 12 13  1  0
 13 14  1  0
 14 15  1  0
 15 16  1  0
 16 17  2  0
 16 18  1  0
 18 19  2  0
 19 20  1  0
 20 21  2  0
 21 22  1  0
 22 23  1  0
 22 24  2  0
 15 25  1  0
 10  5  1  0
 25 11  1  0
 24 18  1  0
  1 26  1  0
  1 27  1  0
  1 28  1  0
  5 29  1  0
  6 30  1  0
  6 31  1  0
  7 32  1  0
  7 33  1  0
  9 34  1  0
  9 35  1  0
 10 36  1  0
 10 37  1  0
 11 38  1  0
 12 39  1  0
 12 40  1  0
 13 41  1  0
 13 42  1  0
 14 43  1  0
 14 44  1  0
 19 45  1  0
 20 46  1  0
 23 47  1  0
 23 48  1  0
 23 49  1  0
 24 50  1  0
 25 51  1  0
 25 52  1  0
M  END
$$$$
