
     RDKit          3D

 22 20  0  0  0  0  0  0  0  0999 V2000
    2.3427   -1.1674   -0.4072 C   0  0  0  0  0  0  0  0  0  0  0  0
    1.8395    0.5580   -0.1175 P   0  0  0  0  0  5  0  0  0  0  0  0
    1.8598    0.9014    1.3494 O   0  0  0  0  0  0  0  0  0  0  0  0
    2.8205    1.6276   -0.9494 O   0  0  0  0  0  0  0  0  0  0  0  0
    0.1236    0.6912   -0.7082 C   0  0  0  0  0  0  0  0  0  0  0  0
   -0.8095   -0.0951    0.1871 C   0  0  0  0  0  0  0  0  0  0  0  0
   -2.2133    0.0867   -0.3991 C   0  0  0  0  0  0  0  0  0  0  0  0
   -3.1662   -0.6597    0.4351 N   0  0  0  0  0  0  0  0  0  0  0  0
    0.6831    0.0000    0.0000 Cl  0  0  0  0  0  0  0  0  0  0  0  0
    1.8353   -1.5907   -1.3121 H   0  0  0  0  0  0  0  0  0  0  0  0
    3.4308   -1.2256   -0.6116 H   0  0  0  0  0  0  0  0  0  0  0  0
    2.0177   -1.7737    0.4408 H   0  0  0  0  0  0  0  0  0  0  0  0
    2.2876    2.0992   -1.6320 H   0  0  0  0  0  0  0  0  0  0  0  0
    0.1001    0.2377   -1.7137 H   0  0  0  0  0  0  0  0  0  0  0  0
   -0.1269    1.7684   -0.6970 H   0  0  0  0  0  0  0  0  0  0  0  0
   -0.7911    0.2612    1.2263 H   0  0  0  0  0  0  0  0  0  0  0  0
   -0.5311   -1.1482    0.1794 H   0  0  0  0  0  0  0  0  0  0  0  0
   -2.2901   -0.3230   -1.4023 H   0  0  0  0  0  0  0  0  0  0  0  0
   -2.5020    1.1550   -0.3985 H   0  0  0  0  0  0  0  0  0  0  0  0
   -3.6022    0.0129    1.1013 H   0  0  0  0  0  0  0  0  0  0  0  0
   -2.6254   -1.4160    0.9225 H   0  0  0  0  0  0  0  0  0  0  0  0
   -0.6831    0.0000    0.0000 H   0  0  0  0  0  0  0  0  0  0  0  0
  1  2  1  0
  2  3  2  0
  2  4  1  0
  2  5  1  0
  5  6  1  0
  6  7  1  0
  7  8  1  0
  1 10  1  0
  1 11  1  0
  1 12  1  0
  4 13  1  0
  5 14  1  0
  5 15  1  0
  6 16  1  0
  6 17  1  0
  7 18  1  0
  7 19  1  0
  8 20  1  0
  8 21  1  0
  9 22  1  0
M  END
$$$$
