
     RDKit          3D

 47 48  0  0  0  0  0  0  0  0999 V2000
   -2.8022   -3.2448   -1.4964 C   0  0  0  0  0  0  0  0  0  0  0  0
   -2.8198   -2.1480   -0.5920 O   0  0  0  0  0  0  0  0  0  0  0  0
   -4.0228   -1.4472   -0.7469 N   0  0  0  0  0  0  0  0  0  0  0  0
   -4.0476   -0.3800    0.0051 C   0  0  0  0  0  0  0  0  0  0  0  0
   -2.8793    0.0338    0.8940 C   0  0  0  0  0  0  0  0  0  0  0  0
   -2.9564   -0.0850    2.1092 O   0  0  0  0  0  0  0  0  0  0  0  0
   -1.7972    0.5414    0.2095 N   0  0  0  0  0  0  0  0  0  0  0  0
   -0.5835    1.0385    0.9128 C   0  0  2  0  0  0  0  0  0  0  0  0
    0.4476    1.7763   -0.0059 C   0  0  0  0  0  0  0  0  0  0  0  0
    0.4229    2.7869   -0.6677 O   0  0  0  0  0  0  0  0  0  0  0  0
    1.3155    0.7608    0.1622 N   0  0  0  0  0  0  0  0  0  0  0  0
    2.5675    0.4159   -0.2447 C   0  0  0  0  0  0  0  0  0  0  0  0
    3.4736    1.4537   -0.9886 C   0  0  0  0  0  0  0  0  0  0  0  0
    3.8859    2.4047   -0.2634 O   0  0  0  0  0  0  0  0  0  0  0  0
    3.7299    1.1677   -2.1940 O   0  0  0  0  0  1  0  0  0  0  0  0
    3.0329   -0.8377   -0.0131 C   0  0  0  0  0  0  0  0  0  0  0  0
    4.4399   -1.2511   -0.3943 C   0  0  0  0  0  0  0  0  0  0  0  0
    5.3610   -0.3782    0.2587 O   0  0  0  0  0  0  0  0  0  0  0  0
    6.6384   -0.4802   -0.1802 C   0  0  0  0  0  0  0  0  0  0  0  0
    7.4348    0.7013    0.2833 C   0  0  0  0  0  0  0  0  0  0  0  0
    7.0945   -1.3996   -0.8490 O   0  0  0  0  0  0  0  0  0  0  0  0
    2.2250   -1.9485    0.6158 C   0  0  0  0  0  0  0  0  0  0  0  0
    0.4252   -1.6708    0.6549 S   0  0  0  0  0  0  0  0  0  0  0  0
    0.5872    0.0539    1.1876 C   0  0  2  0  0  0  0  0  0  0  0  0
   -5.2450    0.4542   -0.0414 C   0  0  0  0  0  0  0  0  0  0  0  0
   -6.4126    0.1253   -0.7093 C   0  0  0  0  0  0  0  0  0  0  0  0
   -7.5790    1.3635   -0.5145 S   0  0  0  0  0  0  0  0  0  0  0  0
   -6.4547    2.2605    0.4188 C   0  0  0  0  0  0  0  0  0  0  0  0
   -6.7678    3.4569    0.9427 N   0  0  0  0  0  0  0  0  0  0  0  0
   -5.2908    1.6906    0.5957 N   0  0  0  0  0  0  0  0  0  0  0  0
    0.0000    0.0000    0.0000 Na  0  0  0  0  0 15  0  0  0  0  0  0
   -1.8603   -3.7845   -1.3685 H   0  0  0  0  0  0  0  0  0  0  0  0
   -2.8645   -2.8854   -2.5279 H   0  0  0  0  0  0  0  0  0  0  0  0
   -3.6311   -3.9266   -1.2820 H   0  0  0  0  0  0  0  0  0  0  0  0
   -1.7911    0.4686   -0.8032 H   0  0  0  0  0  0  0  0  0  0  0  0
   -0.8565    1.6452    1.7853 H   0  0  0  0  0  0  0  0  0  0  0  0
    4.6440   -2.2717   -0.0479 H   0  0  0  0  0  0  0  0  0  0  0  0
    4.5641   -1.2330   -1.4843 H   0  0  0  0  0  0  0  0  0  0  0  0
    7.1716    1.5792   -0.3120 H   0  0  0  0  0  0  0  0  0  0  0  0
    7.2478    0.8878    1.3441 H   0  0  0  0  0  0  0  0  0  0  0  0
    8.5009    0.4878    0.1613 H   0  0  0  0  0  0  0  0  0  0  0  0
    2.5753   -2.1184    1.6399 H   0  0  0  0  0  0  0  0  0  0  0  0
    2.3747   -2.8778    0.0550 H   0  0  0  0  0  0  0  0  0  0  0  0
    1.0244    0.1757    2.1864 H   0  0  0  0  0  0  0  0  0  0  0  0
   -6.6270   -0.7662   -1.2814 H   0  0  0  0  0  0  0  0  0  0  0  0
   -7.7458    3.6429    1.1229 H   0  0  0  0  0  0  0  0  0  0  0  0
   -6.1493    3.7619    1.6877 H   0  0  0  0  0  0  0  0  0  0  0  0
  1  2  1  0
  2  3  1  0
  3  4  2  0
  4  5  1  0
  5  6  2  0
  5  7  1  0
  7  8  1  0
  8  9  1  0
  9 10  2  0
  9 11  1  0
 11 12  1  0
 12 13  1  0
 13 14  2  0
 13 15  1  0
 12 16  2  0
 16 17  1  0
 17 18  1  0
 18 19  1  0
 19 20  1  0
 19 21  2  0
 16 22  1  0
 22 23  1  0
 23 24  1  0
  4 25  1  0
 25 26  2  0
 26 27  1  0
 27 28  1  0
 28 29  1  0
 28 30  2  0
 24  8  1  0
 30 25  1  0
 24 11  1  0
  1 32  1  0
  1 33  1  0
  1 34  1  0
  7 35  1  0
  8 36  1  1
 17 37  1  0
 17 38  1  0
 20 39  1  0
 20 40  1  0
 20 41  1  0
 22 42  1  0
 22 43  1  0
 24 44  1  1
 26 45  1  0
 29 46  1  0
 29 47  1  0
M  CHG  2  15  -1  31   1
M  END
$$$$
