
     RDKit          3D

 54 57  0  0  0  0  0  0  0  0999 V2000
    9.4764    0.8078   -0.7968 O   0  0  0  0  0  0  0  0  0  0  0  0
    8.3101    0.4803   -0.5902 C   0  0  0  0  0  0  0  0  0  0  0  0
    7.9108   -0.9482   -0.3010 C   0  0  0  0  0  0  0  0  0  0  0  0
    6.7155   -1.0283    0.6341 C   0  0  0  0  0  0  0  0  0  0  0  0
    5.6158   -0.1018    0.1946 C   0  0  0  0  0  0  0  0  0  0  0  0
    4.2733   -0.3740    0.4985 C   0  0  0  0  0  0  0  0  0  0  0  0
    3.2765    0.5438    0.1606 C   0  0  0  0  0  0  0  0  0  0  0  0
    1.9373    0.4001    0.3953 O   0  0  0  0  0  0  0  0  0  0  0  0
    1.5008   -0.8399    0.9496 C   0  0  0  0  0  0  0  0  0  0  0  0
   -0.0231   -0.8116    1.0657 C   0  0  0  0  0  0  0  0  0  0  0  0
   -0.7056   -0.7612   -0.3054 C   0  0  0  0  0  0  0  0  0  0  0  0
   -2.2297   -0.7051   -0.1633 C   0  0  0  0  0  0  0  0  0  0  0  0
   -2.9249   -0.6891   -1.4787 C   0  0  0  0  0  0  0  0  0  0  0  0
   -2.3906   -0.9626   -2.6538 N   0  0  0  0  0  0  0  0  0  0  0  0
   -3.3905   -0.8376   -3.5793 N   0  0  0  0  0  0  0  0  0  0  0  0
   -4.5301   -0.5000   -2.9997 N   0  0  0  0  0  0  0  0  0  0  0  0
   -4.2541   -0.4096   -1.6847 N   0  0  0  0  0  0  0  0  0  0  0  0
   -5.3240   -0.0512   -0.7678 C   0  0  0  0  0  0  0  0  0  0  0  0
   -5.5603   -1.0800    0.3561 C   0  0  0  0  0  0  0  0  0  0  0  0
   -5.3177   -0.5118    1.7512 C   0  0  0  0  0  0  0  0  0  0  0  0
   -6.1276    0.7564    2.0146 C   0  0  0  0  0  0  0  0  0  0  0  0
   -6.2378    1.6882    0.8071 C   0  0  0  0  0  0  0  0  0  0  0  0
   -5.1935    1.3941   -0.2633 C   0  0  0  0  0  0  0  0  0  0  0  0
    3.6312    1.7443   -0.4617 C   0  0  0  0  0  0  0  0  0  0  0  0
    4.9659    2.0303   -0.7547 C   0  0  0  0  0  0  0  0  0  0  0  0
    5.9513    1.1014   -0.4345 C   0  0  0  0  0  0  0  0  0  0  0  0
    7.2898    1.3844   -0.7189 N   0  0  0  0  0  0  0  0  0  0  0  0
    7.6820   -1.4253   -1.2617 H   0  0  0  0  0  0  0  0  0  0  0  0
    8.7625   -1.4737    0.1440 H   0  0  0  0  0  0  0  0  0  0  0  0
    7.0150   -0.7450    1.6508 H   0  0  0  0  0  0  0  0  0  0  0  0
    6.3557   -2.0631    0.6684 H   0  0  0  0  0  0  0  0  0  0  0  0
    4.0355   -1.3016    1.0085 H   0  0  0  0  0  0  0  0  0  0  0  0
    1.8058   -1.6777    0.3109 H   0  0  0  0  0  0  0  0  0  0  0  0
    1.9247   -0.9648    1.9530 H   0  0  0  0  0  0  0  0  0  0  0  0
   -0.3250    0.0680    1.6472 H   0  0  0  0  0  0  0  0  0  0  0  0
   -0.3583   -1.7026    1.6091 H   0  0  0  0  0  0  0  0  0  0  0  0
   -0.4149   -1.6462   -0.8857 H   0  0  0  0  0  0  0  0  0  0  0  0
   -0.3582    0.1153   -0.8667 H   0  0  0  0  0  0  0  0  0  0  0  0
   -2.4901    0.1913    0.4066 H   0  0  0  0  0  0  0  0  0  0  0  0
   -2.5698   -1.5757    0.4087 H   0  0  0  0  0  0  0  0  0  0  0  0
   -6.2360   -0.0814   -1.3839 H   0  0  0  0  0  0  0  0  0  0  0  0
   -6.6072   -1.4098    0.3065 H   0  0  0  0  0  0  0  0  0  0  0  0
   -4.9604   -1.9858    0.2120 H   0  0  0  0  0  0  0  0  0  0  0  0
   -5.5636   -1.2654    2.5084 H   0  0  0  0  0  0  0  0  0  0  0  0
   -4.2529   -0.2890    1.8783 H   0  0  0  0  0  0  0  0  0  0  0  0
   -5.6721    1.2947    2.8548 H   0  0  0  0  0  0  0  0  0  0  0  0
   -7.1387    0.4858    2.3431 H   0  0  0  0  0  0  0  0  0  0  0  0
   -6.1553    2.7303    1.1369 H   0  0  0  0  0  0  0  0  0  0  0  0
   -7.2378    1.5850    0.3665 H   0  0  0  0  0  0  0  0  0  0  0  0
   -4.1949    1.5887    0.1426 H   0  0  0  0  0  0  0  0  0  0  0  0
   -5.3201    2.0900   -1.1022 H   0  0  0  0  0  0  0  0  0  0  0  0
    2.8577    2.4639   -0.7204 H   0  0  0  0  0  0  0  0  0  0  0  0
    5.2152    2.9702   -1.2381 H   0  0  0  0  0  0  0  0  0  0  0  0
    7.5561    2.3047   -1.0445 H   0  0  0  0  0  0  0  0  0  0  0  0
  1  2  2  0
  2  3  1  0
  3  4  1  0
  4  5  1  0
  5  6  2  0
  6  7  1  0
  7  8  1  0
  8  9  1  0
  9 10  1  0
 10 11  1  0
 11 12  1  0
 12 13  1  0
 13 14  2  0
 14 15  1  0
 15 16  2  0
 16 17  1  0
 17 18  1  0
 18 19  1  0
 19 20  1  0
 20 21  1  0
 21 22  1  0
 22 23  1  0
  7 24  2  0
 24 25  1  0
 25 26  2  0
 26 27  1  0
 27  2  1  0
 26  5  1  0
 17 13  1  0
 23 18  1  0
  3 28  1  0
  3 29  1  0
  4 30  1  0
  4 31  1  0
  6 32  1  0
  9 33  1  0
  9 34  1  0
 10 35  1  0
 10 36  1  0
 11 37  1  0
 11 38  1  0
 12 39  1  0
 12 40  1  0
 18 41  1  0
 19 42  1  0
 19 43  1  0
 20 44  1  0
 20 45  1  0
 21 46  1  0
 21 47  1  0
 22 48  1  0
 22 49  1  0
 23 50  1  0
 23 51  1  0
 24 52  1  0
 25 53  1  0
 27 54  1  0
M  END
$$$$
