
     RDKit          3D

 58 59  0  0  0  0  0  0  0  0999 V2000
    6.4692    1.0408    0.5569 C   0  0  0  0  0  0  0  0  0  0  0  0
    6.0177    0.1406   -0.4934 N   0  0  0  0  0  0  0  0  0  0  0  0
    4.6986   -0.8583   -0.2476 S   0  0  0  0  0  6  0  0  0  0  0  0
    4.8812   -1.5307    1.0179 O   0  0  0  0  0  0  0  0  0  0  0  0
    4.5367   -1.5839   -1.4878 O   0  0  0  0  0  0  0  0  0  0  0  0
    3.3547    0.3207   -0.0968 C   0  0  0  0  0  0  0  0  0  0  0  0
    2.0209   -0.3205    0.3180 C   0  0  1  0  0  0  0  0  0  0  0  0
    1.0217    0.7861    0.6842 C   0  0  0  0  0  0  0  0  0  0  0  0
   -0.3423    0.2270    1.0785 C   0  0  0  0  0  0  0  0  0  0  0  0
   -0.9571   -0.6616   -0.0241 C   0  0  2  0  0  0  0  0  0  0  0  0
   -2.2374   -1.2475    0.4400 N   0  0  0  0  0  0  0  0  0  0  0  0
   -2.8461   -2.2885   -0.3878 C   0  0  0  0  0  0  0  0  0  0  0  0
   -3.2126   -0.2825    0.7663 C   0  0  0  0  0  0  0  0  0  0  0  0
   -3.5996   -0.2220    2.0658 N   0  0  0  0  0  0  0  0  0  0  0  0
   -4.5233    0.6838    2.4358 C   0  0  0  0  0  0  0  0  0  0  0  0
   -5.1554    1.5855    1.6673 N   0  0  0  0  0  0  0  0  0  0  0  0
   -4.7578    1.4947    0.3914 C   0  0  0  0  0  0  0  0  0  0  0  0
   -5.2338    2.2815   -0.6212 N   0  0  0  0  0  0  0  0  0  0  0  0
   -4.6296    1.9341   -1.8016 C   0  0  0  0  0  0  0  0  0  0  0  0
   -3.7509    0.9053   -1.5330 C   0  0  0  0  0  0  0  0  0  0  0  0
   -3.8214    0.6180   -0.1371 C   0  0  0  0  0  0  0  0  0  0  0  0
    0.0531   -1.7673   -0.3876 C   0  0  0  0  0  0  0  0  0  0  0  0
    1.4238   -1.2124   -0.7770 C   0  0  0  0  0  0  0  0  0  0  0  0
   -0.6692   -0.7983   -1.6434 O   0  0  0  0  0  0  0  0  0  0  0  0
   -1.2639   -0.1296   -0.8228 C   0  0  0  0  0  0  0  0  0  0  0  0
   -2.5947   -0.1932   -0.6655 O   0  0  0  0  0  0  0  0  0  0  0  0
   -0.7056    0.8838    0.0782 C   0  0  0  0  0  0  0  0  0  0  0  0
    0.4964    0.7799    0.6586 C   0  0  0  0  0  0  0  0  0  0  0  0
    1.3333   -0.4219    0.5848 C   0  0  0  0  0  0  0  0  0  0  0  0
    0.9690   -1.5796    0.6179 O   0  0  0  0  0  0  0  0  0  0  0  0
    2.6272   -0.0715    0.5323 O   0  0  0  0  0  0  0  0  0  0  0  0
    5.9597    2.0040    0.4705 H   0  0  0  0  0  0  0  0  0  0  0  0
    6.3014    0.6264    1.5539 H   0  0  0  0  0  0  0  0  0  0  0  0
    7.5436    1.2109    0.4417 H   0  0  0  0  0  0  0  0  0  0  0  0
    6.1937    0.3905   -1.4654 H   0  0  0  0  0  0  0  0  0  0  0  0
    3.6616    1.0384    0.6713 H   0  0  0  0  0  0  0  0  0  0  0  0
    3.2670    0.8433   -1.0550 H   0  0  0  0  0  0  0  0  0  0  0  0
    2.1886   -0.9384    1.2101 H   0  0  0  0  0  0  0  0  0  0  0  0
    0.8974    1.4727   -0.1633 H   0  0  0  0  0  0  0  0  0  0  0  0
    1.4153    1.3810    1.5174 H   0  0  0  0  0  0  0  0  0  0  0  0
   -1.0005    1.0735    1.3065 H   0  0  0  0  0  0  0  0  0  0  0  0
   -0.2444   -0.3490    2.0083 H   0  0  0  0  0  0  0  0  0  0  0  0
   -1.1213   -0.0538   -0.9229 H   0  0  0  0  0  0  0  0  0  0  0  0
   -2.9244   -1.9841   -1.4373 H   0  0  0  0  0  0  0  0  0  0  0  0
   -2.2466   -3.2037   -0.3417 H   0  0  0  0  0  0  0  0  0  0  0  0
   -3.8446   -2.5651   -0.0261 H   0  0  0  0  0  0  0  0  0  0  0  0
   -4.7883    0.6835    3.4885 H   0  0  0  0  0  0  0  0  0  0  0  0
   -5.9303    3.0008   -0.4903 H   0  0  0  0  0  0  0  0  0  0  0  0
   -4.8779    2.4434   -2.7234 H   0  0  0  0  0  0  0  0  0  0  0  0
   -3.1254    0.4101   -2.2635 H   0  0  0  0  0  0  0  0  0  0  0  0
    0.1680   -2.4599    0.4565 H   0  0  0  0  0  0  0  0  0  0  0  0
   -0.3189   -2.3601   -1.2314 H   0  0  0  0  0  0  0  0  0  0  0  0
    1.3319   -0.6462   -1.7125 H   0  0  0  0  0  0  0  0  0  0  0  0
    2.0838   -2.0613   -0.9809 H   0  0  0  0  0  0  0  0  0  0  0  0
   -2.8651   -0.8976   -1.2913 H   0  0  0  0  0  0  0  0  0  0  0  0
   -1.3149    1.7673    0.2258 H   0  0  0  0  0  0  0  0  0  0  0  0
    0.8930    1.5918    1.2561 H   0  0  0  0  0  0  0  0  0  0  0  0
    3.0943   -0.9311    0.4693 H   0  0  0  0  0  0  0  0  0  0  0  0
  1  2  1  0
  2  3  1  0
  3  4  2  0
  3  5  2  0
  3  6  1  0
  6  7  1  0
  7  8  1  0
  8  9  1  0
  9 10  1  0
 10 11  1  0
 11 12  1  0
 11 13  1  0
 13 14  2  0
 14 15  1  0
 15 16  2  0
 16 17  1  0
 17 18  1  0
 18 19  1  0
 19 20  2  0
 20 21  1  0
 10 22  1  0
 22 23  1  0
 24 25  2  0
 25 26  1  0
 25 27  1  0
 27 28  2  0
 28 29  1  0
 29 30  2  0
 29 31  1  0
 23  7  1  0
 21 13  1  0
 21 17  2  0
  1 32  1  0
  1 33  1  0
  1 34  1  0
  2 35  1  0
  6 36  1  0
  6 37  1  0
  7 38  1  1
  8 39  1  0
  8 40  1  0
  9 41  1  0
  9 42  1  0
 10 43  1  6
 12 44  1  0
 12 45  1  0
 12 46  1  0
 15 47  1  0
 18 48  1  0
 19 49  1  0
 20 50  1  0
 22 51  1  0
 22 52  1  0
 23 53  1  0
 23 54  1  0
 26 55  1  0
 27 56  1  0
 28 57  1  0
 31 58  1  0
M  END
$$$$
