
     RDKit          3D

 43 46  0  0  0  0  0  0  0  0999 V2000
    3.5473    2.4869   -0.0948 O   0  0  0  0  0  0  0  0  0  0  0  0
    3.0855    1.3547    0.0210 C   0  0  0  0  0  0  0  0  0  0  0  0
    4.0078    0.2737    0.4379 C   0  0  0  0  0  0  0  0  0  0  0  0
    4.7957    0.4653    1.5788 C   0  0  0  0  0  0  0  0  0  0  0  0
    5.6861   -0.5321    1.9827 C   0  0  0  0  0  0  0  0  0  0  0  0
    5.7933   -1.7075    1.2389 C   0  0  0  0  0  0  0  0  0  0  0  0
    6.8877   -2.9371    1.7393 Cl  0  0  0  0  0  0  0  0  0  0  0  0
    5.0273   -1.8911    0.0865 C   0  0  0  0  0  0  0  0  0  0  0  0
    4.1365   -0.8953   -0.3211 C   0  0  0  0  0  0  0  0  0  0  0  0
    1.7531    1.0471   -0.2257 N   0  0  0  0  0  0  0  0  0  0  0  0
    1.0778   -0.1880    0.2077 C   0  0  0  0  0  0  0  0  0  0  0  0
   -0.3976    0.0368    0.5922 C   0  0  0  0  0  0  0  0  0  0  0  0
   -1.1611    0.7288   -0.4721 N   0  0  0  0  0  0  0  0  0  0  0  0
   -2.2192   -0.0346   -0.9988 C   0  0  0  0  0  0  0  0  0  0  0  0
   -2.0376   -0.8686   -2.1040 C   0  0  0  0  0  0  0  0  0  0  0  0
   -3.1015   -1.6306   -2.5481 C   0  0  0  0  0  0  0  0  0  0  0  0
   -4.3210   -1.6267   -1.9767 N   0  0  0  0  0  0  0  0  0  0  0  0
   -4.5148   -0.8319   -0.9134 C   0  0  0  0  0  0  0  0  0  0  0  0
   -5.7701   -0.8250   -0.3239 C   0  0  0  0  0  0  0  0  0  0  0  0
   -6.0465   -0.0223    0.7808 C   0  0  0  0  0  0  0  0  0  0  0  0
   -7.6172   -0.0441    1.4830 Cl  0  0  0  0  0  0  0  0  0  0  0  0
   -5.0642    0.7978    1.3177 C   0  0  0  0  0  0  0  0  0  0  0  0
   -3.7961    0.8042    0.7408 C   0  0  0  0  0  0  0  0  0  0  0  0
   -3.4962   -0.0100   -0.3763 C   0  0  0  0  0  0  0  0  0  0  0  0
   -0.3733    1.5443   -1.4207 C   0  0  0  0  0  0  0  0  0  0  0  0
    0.8831    2.1114   -0.7409 C   0  0  0  0  0  0  0  0  0  0  0  0
    4.7206    1.3909    2.1456 H   0  0  0  0  0  0  0  0  0  0  0  0
    6.2975   -0.3825    2.8689 H   0  0  0  0  0  0  0  0  0  0  0  0
    5.1242   -2.8016   -0.4989 H   0  0  0  0  0  0  0  0  0  0  0  0
    3.5656   -1.0235   -1.2376 H   0  0  0  0  0  0  0  0  0  0  0  0
    1.6092   -0.6274    1.0579 H   0  0  0  0  0  0  0  0  0  0  0  0
    1.1330   -0.8908   -0.6325 H   0  0  0  0  0  0  0  0  0  0  0  0
   -0.4355    0.6720    1.4864 H   0  0  0  0  0  0  0  0  0  0  0  0
   -0.8507   -0.9239    0.8703 H   0  0  0  0  0  0  0  0  0  0  0  0
   -1.0822   -0.9557   -2.6061 H   0  0  0  0  0  0  0  0  0  0  0  0
   -2.9950   -2.2945   -3.4019 H   0  0  0  0  0  0  0  0  0  0  0  0
   -6.5465   -1.4605   -0.7420 H   0  0  0  0  0  0  0  0  0  0  0  0
   -5.2744    1.4317    2.1747 H   0  0  0  0  0  0  0  0  0  0  0  0
   -3.0329    1.4576    1.1575 H   0  0  0  0  0  0  0  0  0  0  0  0
   -0.9949    2.3702   -1.7857 H   0  0  0  0  0  0  0  0  0  0  0  0
   -0.0527    0.9560   -2.2876 H   0  0  0  0  0  0  0  0  0  0  0  0
    0.6049    2.7420    0.1121 H   0  0  0  0  0  0  0  0  0  0  0  0
    1.4452    2.7338   -1.4452 H   0  0  0  0  0  0  0  0  0  0  0  0
  1  2  2  0
  2  3  1  0
  3  4  2  0
  4  5  1  0
  5  6  2  0
  6  7  1  0
  6  8  1  0
  8  9  2  0
  2 10  1  0
 10 11  1  0
 11 12  1  0
 12 13  1  0
 13 14  1  0
 14 15  2  0
 15 16  1  0
 16 17  2  0
 17 18  1  0
 18 19  2  0
 19 20  1  0
 20 21  1  0
 20 22  2  0
 22 23  1  0
 23 24  2  0
 13 25  1  0
 25 26  1  0
  9  3  1  0
 26 10  1  0
 24 14  1  0
 24 18  1  0
  4 27  1  0
  5 28  1  0
  8 29  1  0
  9 30  1  0
 11 31  1  0
 11 32  1  0
 12 33  1  0
 12 34  1  0
 15 35  1  0
 16 36  1  0
 19 37  1  0
 22 38  1  0
 23 39  1  0
 25 40  1  0
 25 41  1  0
 26 42  1  0
 26 43  1  0
M  END
$$$$
