
     RDKit          3D

 38 41  0  0  0  0  0  0  0  0999 V2000
    3.5133   -0.1467    1.8809 O   0  0  0  0  0  0  0  0  0  0  0  0
    2.6312   -0.5073    1.1075 C   0  0  0  0  0  0  0  0  0  0  0  0
    1.5288    0.2615    0.7738 N   0  0  0  0  0  0  0  0  0  0  0  0
    1.1644    1.5614    1.2102 C   0  0  0  0  0  0  0  0  0  0  0  0
    1.9687    2.2989    2.0922 C   0  0  0  0  0  0  0  0  0  0  0  0
    1.5691    3.5594    2.5313 C   0  0  0  0  0  0  0  0  0  0  0  0
    2.5643    4.4472    3.6196 Cl  0  0  0  0  0  0  0  0  0  0  0  0
    0.3674    4.1046    2.1044 C   0  0  0  0  0  0  0  0  0  0  0  0
   -0.4363    3.3887    1.2159 C   0  0  0  0  0  0  0  0  0  0  0  0
   -0.0593    2.1171    0.7288 C   0  0  0  0  0  0  0  0  0  0  0  0
   -0.9342    1.4103   -0.2456 C   0  0  0  0  0  0  0  0  0  0  0  0
   -1.0031    0.0541   -0.1051 N   0  0  0  0  0  0  0  0  0  0  0  0
   -1.8021   -0.6268   -0.9530 C   0  0  0  0  0  0  0  0  0  0  0  0
   -1.9210   -2.0047   -0.8212 C   0  0  0  0  0  0  0  0  0  0  0  0
   -2.7279   -2.7491   -1.6824 C   0  0  0  0  0  0  0  0  0  0  0  0
   -3.4288   -2.1044   -2.6931 C   0  0  0  0  0  0  0  0  0  0  0  0
   -3.3182   -0.7202   -2.8338 C   0  0  0  0  0  0  0  0  0  0  0  0
   -2.5181    0.0316   -1.9819 C   0  0  0  0  0  0  0  0  0  0  0  0
   -2.4324    1.3634   -2.1518 N   0  0  0  0  0  0  0  0  0  0  0  0
   -1.6446    2.0209   -1.2787 C   0  0  0  0  0  0  0  0  0  0  0  0
   -1.5916    3.3498   -1.5437 O   0  0  0  0  0  0  0  0  0  0  0  0
    2.6455   -1.8170    0.4511 C   0  0  0  0  0  0  0  0  0  0  0  0
    2.0117   -2.2461   -0.7044 C   0  0  0  0  0  0  0  0  0  0  0  0
    2.2800   -3.6143   -1.0050 C   0  0  0  0  0  0  0  0  0  0  0  0
    3.1188   -4.1887   -0.0786 C   0  0  0  0  0  0  0  0  0  0  0  0
    3.5837   -3.0829    1.1376 S   0  0  0  0  0  0  0  0  0  0  0  0
    0.7998   -0.2047    0.2395 H   0  0  0  0  0  0  0  0  0  0  0  0
    2.9116    1.9108    2.4625 H   0  0  0  0  0  0  0  0  0  0  0  0
    0.0488    5.0832    2.4536 H   0  0  0  0  0  0  0  0  0  0  0  0
   -1.3765    3.8436    0.9073 H   0  0  0  0  0  0  0  0  0  0  0  0
   -1.3773   -2.5116   -0.0267 H   0  0  0  0  0  0  0  0  0  0  0  0
   -2.8088   -3.8266   -1.5590 H   0  0  0  0  0  0  0  0  0  0  0  0
   -4.0627   -2.6722   -3.3702 H   0  0  0  0  0  0  0  0  0  0  0  0
   -3.8686   -0.2165   -3.6251 H   0  0  0  0  0  0  0  0  0  0  0  0
   -2.1668    3.3941   -2.3295 H   0  0  0  0  0  0  0  0  0  0  0  0
    1.3931   -1.6117   -1.3274 H   0  0  0  0  0  0  0  0  0  0  0  0
    1.8863   -4.1459   -1.8629 H   0  0  0  0  0  0  0  0  0  0  0  0
    3.4921   -5.2036   -0.0595 H   0  0  0  0  0  0  0  0  0  0  0  0
  1  2  2  0
  2  3  1  0
  3  4  1  0
  4  5  2  0
  5  6  1  0
  6  7  1  0
  6  8  2  0
  8  9  1  0
  9 10  2  0
 10 11  1  0
 11 12  2  0
 12 13  1  0
 13 14  2  0
 14 15  1  0
 15 16  2  0
 16 17  1  0
 17 18  2  0
 18 19  1  0
 19 20  2  0
 20 21  1  0
  2 22  1  0
 22 23  2  0
 23 24  1  0
 24 25  2  0
 25 26  1  0
 10  4  1  0
 20 11  1  0
 26 22  1  0
 18 13  1  0
  3 27  1  0
  5 28  1  0
  8 29  1  0
  9 30  1  0
 14 31  1  0
 15 32  1  0
 16 33  1  0
 17 34  1  0
 21 35  1  0
 23 36  1  0
 24 37  1  0
 25 38  1  0
M  END
$$$$
