
     RDKit          3D

 62 65  0  0  0  0  0  0  0  0999 V2000
   10.1417    2.3244    1.2336 C   0  0  0  0  0  0  0  0  0  0  0  0
    9.8021    1.1809    0.4624 O   0  0  0  0  0  0  0  0  0  0  0  0
    8.4730    0.8505    0.3696 C   0  0  0  0  0  0  0  0  0  0  0  0
    7.4394    1.5359    1.0119 C   0  0  0  0  0  0  0  0  0  0  0  0
    6.1088    1.1285    0.8555 C   0  0  0  0  0  0  0  0  0  0  0  0
    5.7928    0.0302    0.0583 C   0  0  0  0  0  0  0  0  0  0  0  0
    4.4787   -0.4472   -0.1283 N   0  0  0  0  0  0  0  0  0  0  0  0
    3.3059    0.1573    0.2634 C   0  0  0  0  0  0  0  0  0  0  0  0
    3.1745    1.2641    0.7664 O   0  0  0  0  0  0  0  0  0  0  0  0
    2.2219   -0.6582   -0.0141 N   0  0  0  0  0  0  0  0  0  0  0  0
    0.8867   -0.2342    0.3815 C   0  0  0  0  0  0  0  0  0  0  0  0
    0.3570    0.9410   -0.4416 C   0  0  0  0  0  0  0  0  0  0  0  0
   -1.0004    1.2854   -0.0698 N   0  0  0  0  0  0  0  0  0  0  0  0
   -1.3449    2.2452    0.8403 C   0  0  0  0  0  0  0  0  0  0  0  0
   -2.6480    2.3375    0.9752 N   0  0  0  0  0  0  0  0  0  0  0  0
   -3.1687    1.4082    0.1106 C   0  0  0  0  0  0  0  0  0  0  0  0
   -4.5091    1.0979   -0.1532 C   0  0  0  0  0  0  0  0  0  0  0  0
   -4.7841    0.0792   -1.0758 C   0  0  0  0  0  0  0  0  0  0  0  0
   -6.1836   -0.2758   -1.4092 C   0  0  0  0  0  0  0  0  0  0  0  0
   -6.4909   -0.3205   -2.5990 O   0  0  0  0  0  0  0  0  0  0  0  0
   -7.0839   -0.5456   -0.3778 N   0  0  0  0  0  0  0  0  0  0  0  0
   -6.6932   -0.8623    0.9995 C   0  0  0  0  0  0  0  0  0  0  0  0
   -7.6061   -1.9174    1.6170 C   0  0  0  0  0  0  0  0  0  0  0  0
   -9.0728   -1.4870    1.6062 C   0  0  0  0  0  0  0  0  0  0  0  0
   -9.4126   -0.5516    0.4455 C   0  0  0  0  0  0  0  0  0  0  0  0
   -8.4829   -0.7574   -0.7429 C   0  0  0  0  0  0  0  0  0  0  0  0
   -3.7516   -0.5798   -1.7559 C   0  0  0  0  0  0  0  0  0  0  0  0
   -2.4091   -0.2739   -1.5069 C   0  0  0  0  0  0  0  0  0  0  0  0
   -2.1550    0.7254   -0.5605 C   0  0  0  0  0  0  0  0  0  0  0  0
    6.8286   -0.6651   -0.5808 C   0  0  0  0  0  0  0  0  0  0  0  0
    8.1628   -0.2578   -0.4397 C   0  0  0  0  0  0  0  0  0  0  0  0
    9.2274   -0.8977   -1.0263 O   0  0  0  0  0  0  0  0  0  0  0  0
    8.9487   -1.7412   -2.1343 C   0  0  0  0  0  0  0  0  0  0  0  0
   11.2253    2.4609    1.1702 H   0  0  0  0  0  0  0  0  0  0  0  0
    9.8865    2.1777    2.2885 H   0  0  0  0  0  0  0  0  0  0  0  0
    9.6706    3.2279    0.8323 H   0  0  0  0  0  0  0  0  0  0  0  0
    7.6291    2.3940    1.6478 H   0  0  0  0  0  0  0  0  0  0  0  0
    5.3431    1.6896    1.3834 H   0  0  0  0  0  0  0  0  0  0  0  0
    4.3696   -1.2400   -0.7423 H   0  0  0  0  0  0  0  0  0  0  0  0
    2.4175   -1.6420    0.1068 H   0  0  0  0  0  0  0  0  0  0  0  0
    0.9054    0.0157    1.4494 H   0  0  0  0  0  0  0  0  0  0  0  0
    0.2343   -1.1063    0.2608 H   0  0  0  0  0  0  0  0  0  0  0  0
    0.9703    1.8393   -0.3145 H   0  0  0  0  0  0  0  0  0  0  0  0
    0.3637    0.7025   -1.5111 H   0  0  0  0  0  0  0  0  0  0  0  0
   -0.6127    2.8418    1.3703 H   0  0  0  0  0  0  0  0  0  0  0  0
   -5.2989    1.6504    0.3417 H   0  0  0  0  0  0  0  0  0  0  0  0
   -5.6589   -1.2187    1.0274 H   0  0  0  0  0  0  0  0  0  0  0  0
   -6.7510    0.0666    1.5774 H   0  0  0  0  0  0  0  0  0  0  0  0
   -7.2924   -2.1405    2.6430 H   0  0  0  0  0  0  0  0  0  0  0  0
   -7.5075   -2.8506    1.0473 H   0  0  0  0  0  0  0  0  0  0  0  0
   -9.3213   -0.9859    2.5498 H   0  0  0  0  0  0  0  0  0  0  0  0
   -9.7039   -2.3825    1.5607 H   0  0  0  0  0  0  0  0  0  0  0  0
   -9.3249    0.4863    0.7915 H   0  0  0  0  0  0  0  0  0  0  0  0
  -10.4562   -0.6945    0.1440 H   0  0  0  0  0  0  0  0  0  0  0  0
   -8.7545   -0.0726   -1.5543 H   0  0  0  0  0  0  0  0  0  0  0  0
   -8.5737   -1.7787   -1.1321 H   0  0  0  0  0  0  0  0  0  0  0  0
   -3.9987   -1.3382   -2.4978 H   0  0  0  0  0  0  0  0  0  0  0  0
   -1.6135   -0.7839   -2.0394 H   0  0  0  0  0  0  0  0  0  0  0  0
    6.5854   -1.5334   -1.1821 H   0  0  0  0  0  0  0  0  0  0  0  0
    9.9033   -2.0221   -2.5891 H   0  0  0  0  0  0  0  0  0  0  0  0
    8.3581   -1.2209   -2.8951 H   0  0  0  0  0  0  0  0  0  0  0  0
    8.4527   -2.6611   -1.8109 H   0  0  0  0  0  0  0  0  0  0  0  0
  1  2  1  0
  2  3  1  0
  3  4  2  0
  4  5  1  0
  5  6  2  0
  6  7  1  0
  7  8  1  0
  8  9  2  0
  8 10  1  0
 10 11  1  0
 11 12  1  0
 12 13  1  0
 13 14  1  0
 14 15  2  0
 15 16  1  0
 16 17  2  0
 17 18  1  0
 18 19  1  0
 19 20  2  0
 19 21  1  0
 21 22  1  0
 22 23  1  0
 23 24  1  0
 24 25  1  0
 25 26  1  0
 18 27  2  0
 27 28  1  0
 28 29  2  0
  6 30  1  0
 30 31  2  0
 31 32  1  0
 32 33  1  0
 31  3  1  0
 29 13  1  0
 29 16  1  0
 26 21  1  0
  1 34  1  0
  1 35  1  0
  1 36  1  0
  4 37  1  0
  5 38  1  0
  7 39  1  0
 10 40  1  0
 11 41  1  0
 11 42  1  0
 12 43  1  0
 12 44  1  0
 14 45  1  0
 17 46  1  0
 22 47  1  0
 22 48  1  0
 23 49  1  0
 23 50  1  0
 24 51  1  0
 24 52  1  0
 25 53  1  0
 25 54  1  0
 26 55  1  0
 26 56  1  0
 27 57  1  0
 28 58  1  0
 30 59  1  0
 33 60  1  0
 33 61  1  0
 33 62  1  0
M  END
$$$$
