
     RDKit          3D

 32 33  0  0  0  0  0  0  0  0999 V2000
   -5.2621   -1.1351    1.5477 O   0  0  0  0  0  0  0  0  0  0  0  0
   -5.7327   -0.5061    0.6108 C   0  0  0  0  0  0  0  0  0  0  0  0
   -7.0682   -0.4087    0.4545 O   0  0  0  0  0  0  0  0  0  0  0  0
   -4.9585    0.2266   -0.4676 C   0  0  0  0  0  0  0  0  0  0  0  0
   -3.5323    0.0843   -0.2502 N   0  0  0  0  0  0  0  0  0  0  0  0
   -2.6080    0.6591   -1.0963 C   0  0  0  0  0  0  0  0  0  0  0  0
   -2.9649    1.3137   -2.0732 O   0  0  0  0  0  0  0  0  0  0  0  0
   -1.1438    0.4512   -0.7740 C   0  0  0  0  0  0  0  0  0  0  0  0
   -0.2846    1.0405   -1.6503 N   0  0  0  0  0  0  0  0  0  0  0  0
    1.0414    0.8969   -1.4253 C   0  0  0  0  0  0  0  0  0  0  0  0
    1.5941    0.1888   -0.3594 C   0  0  0  0  0  0  0  0  0  0  0  0
    3.0472    0.0760   -0.1747 C   0  0  0  0  0  0  0  0  0  0  0  0
    3.6646   -1.1812   -0.0491 C   0  0  0  0  0  0  0  0  0  0  0  0
    5.0468   -1.2929    0.1275 C   0  0  0  0  0  0  0  0  0  0  0  0
    5.8363   -0.1468    0.1832 C   0  0  0  0  0  0  0  0  0  0  0  0
    5.2400    1.1051    0.0607 C   0  0  0  0  0  0  0  0  0  0  0  0
    6.2123    2.5231    0.1325 Cl  0  0  0  0  0  0  0  0  0  0  0  0
    3.8601    1.2207   -0.1174 C   0  0  0  0  0  0  0  0  0  0  0  0
    0.6894   -0.4089    0.5284 C   0  0  0  0  0  0  0  0  0  0  0  0
   -0.6879   -0.2804    0.3276 C   0  0  0  0  0  0  0  0  0  0  0  0
   -1.5447   -0.8724    1.2169 O   0  0  0  0  0  0  0  0  0  0  0  0
   -7.4383   -0.9175    1.2059 H   0  0  0  0  0  0  0  0  0  0  0  0
   -5.2077    1.2914   -0.4403 H   0  0  0  0  0  0  0  0  0  0  0  0
   -5.2026   -0.1952   -1.4470 H   0  0  0  0  0  0  0  0  0  0  0  0
   -3.2084   -0.4510    0.5550 H   0  0  0  0  0  0  0  0  0  0  0  0
    1.6724    1.3830   -2.1668 H   0  0  0  0  0  0  0  0  0  0  0  0
    3.0709   -2.0925   -0.1038 H   0  0  0  0  0  0  0  0  0  0  0  0
    5.5063   -2.2745    0.2167 H   0  0  0  0  0  0  0  0  0  0  0  0
    6.9109   -0.2353    0.3196 H   0  0  0  0  0  0  0  0  0  0  0  0
    3.4173    2.2116   -0.2003 H   0  0  0  0  0  0  0  0  0  0  0  0
    1.0708   -0.9631    1.3822 H   0  0  0  0  0  0  0  0  0  0  0  0
   -1.0361   -1.3102    1.9224 H   0  0  0  0  0  0  0  0  0  0  0  0
  1  2  2  0
  2  3  1  0
  2  4  1  0
  4  5  1  0
  5  6  1  0
  6  7  2  0
  6  8  1  0
  8  9  2  0
  9 10  1  0
 10 11  2  0
 11 12  1  0
 12 13  2  0
 13 14  1  0
 14 15  2  0
 15 16  1  0
 16 17  1  0
 16 18  2  0
 11 19  1  0
 19 20  2  0
 20 21  1  0
 20  8  1  0
 18 12  1  0
  3 22  1  0
  4 23  1  0
  4 24  1  0
  5 25  1  0
 10 26  1  0
 13 27  1  0
 14 28  1  0
 15 29  1  0
 18 30  1  0
 19 31  1  0
 21 32  1  0
M  END
$$$$
