
     RDKit          3D

 52 53  0  0  0  0  0  0  0  0999 V2000
   -3.5167   -3.4611   -0.9576 C   0  0  0  0  0  0  0  0  0  0  0  0
   -2.6348   -2.2475   -0.8497 C   0  0  0  0  0  0  0  0  0  0  0  0
   -1.6887   -1.8728   -1.7260 C   0  0  0  0  0  0  0  0  0  0  0  0
   -1.3216   -2.5969   -2.9930 C   0  0  0  0  0  0  0  0  0  0  0  0
   -0.8892   -0.6345   -1.4981 C   0  0  0  0  0  0  0  0  0  0  0  0
   -0.0674   -0.2838   -2.3409 O   0  0  0  0  0  0  0  0  0  0  0  0
   -1.1039    0.1637   -0.2502 C   0  0  0  0  0  0  0  0  0  0  0  0
   -0.1649    1.3728   -0.1062 C   0  0  0  0  0  0  0  0  0  0  0  0
    0.8130    1.2382    1.0949 C   0  0  0  0  0  0  0  0  0  0  0  0
    1.6855   -0.0279    1.1037 C   0  0  0  0  0  0  0  0  0  0  0  0
    2.7309   -0.0560   -0.0144 C   0  0  0  0  0  0  0  0  0  0  0  0
    3.5698   -1.3377   -0.0235 C   0  0  0  0  0  0  0  0  0  0  0  0
    4.4769   -1.4799    1.1977 C   0  0  0  0  0  0  0  0  0  0  0  0
    5.3791   -2.6790    1.0796 C   0  0  0  0  0  0  0  0  0  0  0  0
    5.3220   -3.5752    0.2560 O   0  0  0  0  0  0  0  0  0  0  0  0
    6.3176   -2.6970    2.0464 O   0  0  0  0  0  0  0  0  0  0  0  0
   -0.9227    2.7038   -0.2005 C   0  0  0  0  0  0  0  0  0  0  0  0
   -0.9623    3.6475    0.8373 C   0  0  0  0  0  0  0  0  0  0  0  0
   -1.6663    4.8463    0.6907 C   0  0  0  0  0  0  0  0  0  0  0  0
   -2.3342    5.1273   -0.4979 C   0  0  0  0  0  0  0  0  0  0  0  0
   -2.2949    4.2126   -1.5453 C   0  0  0  0  0  0  0  0  0  0  0  0
   -1.5927    3.0147   -1.3997 C   0  0  0  0  0  0  0  0  0  0  0  0
   -2.0672   -0.2140    0.6156 C   0  0  0  0  0  0  0  0  0  0  0  0
   -2.4508    0.4842    1.8915 C   0  0  0  0  0  0  0  0  0  0  0  0
   -2.8942   -1.4310    0.3666 C   0  0  0  0  0  0  0  0  0  0  0  0
   -3.7699   -1.7646    1.1607 O   0  0  0  0  0  0  0  0  0  0  0  0
   -4.5710   -3.1637   -0.9769 H   0  0  0  0  0  0  0  0  0  0  0  0
   -3.3593   -4.1211   -0.0975 H   0  0  0  0  0  0  0  0  0  0  0  0
   -3.3412   -4.0589   -1.8529 H   0  0  0  0  0  0  0  0  0  0  0  0
   -0.2648   -2.8853   -2.9714 H   0  0  0  0  0  0  0  0  0  0  0  0
   -1.4860   -1.9488   -3.8607 H   0  0  0  0  0  0  0  0  0  0  0  0
   -1.8943   -3.5090   -3.1652 H   0  0  0  0  0  0  0  0  0  0  0  0
    0.5024    1.4260   -0.9754 H   0  0  0  0  0  0  0  0  0  0  0  0
    0.2638    1.2605    2.0422 H   0  0  0  0  0  0  0  0  0  0  0  0
    1.4786    2.1118    1.1162 H   0  0  0  0  0  0  0  0  0  0  0  0
    1.0592   -0.9255    1.0569 H   0  0  0  0  0  0  0  0  0  0  0  0
    2.1987   -0.0608    2.0720 H   0  0  0  0  0  0  0  0  0  0  0  0
    2.2373    0.0214   -0.9878 H   0  0  0  0  0  0  0  0  0  0  0  0
    3.3910    0.8153    0.0740 H   0  0  0  0  0  0  0  0  0  0  0  0
    4.1873   -1.3374   -0.9311 H   0  0  0  0  0  0  0  0  0  0  0  0
    2.9098   -2.2109   -0.1023 H   0  0  0  0  0  0  0  0  0  0  0  0
    5.1045   -0.5869    1.2933 H   0  0  0  0  0  0  0  0  0  0  0  0
    3.8832   -1.6004    2.1091 H   0  0  0  0  0  0  0  0  0  0  0  0
    6.8264   -3.5155    1.8668 H   0  0  0  0  0  0  0  0  0  0  0  0
   -0.4528    3.4712    1.7806 H   0  0  0  0  0  0  0  0  0  0  0  0
   -1.6902    5.5637    1.5072 H   0  0  0  0  0  0  0  0  0  0  0  0
   -2.8789    6.0609   -0.6099 H   0  0  0  0  0  0  0  0  0  0  0  0
   -2.8054    4.4318   -2.4795 H   0  0  0  0  0  0  0  0  0  0  0  0
   -1.5618    2.3231   -2.2406 H   0  0  0  0  0  0  0  0  0  0  0  0
   -3.5098    0.7653    1.8680 H   0  0  0  0  0  0  0  0  0  0  0  0
   -2.2860   -0.1768    2.7496 H   0  0  0  0  0  0  0  0  0  0  0  0
   -1.8934    1.3979    2.0835 H   0  0  0  0  0  0  0  0  0  0  0  0
  1  2  1  0
  2  3  2  0
  3  4  1  0
  3  5  1  0
  5  6  2  0
  5  7  1  0
  7  8  1  0
  8  9  1  0
  9 10  1  0
 10 11  1  0
 11 12  1  0
 12 13  1  0
 13 14  1  0
 14 15  2  0
 14 16  1  0
  8 17  1  0
 17 18  2  0
 18 19  1  0
 19 20  2  0
 20 21  1  0
 21 22  2  0
  7 23  2  0
 23 24  1  0
 23 25  1  0
 25 26  2  0
 25  2  1  0
 22 17  1  0
  1 27  1  0
  1 28  1  0
  1 29  1  0
  4 30  1  0
  4 31  1  0
  4 32  1  0
  8 33  1  0
  9 34  1  0
  9 35  1  0
 10 36  1  0
 10 37  1  0
 11 38  1  0
 11 39  1  0
 12 40  1  0
 12 41  1  0
 13 42  1  0
 13 43  1  0
 16 44  1  0
 18 45  1  0
 19 46  1  0
 20 47  1  0
 21 48  1  0
 22 49  1  0
 24 50  1  0
 24 51  1  0
 24 52  1  0
M  END
$$$$
