
     RDKit          3D

118125  0  0  0  0  0  0  0  0999 V2000
   10.3617    2.0289   -1.0817 C   0  0  0  0  0  0  0  0  0  0  0  0
   11.4833    1.4457   -0.2280 C   0  0  1  0  0  0  0  0  0  0  0  0
   10.9966    0.8267    0.9797 O   0  0  0  0  0  0  0  0  0  0  0  0
   10.4388   -0.4812    0.8713 C   0  0  1  0  0  0  0  0  0  0  0  0
    9.1217   -0.4247    0.3356 O   0  0  0  0  0  0  0  0  0  0  0  0
    8.0688   -0.4283    1.3285 C   0  0  1  0  0  0  0  0  0  0  0  0
    7.3995    0.9492    1.3834 C   0  0  1  0  0  0  0  0  0  0  0  0
    8.3374    1.9795    1.7011 O   0  0  0  0  0  0  0  0  0  0  0  0
    6.7180    1.2656    0.0596 C   0  0  0  0  0  0  0  0  0  0  0  0
    5.7477    0.1564   -0.3369 C   0  0  2  0  0  0  0  0  0  0  0  0
    4.5868    0.2272    0.4839 O   0  0  0  0  0  0  0  0  0  0  0  0
    3.3545   -0.0655   -0.1984 C   0  0  1  0  0  0  0  0  0  0  0  0
    3.2503   -1.4918   -0.7580 C   0  0  1  0  0  0  0  0  0  0  0  0
    3.3472   -2.4839    0.2608 O   0  0  0  0  0  0  0  0  0  0  0  0
    1.9106   -1.6108   -1.4552 C   0  0  0  0  0  0  0  0  0  0  0  0
    0.7334   -1.2452   -0.5432 C   0  0  2  0  0  0  0  0  0  0  0  0
   -0.1575   -0.3967   -1.2731 O   0  0  0  0  0  0  0  0  0  0  0  0
   -1.5099   -0.4456   -0.8005 C   0  0  1  0  0  0  0  0  0  0  0  0
   -1.7501    0.5752    0.3069 C   0  0  0  0  0  0  0  0  0  0  0  0
   -3.2038    0.5592    0.7613 C   0  0  0  0  0  0  0  0  0  0  0  0
   -4.2495    0.7881   -0.3687 C   0  0  2  0  0  0  0  0  0  0  0  0
   -4.1751    2.2704   -0.8126 C   0  0  0  0  0  0  0  0  0  0  0  0
   -5.6734    0.4129    0.2393 C   0  0  1  0  0  0  0  0  0  0  0  0
   -6.3169    1.5738    1.0161 C   0  0  0  0  0  0  0  0  0  0  0  0
   -7.6708    1.2036    1.6059 C   0  0  0  0  0  0  0  0  0  0  0  0
   -8.6900    0.7056    0.5413 C   0  0  2  0  0  0  0  0  0  0  0  0
   -9.1081    1.9041   -0.3329 C   0  0  0  0  0  0  0  0  0  0  0  0
   -9.8928    0.0466    1.3075 C   0  0  1  0  0  0  0  0  0  0  0  0
  -11.2923    0.2195    0.7742 C   0  0  0  0  0  0  0  0  0  0  0  0
  -12.2687    0.8777    1.4008 C   0  0  0  0  0  0  0  0  0  0  0  0
  -13.4686    0.7638    0.5777 C   0  0  0  0  0  0  0  0  0  0  0  0
  -14.5496    1.2486    0.8562 O   0  0  0  0  0  0  0  0  0  0  0  0
  -13.1834    0.0247   -0.5252 O   0  0  0  0  0  0  0  0  0  0  0  0
  -11.8047   -0.3541   -0.4954 C   0  0  0  0  0  0  0  0  0  0  0  0
   -9.5109   -1.4422    1.4523 C   0  0  0  0  0  0  0  0  0  0  0  0
   -8.1868   -1.6475    0.7142 C   0  0  0  0  0  0  0  0  0  0  0  0
   -8.0743   -0.4688   -0.2682 C   0  0  1  0  0  0  0  0  0  0  0  0
   -8.9229   -0.7681   -1.3844 O   0  0  0  0  0  0  0  0  0  0  0  0
   -6.6392   -0.1874   -0.8109 C   0  0  2  0  0  0  0  0  0  0  0  0
   -6.0263   -1.4500   -1.4750 C   0  0  0  0  0  0  0  0  0  0  0  0
   -4.4968   -1.4891   -1.4787 C   0  0  0  0  0  0  0  0  0  0  0  0
   -3.9196   -0.0829   -1.6267 C   0  0  2  0  0  0  0  0  0  0  0  0
   -2.4210   -0.1262   -1.9861 C   0  0  0  0  0  0  0  0  0  0  0  0
    1.0928   -0.6947    0.7115 O   0  0  0  0  0  0  0  0  0  0  0  0
    2.1822    0.2280    0.7621 C   0  0  2  0  0  0  0  0  0  0  0  0
    1.6658    1.6553    0.5807 C   0  0  0  0  0  0  0  0  0  0  0  0
    6.3454   -1.1395   -0.3068 O   0  0  0  0  0  0  0  0  0  0  0  0
    7.0467   -1.4947    0.8938 C   0  0  2  0  0  0  0  0  0  0  0  0
    6.1064   -1.8943    2.0280 C   0  0  0  0  0  0  0  0  0  0  0  0
   11.2799   -1.4524    0.0490 C   0  0  0  0  0  0  0  0  0  0  0  0
   11.7028   -0.8350   -1.2722 C   0  0  2  0  0  0  0  0  0  0  0  0
   12.5666   -1.7336   -1.9701 O   0  0  0  0  0  0  0  0  0  0  0  0
   12.4047    0.5088   -1.0218 C   0  0  2  0  0  0  0  0  0  0  0  0
   13.6171    0.3200   -0.2693 O   0  0  0  0  0  0  0  0  0  0  0  0
    9.6904    1.2605   -1.4724 H   0  0  0  0  0  0  0  0  0  0  0  0
   10.7740    2.5792   -1.9333 H   0  0  0  0  0  0  0  0  0  0  0  0
    9.7511    2.7206   -0.4935 H   0  0  0  0  0  0  0  0  0  0  0  0
   12.0875    2.2910    0.1255 H   0  0  0  0  0  0  0  0  0  0  0  0
   10.4143   -0.8903    1.8877 H   0  0  0  0  0  0  0  0  0  0  0  0
    8.4731   -0.6772    2.3170 H   0  0  0  0  0  0  0  0  0  0  0  0
    6.6502    0.9618    2.1834 H   0  0  0  0  0  0  0  0  0  0  0  0
    9.2286    1.6675    1.4430 H   0  0  0  0  0  0  0  0  0  0  0  0
    6.1975    2.2271    0.1352 H   0  0  0  0  0  0  0  0  0  0  0  0
    7.4784    1.3843   -0.7200 H   0  0  0  0  0  0  0  0  0  0  0  0
    5.4644    0.3444   -1.3790 H   0  0  0  0  0  0  0  0  0  0  0  0
    3.2879    0.6343   -1.0441 H   0  0  0  0  0  0  0  0  0  0  0  0
    4.0589   -1.6793   -1.4738 H   0  0  0  0  0  0  0  0  0  0  0  0
    3.6309   -3.3155   -0.1667 H   0  0  0  0  0  0  0  0  0  0  0  0
    1.7662   -2.6389   -1.8141 H   0  0  0  0  0  0  0  0  0  0  0  0
    1.9011   -0.9802   -2.3530 H   0  0  0  0  0  0  0  0  0  0  0  0
    0.2138   -2.1868   -0.3221 H   0  0  0  0  0  0  0  0  0  0  0  0
   -1.7507   -1.4539   -0.4423 H   0  0  0  0  0  0  0  0  0  0  0  0
   -1.1169    0.3559    1.1724 H   0  0  0  0  0  0  0  0  0  0  0  0
   -1.4584    1.5773   -0.0293 H   0  0  0  0  0  0  0  0  0  0  0  0
   -3.3843   -0.4136    1.2389 H   0  0  0  0  0  0  0  0  0  0  0  0
   -3.3360    1.3097    1.5512 H   0  0  0  0  0  0  0  0  0  0  0  0
   -4.9819    2.5141   -1.5134 H   0  0  0  0  0  0  0  0  0  0  0  0
   -3.2321    2.5062   -1.3138 H   0  0  0  0  0  0  0  0  0  0  0  0
   -4.2481    2.9548    0.0381 H   0  0  0  0  0  0  0  0  0  0  0  0
   -5.5091   -0.3877    0.9758 H   0  0  0  0  0  0  0  0  0  0  0  0
   -5.6546    1.8850    1.8334 H   0  0  0  0  0  0  0  0  0  0  0  0
   -6.4457    2.4497    0.3723 H   0  0  0  0  0  0  0  0  0  0  0  0
   -8.0785    2.0807    2.1260 H   0  0  0  0  0  0  0  0  0  0  0  0
   -7.5123    0.4479    2.3851 H   0  0  0  0  0  0  0  0  0  0  0  0
   -9.5772    2.6848    0.2771 H   0  0  0  0  0  0  0  0  0  0  0  0
   -8.2537    2.3548   -0.8458 H   0  0  0  0  0  0  0  0  0  0  0  0
   -9.8162    1.6288   -1.1177 H   0  0  0  0  0  0  0  0  0  0  0  0
   -9.9088    0.4682    2.3232 H   0  0  0  0  0  0  0  0  0  0  0  0
  -12.2487    1.3961    2.3429 H   0  0  0  0  0  0  0  0  0  0  0  0
  -11.3252    0.0577   -1.3828 H   0  0  0  0  0  0  0  0  0  0  0  0
  -11.7496   -1.4444   -0.5196 H   0  0  0  0  0  0  0  0  0  0  0  0
   -9.3940   -1.7112    2.5092 H   0  0  0  0  0  0  0  0  0  0  0  0
  -10.2743   -2.1165    1.0493 H   0  0  0  0  0  0  0  0  0  0  0  0
   -8.2061   -2.6216    0.2115 H   0  0  0  0  0  0  0  0  0  0  0  0
   -7.3627   -1.6622    1.4373 H   0  0  0  0  0  0  0  0  0  0  0  0
   -8.5699   -1.5540   -1.8339 H   0  0  0  0  0  0  0  0  0  0  0  0
   -6.7448    0.5573   -1.6132 H   0  0  0  0  0  0  0  0  0  0  0  0
   -6.3819   -1.4951   -2.5130 H   0  0  0  0  0  0  0  0  0  0  0  0
   -6.3717   -2.3749   -1.0024 H   0  0  0  0  0  0  0  0  0  0  0  0
   -4.1404   -1.9567   -0.5534 H   0  0  0  0  0  0  0  0  0  0  0  0
   -4.1667   -2.1386   -2.2994 H   0  0  0  0  0  0  0  0  0  0  0  0
   -4.4195    0.3606   -2.5010 H   0  0  0  0  0  0  0  0  0  0  0  0
   -2.2430   -0.8569   -2.7877 H   0  0  0  0  0  0  0  0  0  0  0  0
   -2.1200    0.8373   -2.4193 H   0  0  0  0  0  0  0  0  0  0  0  0
    2.5533    0.1705    1.7942 H   0  0  0  0  0  0  0  0  0  0  0  0
    1.2652    1.8043   -0.4256 H   0  0  0  0  0  0  0  0  0  0  0  0
    2.4639    2.3831    0.7482 H   0  0  0  0  0  0  0  0  0  0  0  0
    0.8554    1.8651    1.2856 H   0  0  0  0  0  0  0  0  0  0  0  0
    7.6075   -2.3998    0.6263 H   0  0  0  0  0  0  0  0  0  0  0  0
    5.4936   -1.0642    2.3831 H   0  0  0  0  0  0  0  0  0  0  0  0
    5.4276   -2.6840    1.6970 H   0  0  0  0  0  0  0  0  0  0  0  0
    6.6728   -2.2771    2.8848 H   0  0  0  0  0  0  0  0  0  0  0  0
   12.1748   -1.7378    0.6155 H   0  0  0  0  0  0  0  0  0  0  0  0
   10.7268   -2.3820   -0.1368 H   0  0  0  0  0  0  0  0  0  0  0  0
   10.8255   -0.6807   -1.9113 H   0  0  0  0  0  0  0  0  0  0  0  0
   12.0629   -2.5415   -2.1633 H   0  0  0  0  0  0  0  0  0  0  0  0
   12.7040    0.9591   -1.9735 H   0  0  0  0  0  0  0  0  0  0  0  0
   13.3778    0.2123    0.6664 H   0  0  0  0  0  0  0  0  0  0  0  0
  1  2  1  0
  2  3  1  0
  3  4  1  0
  4  5  1  0
  5  6  1  0
  6  7  1  0
  7  8  1  0
  7  9  1  0
  9 10  1  0
 10 11  1  0
 11 12  1  0
 12 13  1  0
 13 14  1  0
 13 15  1  0
 15 16  1  0
 16 17  1  0
 17 18  1  0
 18 19  1  0
 19 20  1  0
 20 21  1  0
 21 22  1  6
 21 23  1  0
 23 24  1  0
 24 25  1  0
 25 26  1  0
 26 27  1  6
 26 28  1  0
 28 29  1  0
 29 30  2  0
 30 31  1  0
 31 32  2  0
 31 33  1  0
 33 34  1  0
 28 35  1  0
 35 36  1  0
 36 37  1  0
 37 38  1  6
 37 39  1  0
 39 40  1  0
 40 41  1  0
 41 42  1  0
 42 43  1  0
 16 44  1  0
 44 45  1  0
 45 46  1  0
 10 47  1  0
 47 48  1  0
 48 49  1  0
  4 50  1  0
 50 51  1  0
 51 52  1  0
 51 53  1  0
 53 54  1  0
 53  2  1  0
 48  6  1  0
 45 12  1  0
 43 18  1  0
 42 21  1  0
 39 23  1  0
 37 26  1  0
 34 29  1  0
  1 55  1  0
  1 56  1  0
  1 57  1  0
  2 58  1  1
  4 59  1  1
  6 60  1  1
  7 61  1  1
  8 62  1  0
  9 63  1  0
  9 64  1  0
 10 65  1  6
 12 66  1  6
 13 67  1  6
 14 68  1  0
 15 69  1  0
 15 70  1  0
 16 71  1  1
 18 72  1  1
 19 73  1  0
 19 74  1  0
 20 75  1  0
 20 76  1  0
 22 77  1  0
 22 78  1  0
 22 79  1  0
 23 80  1  1
 24 81  1  0
 24 82  1  0
 25 83  1  0
 25 84  1  0
 27 85  1  0
 27 86  1  0
 27 87  1  0
 28 88  1  1
 30 89  1  0
 34 90  1  0
 34 91  1  0
 35 92  1  0
 35 93  1  0
 36 94  1  0
 36 95  1  0
 38 96  1  0
 39 97  1  6
 40 98  1  0
 40 99  1  0
 41100  1  0
 41101  1  0
 42102  1  6
 43103  1  0
 43104  1  0
 45105  1  1
 46106  1  0
 46107  1  0
 46108  1  0
 48109  1  6
 49110  1  0
 49111  1  0
 49112  1  0
 50113  1  0
 50114  1  0
 51115  1  6
 52116  1  0
 53117  1  6
 54118  1  0
M  END
$$$$
