
     RDKit          3D

 65 65  0  0  0  0  0  0  0  0999 V2000
  -11.3842    1.1577    0.4694 C   0  0  0  0  0  0  0  0  0  0  0  0
  -10.0778    0.4625    0.8186 C   0  0  0  0  0  0  0  0  0  0  0  0
   -8.9252    0.9669   -0.0494 C   0  0  0  0  0  0  0  0  0  0  0  0
   -7.6114    0.2687    0.3093 C   0  0  0  0  0  0  0  0  0  0  0  0
   -6.4590    0.7761   -0.5604 C   0  0  0  0  0  0  0  0  0  0  0  0
   -5.0994    0.1847   -0.1747 C   0  0  0  0  0  0  0  0  0  0  0  0
   -5.0059   -1.3261   -0.4154 C   0  0  0  0  0  0  0  0  0  0  0  0
   -3.5890   -1.8765   -0.2195 C   0  0  0  0  0  0  0  0  0  0  0  0
   -3.1205   -1.7960    1.2066 C   0  0  0  0  0  0  0  0  0  0  0  0
   -2.1132   -1.0549    1.6961 C   0  0  0  0  0  0  0  0  0  0  0  0
   -1.2407   -0.0893    0.9452 C   0  0  0  0  0  0  0  0  0  0  0  0
    0.1825   -0.6322    0.7921 C   0  0  0  0  0  0  0  0  0  0  0  0
    1.0723    0.3569    0.0346 C   0  0  0  0  0  0  0  0  0  0  0  0
    2.4837   -0.1744   -0.2392 C   0  0  0  0  0  0  0  0  0  0  0  0
    3.3242   -0.3422    1.0294 C   0  0  0  0  0  0  0  0  0  0  0  0
    4.7396   -0.8604    0.7563 C   0  0  0  0  0  0  0  0  0  0  0  0
    5.6154    0.1311   -0.0097 C   0  0  0  0  0  0  0  0  0  0  0  0
    7.0613   -0.3359   -0.1207 C   0  0  0  0  0  0  0  0  0  0  0  0
    7.4306   -1.4238    0.3054 O   0  0  0  0  0  0  0  0  0  0  0  0
    7.8475    0.6153   -0.7532 N   0  0  0  0  0  0  0  0  0  0  0  0
    9.2294    0.5463   -1.0270 C   0  0  0  0  0  0  0  0  0  0  0  0
   10.0398   -0.5408   -0.6963 C   0  0  0  0  0  0  0  0  0  0  0  0
   11.4051   -0.5272   -1.0013 C   0  0  0  0  0  0  0  0  0  0  0  0
   11.9716    0.5732   -1.6391 C   0  0  0  0  0  0  0  0  0  0  0  0
   11.1727    1.6625   -1.9745 C   0  0  0  0  0  0  0  0  0  0  0  0
    9.8087    1.6485   -1.6702 C   0  0  0  0  0  0  0  0  0  0  0  0
  -11.6592    0.9754   -0.5743 H   0  0  0  0  0  0  0  0  0  0  0  0
  -11.3059    2.2389    0.6205 H   0  0  0  0  0  0  0  0  0  0  0  0
  -12.1936    0.7840    1.1040 H   0  0  0  0  0  0  0  0  0  0  0  0
  -10.1991   -0.6188    0.6851 H   0  0  0  0  0  0  0  0  0  0  0  0
   -9.8504    0.6351    1.8770 H   0  0  0  0  0  0  0  0  0  0  0  0
   -8.8139    2.0499    0.0810 H   0  0  0  0  0  0  0  0  0  0  0  0
   -9.1573    0.7907   -1.1066 H   0  0  0  0  0  0  0  0  0  0  0  0
   -7.7343   -0.8121    0.1780 H   0  0  0  0  0  0  0  0  0  0  0  0
   -7.3790    0.4445    1.3663 H   0  0  0  0  0  0  0  0  0  0  0  0
   -6.3952    1.8677   -0.4688 H   0  0  0  0  0  0  0  0  0  0  0  0
   -6.6674    0.5602   -1.6154 H   0  0  0  0  0  0  0  0  0  0  0  0
   -4.3278    0.6906   -0.7683 H   0  0  0  0  0  0  0  0  0  0  0  0
   -4.8912    0.4142    0.8767 H   0  0  0  0  0  0  0  0  0  0  0  0
   -5.6964   -1.8578    0.2501 H   0  0  0  0  0  0  0  0  0  0  0  0
   -5.3215   -1.5470   -1.4426 H   0  0  0  0  0  0  0  0  0  0  0  0
   -2.9005   -1.3760   -0.9075 H   0  0  0  0  0  0  0  0  0  0  0  0
   -3.5831   -2.9347   -0.5103 H   0  0  0  0  0  0  0  0  0  0  0  0
   -3.6593   -2.4370    1.9045 H   0  0  0  0  0  0  0  0  0  0  0  0
   -1.8986   -1.1374    2.7616 H   0  0  0  0  0  0  0  0  0  0  0  0
   -1.6570    0.1511   -0.0381 H   0  0  0  0  0  0  0  0  0  0  0  0
   -1.2178    0.8549    1.5035 H   0  0  0  0  0  0  0  0  0  0  0  0
    0.6016   -0.8313    1.7853 H   0  0  0  0  0  0  0  0  0  0  0  0
    0.1580   -1.5882    0.2539 H   0  0  0  0  0  0  0  0  0  0  0  0
    1.1353    1.3009    0.5898 H   0  0  0  0  0  0  0  0  0  0  0  0
    0.6034    0.5891   -0.9300 H   0  0  0  0  0  0  0  0  0  0  0  0
    2.4204   -1.1307   -0.7726 H   0  0  0  0  0  0  0  0  0  0  0  0
    2.9780    0.5335   -0.9141 H   0  0  0  0  0  0  0  0  0  0  0  0
    3.3800    0.6122    1.5668 H   0  0  0  0  0  0  0  0  0  0  0  0
    2.8351   -1.0562    1.7014 H   0  0  0  0  0  0  0  0  0  0  0  0
    4.6881   -1.8108    0.2103 H   0  0  0  0  0  0  0  0  0  0  0  0
    5.2112   -1.0847    1.7219 H   0  0  0  0  0  0  0  0  0  0  0  0
    5.6069    1.1022    0.4998 H   0  0  0  0  0  0  0  0  0  0  0  0
    5.2329    0.2696   -1.0271 H   0  0  0  0  0  0  0  0  0  0  0  0
    7.3820    1.4637   -1.0488 H   0  0  0  0  0  0  0  0  0  0  0  0
    9.6421   -1.4196   -0.1993 H   0  0  0  0  0  0  0  0  0  0  0  0
   12.0233   -1.3817   -0.7371 H   0  0  0  0  0  0  0  0  0  0  0  0
   13.0328    0.5797   -1.8733 H   0  0  0  0  0  0  0  0  0  0  0  0
   11.6099    2.5237   -2.4726 H   0  0  0  0  0  0  0  0  0  0  0  0
    9.2095    2.5129   -1.9430 H   0  0  0  0  0  0  0  0  0  0  0  0
  1  2  1  0
  2  3  1  0
  3  4  1  0
  4  5  1  0
  5  6  1  0
  6  7  1  0
  7  8  1  0
  8  9  1  0
  9 10  2  0
 10 11  1  0
 11 12  1  0
 12 13  1  0
 13 14  1  0
 14 15  1  0
 15 16  1  0
 16 17  1  0
 17 18  1  0
 18 19  2  0
 18 20  1  0
 20 21  1  0
 21 22  2  0
 22 23  1  0
 23 24  2  0
 24 25  1  0
 25 26  2  0
 26 21  1  0
  1 27  1  0
  1 28  1  0
  1 29  1  0
  2 30  1  0
  2 31  1  0
  3 32  1  0
  3 33  1  0
  4 34  1  0
  4 35  1  0
  5 36  1  0
  5 37  1  0
  6 38  1  0
  6 39  1  0
  7 40  1  0
  7 41  1  0
  8 42  1  0
  8 43  1  0
  9 44  1  0
 10 45  1  0
 11 46  1  0
 11 47  1  0
 12 48  1  0
 12 49  1  0
 13 50  1  0
 13 51  1  0
 14 52  1  0
 14 53  1  0
 15 54  1  0
 15 55  1  0
 16 56  1  0
 16 57  1  0
 17 58  1  0
 17 59  1  0
 20 60  1  0
 22 61  1  0
 23 62  1  0
 24 63  1  0
 25 64  1  0
 26 65  1  0
M  END
$$$$
