
     RDKit          3D

 30 31  0  0  0  0  0  0  0  0999 V2000
    1.4820    1.9064   -1.5740 O   0  0  0  0  0  0  0  0  0  0  0  0
    0.9762    0.9813   -0.9373 C   0  0  0  0  0  0  0  0  0  0  0  0
   -0.5350    0.8409   -0.9517 C   0  0  0  0  0  0  0  0  0  0  0  0
   -1.1892   -0.1617   -0.0311 C   0  0  0  0  0  0  0  0  0  0  0  0
   -0.5381   -0.9726    0.6287 O   0  0  0  0  0  0  0  0  0  0  0  0
   -2.6817   -0.1757    0.0672 C   0  0  0  0  0  0  0  0  0  0  0  0
   -3.4968    0.5759   -0.7895 C   0  0  0  0  0  0  0  0  0  0  0  0
   -4.8879    0.5244   -0.6587 C   0  0  0  0  0  0  0  0  0  0  0  0
   -5.4713   -0.2733    0.3253 C   0  0  0  0  0  0  0  0  0  0  0  0
   -4.6672   -1.0229    1.1817 C   0  0  0  0  0  0  0  0  0  0  0  0
   -3.2776   -0.9762    1.0535 C   0  0  0  0  0  0  0  0  0  0  0  0
    1.6744    0.0329   -0.2273 N   0  0  0  0  0  0  0  0  0  0  0  0
    3.0716   -0.0970   -0.0889 C   0  0  0  0  0  0  0  0  0  0  0  0
    4.0096    0.7244   -0.7067 C   0  0  0  0  0  0  0  0  0  0  0  0
    5.3715    0.4960   -0.5034 C   0  0  0  0  0  0  0  0  0  0  0  0
    5.7544   -0.5528    0.3156 C   0  0  0  0  0  0  0  0  0  0  0  0
    4.8813   -1.3717    0.9360 N   0  0  0  0  0  0  0  0  0  0  0  0
    3.5669   -1.1255    0.7149 C   0  0  0  0  0  0  0  0  0  0  0  0
   -0.8120    0.5890   -1.9817 H   0  0  0  0  0  0  0  0  0  0  0  0
   -0.9309    1.8314   -0.6978 H   0  0  0  0  0  0  0  0  0  0  0  0
   -3.0842    1.2060   -1.5725 H   0  0  0  0  0  0  0  0  0  0  0  0
   -5.5196    1.1050   -1.3275 H   0  0  0  0  0  0  0  0  0  0  0  0
   -6.5542   -0.3121    0.4235 H   0  0  0  0  0  0  0  0  0  0  0  0
   -5.1221   -1.6488    1.9458 H   0  0  0  0  0  0  0  0  0  0  0  0
   -2.6633   -1.5691    1.7296 H   0  0  0  0  0  0  0  0  0  0  0  0
    1.1115   -0.6505    0.2843 H   0  0  0  0  0  0  0  0  0  0  0  0
    3.7183    1.5452   -1.3527 H   0  0  0  0  0  0  0  0  0  0  0  0
    6.1150    1.1259   -0.9784 H   0  0  0  0  0  0  0  0  0  0  0  0
    6.8030   -0.7684    0.4968 H   0  0  0  0  0  0  0  0  0  0  0  0
    2.8954   -1.8063    1.2315 H   0  0  0  0  0  0  0  0  0  0  0  0
  1  2  2  0
  2  3  1  0
  3  4  1  0
  4  5  2  0
  4  6  1  0
  6  7  2  0
  7  8  1  0
  8  9  2  0
  9 10  1  0
 10 11  2  0
  2 12  1  0
 12 13  1  0
 13 14  2  0
 14 15  1  0
 15 16  2  0
 16 17  1  0
 17 18  2  0
 11  6  1  0
 18 13  1  0
  3 19  1  0
  3 20  1  0
  7 21  1  0
  8 22  1  0
  9 23  1  0
 10 24  1  0
 11 25  1  0
 12 26  1  0
 14 27  1  0
 15 28  1  0
 16 29  1  0
 18 30  1  0
M  END
$$$$
