
     RDKit          3D

 42 45  0  0  0  0  0  0  0  0999 V2000
    1.1872    0.6459    1.9338 O   0  0  0  0  0  0  0  0  0  0  0  0
    0.9282   -0.2408    1.1213 C   0  0  0  0  0  0  0  0  0  0  0  0
   -0.3999   -0.4136    0.5828 C   0  0  0  0  0  0  0  0  0  0  0  0
   -1.5847    0.2579    0.8267 C   0  0  0  0  0  0  0  0  0  0  0  0
   -1.8036    1.3502    1.8118 C   0  0  0  0  0  0  0  0  0  0  0  0
   -0.9383    2.4540    1.5740 O   0  0  0  0  0  0  0  0  0  0  0  0
   -2.5195   -0.3595   -0.0562 C   0  0  0  0  0  0  0  0  0  0  0  0
   -3.9272   -0.0292   -0.2702 C   0  0  0  0  0  0  0  0  0  0  0  0
   -4.8963   -1.0414   -0.2600 C   0  0  0  0  0  0  0  0  0  0  0  0
   -6.2435   -0.7335   -0.4622 C   0  0  0  0  0  0  0  0  0  0  0  0
   -6.6309    0.5871   -0.6841 C   0  0  0  0  0  0  0  0  0  0  0  0
   -5.6728    1.5995   -0.7112 C   0  0  0  0  0  0  0  0  0  0  0  0
   -4.3249    1.2930   -0.5093 C   0  0  0  0  0  0  0  0  0  0  0  0
   -1.9566   -1.3770   -0.7269 N   0  0  0  0  0  0  0  0  0  0  0  0
   -0.6620   -1.3847   -0.3515 N   0  0  0  0  0  0  0  0  0  0  0  0
    0.3392   -2.2374   -0.7896 C   0  0  0  0  0  0  0  0  0  0  0  0
    1.5820   -2.1231   -0.3052 C   0  0  0  0  0  0  0  0  0  0  0  0
    1.8901   -1.1508    0.6415 N   0  0  0  0  0  0  0  0  0  0  0  0
    3.2660   -1.0337    1.1247 C   0  0  0  0  0  0  0  0  0  0  0  0
    4.1619   -0.3116    0.1443 C   0  0  0  0  0  0  0  0  0  0  0  0
    5.0786   -1.0213   -0.6489 C   0  0  0  0  0  0  0  0  0  0  0  0
    5.8964   -0.3524   -1.5642 C   0  0  0  0  0  0  0  0  0  0  0  0
    5.8051    1.0316   -1.6969 C   0  0  0  0  0  0  0  0  0  0  0  0
    4.8981    1.7355   -0.9144 C   0  0  0  0  0  0  0  0  0  0  0  0
    4.8121    3.0659   -1.0425 F   0  0  0  0  0  0  0  0  0  0  0  0
    4.0790    1.0810   -0.0002 C   0  0  0  0  0  0  0  0  0  0  0  0
   -2.8296    1.7245    1.7906 H   0  0  0  0  0  0  0  0  0  0  0  0
   -1.6224    0.9835    2.8285 H   0  0  0  0  0  0  0  0  0  0  0  0
   -0.0371    2.1327    1.7845 H   0  0  0  0  0  0  0  0  0  0  0  0
   -4.6020   -2.0760   -0.0974 H   0  0  0  0  0  0  0  0  0  0  0  0
   -6.9878   -1.5254   -0.4519 H   0  0  0  0  0  0  0  0  0  0  0  0
   -7.6790    0.8263   -0.8451 H   0  0  0  0  0  0  0  0  0  0  0  0
   -5.9727    2.6278   -0.8968 H   0  0  0  0  0  0  0  0  0  0  0  0
   -3.5887    2.0931   -0.5546 H   0  0  0  0  0  0  0  0  0  0  0  0
    0.0493   -2.9734   -1.5278 H   0  0  0  0  0  0  0  0  0  0  0  0
    2.3836   -2.7761   -0.6372 H   0  0  0  0  0  0  0  0  0  0  0  0
    3.2914   -0.5064    2.0860 H   0  0  0  0  0  0  0  0  0  0  0  0
    3.6489   -2.0423    1.3277 H   0  0  0  0  0  0  0  0  0  0  0  0
    5.1642   -2.1024   -0.5598 H   0  0  0  0  0  0  0  0  0  0  0  0
    6.6036   -0.9102   -2.1730 H   0  0  0  0  0  0  0  0  0  0  0  0
    6.4326    1.5659   -2.4029 H   0  0  0  0  0  0  0  0  0  0  0  0
    3.3819    1.6670    0.5933 H   0  0  0  0  0  0  0  0  0  0  0  0
  1  2  2  0
  2  3  1  0
  3  4  2  0
  4  5  1  0
  5  6  1  0
  4  7  1  0
  7  8  1  0
  8  9  2  0
  9 10  1  0
 10 11  2  0
 11 12  1  0
 12 13  2  0
  7 14  2  0
 14 15  1  0
 15 16  1  0
 16 17  2  0
 17 18  1  0
 18 19  1  0
 19 20  1  0
 20 21  2  0
 21 22  1  0
 22 23  2  0
 23 24  1  0
 24 25  1  0
 24 26  2  0
 18  2  1  0
 26 20  1  0
 15  3  1  0
 13  8  1  0
  5 27  1  0
  5 28  1  0
  6 29  1  0
  9 30  1  0
 10 31  1  0
 11 32  1  0
 12 33  1  0
 13 34  1  0
 16 35  1  0
 17 36  1  0
 19 37  1  0
 19 38  1  0
 21 39  1  0
 22 40  1  0
 23 41  1  0
 26 42  1  0
M  END
$$$$
