
     RDKit          3D

 21 21  0  0  0  0  0  0  0  0999 V2000
    2.8506    0.5734   -0.9463 O   0  0  0  0  0  0  0  0  0  0  0  0
    2.4715   -0.1222   -0.0156 C   0  0  0  0  0  0  0  0  0  0  0  0
    3.2799   -0.3548    1.0386 O   0  0  0  0  0  0  0  0  0  0  0  0
    1.1042   -0.7742    0.1145 C   0  0  0  0  0  0  0  0  0  0  0  0
    0.1634    0.0808    0.8681 N   0  0  0  0  0  0  0  0  0  0  0  0
   -0.2045    1.3155    0.1361 C   0  0  0  0  0  0  0  0  0  0  0  0
   -1.1533    1.0851   -1.0530 C   0  0  0  0  0  0  0  0  0  0  0  0
   -2.3401    0.3924   -0.6459 O   0  0  0  0  0  0  0  0  0  0  0  0
   -2.0155   -0.8549   -0.0216 C   0  0  0  0  0  0  0  0  0  0  0  0
   -1.0824   -0.6523    1.1850 C   0  0  0  0  0  0  0  0  0  0  0  0
    4.0811    0.1741    0.8464 H   0  0  0  0  0  0  0  0  0  0  0  0
    0.7503   -1.0284   -0.8906 H   0  0  0  0  0  0  0  0  0  0  0  0
    1.2561   -1.7276    0.6367 H   0  0  0  0  0  0  0  0  0  0  0  0
    0.6834    1.8662   -0.1907 H   0  0  0  0  0  0  0  0  0  0  0  0
   -0.7120    1.9733    0.8542 H   0  0  0  0  0  0  0  0  0  0  0  0
   -1.4638    2.0501   -1.4666 H   0  0  0  0  0  0  0  0  0  0  0  0
   -0.6672    0.5245   -1.8591 H   0  0  0  0  0  0  0  0  0  0  0  0
   -1.5742   -1.5265   -0.7666 H   0  0  0  0  0  0  0  0  0  0  0  0
   -2.9541   -1.3083    0.3129 H   0  0  0  0  0  0  0  0  0  0  0  0
   -1.6202   -0.0685    1.9433 H   0  0  0  0  0  0  0  0  0  0  0  0
   -0.8533   -1.6176    1.6517 H   0  0  0  0  0  0  0  0  0  0  0  0
  1  2  2  0
  2  3  1  0
  2  4  1  0
  4  5  1  0
  5  6  1  0
  6  7  1  0
  7  8  1  0
  8  9  1  0
  9 10  1  0
 10  5  1  0
  3 11  1  0
  4 12  1  0
  4 13  1  0
  6 14  1  0
  6 15  1  0
  7 16  1  0
  7 17  1  0
  9 18  1  0
  9 19  1  0
 10 20  1  0
 10 21  1  0
M  END
$$$$
