
     RDKit          3D

 69 72  0  0  0  0  0  0  0  0999 V2000
    7.4504   -4.4496   -0.8780 C   0  0  0  0  0  0  0  0  0  0  0  0
    7.1742   -3.0604   -0.9978 O   0  0  0  0  0  0  0  0  0  0  0  0
    5.8549   -2.6900   -1.0242 C   0  0  0  0  0  0  0  0  0  0  0  0
    4.7649   -3.5538   -0.9186 C   0  0  0  0  0  0  0  0  0  0  0  0
    3.4515   -3.0604   -0.9504 C   0  0  0  0  0  0  0  0  0  0  0  0
    3.2314   -1.6778   -1.0900 C   0  0  0  0  0  0  0  0  0  0  0  0
    2.0785   -0.8546   -1.1555 C   0  0  0  0  0  0  0  0  0  0  0  0
    2.4898    0.4542   -1.2847 C   0  0  0  0  0  0  0  0  0  0  0  0
    3.8602    0.4540   -1.3354 N   0  0  0  0  0  0  0  0  0  0  0  0
    4.3358   -0.8327   -1.2003 C   0  0  0  0  0  0  0  0  0  0  0  0
    5.6516   -1.3111   -1.1697 C   0  0  0  0  0  0  0  0  0  0  0  0
    1.6259    1.6737   -1.3970 C   0  0  2  0  0  0  0  0  0  0  0  0
    1.9723    2.7339   -0.3164 C   0  0  0  0  0  0  0  0  0  0  0  0
    1.4641    2.4732    1.1217 C   0  0  0  0  0  0  0  0  0  0  0  0
    2.2368    1.3740    1.8500 C   0  0  0  0  0  0  0  0  0  0  0  0
    1.5584    3.7707    1.9351 C   0  0  0  0  0  0  0  0  0  0  0  0
    0.1915    1.2881   -1.3869 N   0  0  0  0  0  0  0  0  0  0  0  0
   -0.7160    2.2946   -1.7648 C   0  0  0  0  0  0  0  0  0  0  0  0
   -0.3824    3.4343   -2.0823 O   0  0  0  0  0  0  0  0  0  0  0  0
   -2.1907    1.9481   -1.4748 C   0  0  2  0  0  0  0  0  0  0  0  0
   -2.4485    2.1713    0.0291 C   0  0  0  0  0  0  0  0  0  0  0  0
   -3.9235    2.3399    0.3822 C   0  0  0  0  0  0  0  0  0  0  0  0
   -4.6730    1.0379    0.2836 C   0  0  0  0  0  0  0  0  0  0  0  0
   -5.1453    0.6236   -0.7665 O   0  0  0  0  0  0  0  0  0  0  0  0
   -4.6771    0.4037    1.4820 O   0  0  0  0  0  0  0  0  0  0  0  0
   -5.2878   -0.9052    1.6284 C   0  0  0  0  0  0  0  0  0  0  0  0
   -4.5972   -1.9476    0.7436 C   0  0  0  0  0  0  0  0  0  0  0  0
   -6.7972   -0.8416    1.3723 C   0  0  0  0  0  0  0  0  0  0  0  0
   -5.0526   -1.2852    3.0989 C   0  0  0  0  0  0  0  0  0  0  0  0
   -2.5262    0.6028   -1.9037 N   0  0  0  0  0  0  0  0  0  0  0  0
   -1.6667   -0.4391   -1.6621 C   0  0  0  0  0  0  0  0  0  0  0  0
   -2.0993   -1.5824   -1.5451 O   0  0  0  0  0  0  0  0  0  0  0  0
   -0.1751   -0.0945   -1.8140 C   0  0  2  0  0  0  0  0  0  0  0  0
    0.6381   -1.1962   -1.1019 C   0  0  0  0  0  0  0  0  0  0  0  0
    8.5372   -4.5746   -0.8703 H   0  0  0  0  0  0  0  0  0  0  0  0
    7.0641   -4.8510    0.0640 H   0  0  0  0  0  0  0  0  0  0  0  0
    7.0571   -5.0039   -1.7361 H   0  0  0  0  0  0  0  0  0  0  0  0
    4.8945   -4.6254   -0.8071 H   0  0  0  0  0  0  0  0  0  0  0  0
    2.6127   -3.7440   -0.8636 H   0  0  0  0  0  0  0  0  0  0  0  0
    4.4481    1.2698   -1.4397 H   0  0  0  0  0  0  0  0  0  0  0  0
    6.4986   -0.6381   -1.2538 H   0  0  0  0  0  0  0  0  0  0  0  0
    1.8287    2.1164   -2.3827 H   0  0  0  0  0  0  0  0  0  0  0  0
    1.5525    3.6928   -0.6455 H   0  0  0  0  0  0  0  0  0  0  0  0
    3.0576    2.8998   -0.2907 H   0  0  0  0  0  0  0  0  0  0  0  0
    0.4075    2.1867    1.0939 H   0  0  0  0  0  0  0  0  0  0  0  0
    3.3148    1.5618    1.8281 H   0  0  0  0  0  0  0  0  0  0  0  0
    2.0458    0.3920    1.4142 H   0  0  0  0  0  0  0  0  0  0  0  0
    1.9285    1.3141    2.8995 H   0  0  0  0  0  0  0  0  0  0  0  0
    0.9631    4.5650    1.4716 H   0  0  0  0  0  0  0  0  0  0  0  0
    2.5933    4.1198    2.0101 H   0  0  0  0  0  0  0  0  0  0  0  0
    1.1749    3.6233    2.9504 H   0  0  0  0  0  0  0  0  0  0  0  0
   -2.8079    2.6246   -2.0769 H   0  0  0  0  0  0  0  0  0  0  0  0
   -2.0165    1.3505    0.6161 H   0  0  0  0  0  0  0  0  0  0  0  0
   -1.9316    3.0866    0.3460 H   0  0  0  0  0  0  0  0  0  0  0  0
   -4.0234    2.7243    1.4047 H   0  0  0  0  0  0  0  0  0  0  0  0
   -4.4120    3.0758   -0.2667 H   0  0  0  0  0  0  0  0  0  0  0  0
   -4.9382   -2.9616    0.9806 H   0  0  0  0  0  0  0  0  0  0  0  0
   -3.5108   -1.9073    0.8753 H   0  0  0  0  0  0  0  0  0  0  0  0
   -4.7948   -1.7775   -0.3191 H   0  0  0  0  0  0  0  0  0  0  0  0
   -7.2803   -1.7993    1.5964 H   0  0  0  0  0  0  0  0  0  0  0  0
   -7.0279   -0.5900    0.3321 H   0  0  0  0  0  0  0  0  0  0  0  0
   -7.2614   -0.0643    1.9910 H   0  0  0  0  0  0  0  0  0  0  0  0
   -5.4814   -2.2641    3.3403 H   0  0  0  0  0  0  0  0  0  0  0  0
   -5.4908   -0.5388    3.7730 H   0  0  0  0  0  0  0  0  0  0  0  0
   -3.9799   -1.3129    3.3251 H   0  0  0  0  0  0  0  0  0  0  0  0
   -3.5092    0.3321   -1.8672 H   0  0  0  0  0  0  0  0  0  0  0  0
    0.0294   -0.1316   -2.8947 H   0  0  0  0  0  0  0  0  0  0  0  0
    0.4569   -2.1695   -1.5725 H   0  0  0  0  0  0  0  0  0  0  0  0
    0.3291   -1.2772   -0.0515 H   0  0  0  0  0  0  0  0  0  0  0  0
  1  2  1  0
  2  3  1  0
  3  4  2  0
  4  5  1  0
  5  6  2  0
  6  7  1  0
  7  8  2  0
  8  9  1  0
  9 10  1  0
 10 11  2  0
  8 12  1  0
 12 13  1  0
 13 14  1  0
 14 15  1  0
 14 16  1  0
 12 17  1  0
 17 18  1  0
 18 19  2  0
 18 20  1  0
 20 21  1  0
 21 22  1  0
 22 23  1  0
 23 24  2  0
 23 25  1  0
 25 26  1  0
 26 27  1  0
 26 28  1  0
 26 29  1  0
 20 30  1  0
 30 31  1  0
 31 32  2  0
 31 33  1  0
 33 34  1  0
 11  3  1  0
 33 17  1  0
 10  6  1  0
 34  7  1  0
  1 35  1  0
  1 36  1  0
  1 37  1  0
  4 38  1  0
  5 39  1  0
  9 40  1  0
 11 41  1  0
 12 42  1  6
 13 43  1  0
 13 44  1  0
 14 45  1  0
 15 46  1  0
 15 47  1  0
 15 48  1  0
 16 49  1  0
 16 50  1  0
 16 51  1  0
 20 52  1  6
 21 53  1  0
 21 54  1  0
 22 55  1  0
 22 56  1  0
 27 57  1  0
 27 58  1  0
 27 59  1  0
 28 60  1  0
 28 61  1  0
 28 62  1  0
 29 63  1  0
 29 64  1  0
 29 65  1  0
 30 66  1  0
 33 67  1  6
 34 68  1  0
 34 69  1  0
M  END
$$$$
