
     RDKit          3D

104110  0  0  0  0  0  0  0  0999 V2000
    6.6306   -2.7501   -1.8090 C   0  0  0  0  0  0  0  0  0  0  0  0
    6.2523   -1.8420   -2.7140 C   0  0  0  0  0  0  0  0  0  0  0  0
    4.9141   -1.2467   -2.8158 C   0  0  2  0  0  0  0  0  0  0  0  0
    4.7679    0.1657   -3.2989 C   0  0  0  0  0  0  0  0  0  0  0  0
    4.4744   -0.1444   -1.8408 C   0  0  1  0  0  0  0  0  0  0  0  0
    3.0822   -0.1808   -1.4138 N   0  0  0  0  0  0  0  0  0  0  0  0
    2.4505    0.8765   -0.7929 C   0  0  0  0  0  0  0  0  0  0  0  0
    3.0378    1.9250   -0.5325 O   0  0  0  0  0  0  0  0  0  0  0  0
    0.9350    0.6760   -0.5617 C   0  0  2  0  0  0  0  0  0  0  0  0
    0.3798    1.7631    0.3705 C   0  0  0  0  0  0  0  0  0  0  0  0
   -0.8393    1.0962    0.9932 C   0  0  2  0  0  0  0  0  0  0  0  0
   -0.3385   -0.3367    1.2121 C   0  0  0  0  0  0  0  0  0  0  0  0
    0.5733   -0.5982    0.0973 N   0  0  0  0  0  0  0  0  0  0  0  0
    0.6118   -1.7910   -0.5983 C   0  0  0  0  0  0  0  0  0  0  0  0
    1.0212   -1.8124   -1.7665 O   0  0  0  0  0  0  0  0  0  0  0  0
    0.2045   -3.1113    0.1164 C   0  0  2  0  0  0  0  0  0  0  0  0
    1.4300   -4.0141    0.4656 C   0  0  0  0  0  0  0  0  0  0  0  0
    2.3710   -3.2545    1.4214 C   0  0  0  0  0  0  0  0  0  0  0  0
    0.9328   -5.2797    1.1973 C   0  0  0  0  0  0  0  0  0  0  0  0
    2.2324   -4.4637   -0.7692 C   0  0  0  0  0  0  0  0  0  0  0  0
   -0.7328   -3.7484   -0.8124 N   0  0  0  0  0  0  0  0  0  0  0  0
   -2.0778   -3.4927   -0.7427 C   0  0  0  0  0  0  0  0  0  0  0  0
   -2.7530   -3.3821   -1.7568 O   0  0  0  0  0  0  0  0  0  0  0  0
   -2.5238   -3.3961    0.5384 O   0  0  0  0  0  0  0  0  0  0  0  0
   -3.8296   -2.8570    0.8212 C   0  0  2  0  0  0  0  0  0  0  0  0
   -4.7681   -3.8235    1.4950 C   0  0  0  0  0  0  0  0  0  0  0  0
   -5.0485   -3.3618    0.0921 C   0  0  1  0  0  0  0  0  0  0  0  0
   -6.1995   -2.4331   -0.1680 C   0  0  0  0  0  0  0  0  0  0  0  0
   -5.9924   -1.5228   -1.3836 C   0  0  0  0  0  0  0  0  0  0  0  0
   -4.8831   -0.4870   -1.1801 C   0  0  0  0  0  0  0  0  0  0  0  0
   -4.8347    0.5309   -2.3224 C   0  0  0  0  0  0  0  0  0  0  0  0
   -3.5858    1.4165   -2.2643 C   0  0  0  0  0  0  0  0  0  0  0  0
   -3.5602    2.3553   -1.0867 C   0  0  0  0  0  0  0  0  0  0  0  0
   -4.3930    3.4290   -1.1462 N   0  0  0  0  0  0  0  0  0  0  0  0
   -4.3549    4.2926   -0.1150 C   0  0  0  0  0  0  0  0  0  0  0  0
   -5.1827    5.4062   -0.1234 C   0  0  0  0  0  0  0  0  0  0  0  0
   -5.1690    6.3334    0.9229 C   0  0  0  0  0  0  0  0  0  0  0  0
   -4.3107    6.1423    1.9990 C   0  0  0  0  0  0  0  0  0  0  0  0
   -4.1867    6.9642    3.0824 O   0  0  0  0  0  0  0  0  0  0  0  0
   -4.9228    8.1789    3.0614 C   0  0  0  0  0  0  0  0  0  0  0  0
   -3.4842    5.0161    2.0164 C   0  0  0  0  0  0  0  0  0  0  0  0
   -3.4857    4.0913    0.9813 C   0  0  0  0  0  0  0  0  0  0  0  0
   -2.6643    3.0258    1.0416 N   0  0  0  0  0  0  0  0  0  0  0  0
   -2.7103    2.1660    0.0022 C   0  0  0  0  0  0  0  0  0  0  0  0
   -1.9160    1.0409    0.0419 O   0  0  0  0  0  0  0  0  0  0  0  0
    5.4849    0.3110   -0.7905 C   0  0  0  0  0  0  0  0  0  0  0  0
    6.4203    1.0472   -1.0621 O   0  0  0  0  0  0  0  0  0  0  0  0
    5.2291   -0.1972    0.4839 N   0  0  0  0  0  0  0  0  0  0  0  0
    6.0443    0.2064    1.8573 S   0  0  0  0  0  6  0  0  0  0  0  0
    5.0522    0.1159    2.9108 O   0  0  0  0  0  0  0  0  0  0  0  0
    7.2380   -0.6106    1.9129 O   0  0  0  0  0  0  0  0  0  0  0  0
    6.5113    1.9555    1.7844 C   0  0  0  0  0  0  0  0  0  0  0  0
    7.9442    2.2391    1.4174 C   0  0  0  0  0  0  0  0  0  0  0  0
    7.4957    2.3664    2.8472 C   0  0  0  0  0  0  0  0  0  0  0  0
    7.6492   -3.1323   -1.7968 H   0  0  0  0  0  0  0  0  0  0  0  0
    5.9458   -3.1352   -1.0599 H   0  0  0  0  0  0  0  0  0  0  0  0
    6.9986   -1.5024   -3.4335 H   0  0  0  0  0  0  0  0  0  0  0  0
    4.1569   -1.9481   -3.1576 H   0  0  0  0  0  0  0  0  0  0  0  0
    5.6566    0.7489   -3.5213 H   0  0  0  0  0  0  0  0  0  0  0  0
    3.9348    0.3968   -3.9527 H   0  0  0  0  0  0  0  0  0  0  0  0
    2.4817   -0.9086   -1.8099 H   0  0  0  0  0  0  0  0  0  0  0  0
    0.4336    0.7181   -1.5372 H   0  0  0  0  0  0  0  0  0  0  0  0
    0.1467    2.6758   -0.1877 H   0  0  0  0  0  0  0  0  0  0  0  0
    1.0979    2.0163    1.1603 H   0  0  0  0  0  0  0  0  0  0  0  0
   -1.1432    1.5260    1.9540 H   0  0  0  0  0  0  0  0  0  0  0  0
   -1.1696   -1.0430    1.2359 H   0  0  0  0  0  0  0  0  0  0  0  0
    0.2514   -0.4146    2.1312 H   0  0  0  0  0  0  0  0  0  0  0  0
   -0.3113   -2.8884    1.0522 H   0  0  0  0  0  0  0  0  0  0  0  0
    3.1977   -3.8899    1.7567 H   0  0  0  0  0  0  0  0  0  0  0  0
    1.8357   -2.9085    2.3120 H   0  0  0  0  0  0  0  0  0  0  0  0
    2.8146   -2.3799    0.9370 H   0  0  0  0  0  0  0  0  0  0  0  0
    0.2967   -5.8938    0.5503 H   0  0  0  0  0  0  0  0  0  0  0  0
    0.3536   -5.0201    2.0907 H   0  0  0  0  0  0  0  0  0  0  0  0
    1.7730   -5.9073    1.5191 H   0  0  0  0  0  0  0  0  0  0  0  0
    1.5964   -4.9862   -1.4918 H   0  0  0  0  0  0  0  0  0  0  0  0
    2.7075   -3.6206   -1.2789 H   0  0  0  0  0  0  0  0  0  0  0  0
    3.0336   -5.1578   -0.4858 H   0  0  0  0  0  0  0  0  0  0  0  0
   -0.4324   -3.7602   -1.7826 H   0  0  0  0  0  0  0  0  0  0  0  0
   -3.8494   -1.8363    1.1925 H   0  0  0  0  0  0  0  0  0  0  0  0
   -4.4369   -4.8465    1.6318 H   0  0  0  0  0  0  0  0  0  0  0  0
   -5.3848   -3.4510    2.3027 H   0  0  0  0  0  0  0  0  0  0  0  0
   -4.9280   -4.0879   -0.7070 H   0  0  0  0  0  0  0  0  0  0  0  0
   -6.4102   -1.8191    0.7162 H   0  0  0  0  0  0  0  0  0  0  0  0
   -7.0921   -3.0448   -0.3411 H   0  0  0  0  0  0  0  0  0  0  0  0
   -5.7687   -2.1289   -2.2711 H   0  0  0  0  0  0  0  0  0  0  0  0
   -6.9382   -1.0009   -1.5802 H   0  0  0  0  0  0  0  0  0  0  0  0
   -5.0419    0.0338   -0.2282 H   0  0  0  0  0  0  0  0  0  0  0  0
   -3.9146   -0.9935   -1.1203 H   0  0  0  0  0  0  0  0  0  0  0  0
   -5.7434    1.1457   -2.3039 H   0  0  0  0  0  0  0  0  0  0  0  0
   -4.8303   -0.0059   -3.2809 H   0  0  0  0  0  0  0  0  0  0  0  0
   -3.5474    2.0260   -3.1771 H   0  0  0  0  0  0  0  0  0  0  0  0
   -2.6849    0.7914   -2.2882 H   0  0  0  0  0  0  0  0  0  0  0  0
   -5.8489    5.5565   -0.9693 H   0  0  0  0  0  0  0  0  0  0  0  0
   -5.8386    7.1848    0.8604 H   0  0  0  0  0  0  0  0  0  0  0  0
   -5.9987    7.9892    3.0710 H   0  0  0  0  0  0  0  0  0  0  0  0
   -4.6759    8.7405    3.9675 H   0  0  0  0  0  0  0  0  0  0  0  0
   -4.6386    8.7941    2.2041 H   0  0  0  0  0  0  0  0  0  0  0  0
   -2.8151    4.8599    2.8592 H   0  0  0  0  0  0  0  0  0  0  0  0
    4.3621   -0.6922    0.6524 H   0  0  0  0  0  0  0  0  0  0  0  0
    5.7468    2.6579    1.4874 H   0  0  0  0  0  0  0  0  0  0  0  0
    8.1408    3.1435    0.8518 H   0  0  0  0  0  0  0  0  0  0  0  0
    8.5995    1.4166    1.1546 H   0  0  0  0  0  0  0  0  0  0  0  0
    7.4021    3.3620    3.2649 H   0  0  0  0  0  0  0  0  0  0  0  0
    7.8555    1.6247    3.5525 H   0  0  0  0  0  0  0  0  0  0  0  0
  1  2  2  3
  2  3  1  0
  3  4  1  0
  4  5  1  0
  5  6  1  1
  6  7  1  0
  7  8  2  0
  7  9  1  0
  9 10  1  0
 10 11  1  0
 11 12  1  0
 12 13  1  0
 13 14  1  0
 14 15  2  0
 14 16  1  0
 16 17  1  0
 17 18  1  0
 17 19  1  0
 17 20  1  0
 16 21  1  0
 21 22  1  0
 22 23  2  0
 22 24  1  0
 24 25  1  0
 25 26  1  0
 26 27  1  0
 27 28  1  0
 28 29  1  0
 29 30  1  0
 30 31  1  0
 31 32  1  0
 32 33  1  0
 33 34  2  0
 34 35  1  0
 35 36  2  0
 36 37  1  0
 37 38  2  0
 38 39  1  0
 39 40  1  0
 38 41  1  0
 41 42  2  0
 42 43  1  0
 43 44  2  0
 44 45  1  0
  5 46  1  0
 46 47  2  0
 46 48  1  0
 48 49  1  0
 49 50  2  0
 49 51  2  0
 49 52  1  0
 52 53  1  0
 53 54  1  0
  5  3  1  0
 13  9  1  0
 27 25  1  0
 44 33  1  0
 54 52  1  0
 45 11  1  0
 42 35  1  0
  1 55  1  0
  1 56  1  0
  2 57  1  0
  3 58  1  6
  4 59  1  0
  4 60  1  0
  6 61  1  0
  9 62  1  6
 10 63  1  0
 10 64  1  0
 11 65  1  1
 12 66  1  0
 12 67  1  0
 16 68  1  1
 18 69  1  0
 18 70  1  0
 18 71  1  0
 19 72  1  0
 19 73  1  0
 19 74  1  0
 20 75  1  0
 20 76  1  0
 20 77  1  0
 21 78  1  0
 25 79  1  1
 26 80  1  0
 26 81  1  0
 27 82  1  6
 28 83  1  0
 28 84  1  0
 29 85  1  0
 29 86  1  0
 30 87  1  0
 30 88  1  0
 31 89  1  0
 31 90  1  0
 32 91  1  0
 32 92  1  0
 36 93  1  0
 37 94  1  0
 40 95  1  0
 40 96  1  0
 40 97  1  0
 41 98  1  0
 48 99  1  0
 52100  1  0
 53101  1  0
 53102  1  0
 54103  1  0
 54104  1  0
M  END
$$$$
