
     RDKit          3D

 75 74  0  0  0  0  0  0  0  0999 V2000
    8.7326    0.9729   -0.7038 N   0  0  0  0  0  0  0  0  0  0  0  0
    7.4971    1.2315   -0.9931 C   0  0  0  0  0  0  0  0  0  0  0  0
    7.2288    2.4638   -1.5092 N   0  0  0  0  0  0  0  0  0  0  0  0
    6.3994    0.2483   -0.7922 C   0  0  0  0  0  0  0  0  0  0  0  0
    6.6258   -1.1173   -0.9744 C   0  0  0  0  0  0  0  0  0  0  0  0
    5.5780   -2.0231   -0.7885 C   0  0  0  0  0  0  0  0  0  0  0  0
    4.3031   -1.5803   -0.4205 C   0  0  0  0  0  0  0  0  0  0  0  0
    3.3808   -2.5777   -0.2785 O   0  0  0  0  0  0  0  0  0  0  0  0
    2.0804   -2.2525    0.2140 C   0  0  0  0  0  0  0  0  0  0  0  0
    1.1450   -1.8960   -0.9399 C   0  0  0  0  0  0  0  0  0  0  0  0
   -0.2726   -1.6095   -0.4475 C   0  0  0  0  0  0  0  0  0  0  0  0
   -1.2062   -1.2708   -1.6135 C   0  0  0  0  0  0  0  0  0  0  0  0
   -2.6427   -1.0239   -1.1535 C   0  0  0  0  0  0  0  0  0  0  0  0
   -2.6652    0.1250   -0.3075 O   0  0  0  0  0  0  0  0  0  0  0  0
   -3.8777    0.5008    0.2012 C   0  0  0  0  0  0  0  0  0  0  0  0
   -5.1005   -0.1277   -0.0409 C   0  0  0  0  0  0  0  0  0  0  0  0
   -6.2720    0.3645    0.5461 C   0  0  0  0  0  0  0  0  0  0  0  0
   -6.2226    1.4874    1.3781 C   0  0  0  0  0  0  0  0  0  0  0  0
   -7.4733    1.9987    1.9958 C   0  0  0  0  0  0  0  0  0  0  0  0
   -8.5757    2.1025    1.3244 N   0  0  0  0  0  0  0  0  0  0  0  0
   -7.5001    2.3822    3.3002 N   0  0  0  0  0  0  0  0  0  0  0  0
   -5.0024    2.1189    1.6248 C   0  0  0  0  0  0  0  0  0  0  0  0
   -3.8366    1.6237    1.0339 C   0  0  0  0  0  0  0  0  0  0  0  0
    4.0796   -0.2138   -0.2494 C   0  0  0  0  0  0  0  0  0  0  0  0
    5.1245    0.6993   -0.4357 C   0  0  0  0  0  0  0  0  0  0  0  0
    1.4603   -0.7937   -1.5731 O   0  0  0  0  0  0  0  0  0  0  0  0
    1.3280   -0.5049   -0.1646 S   0  0  0  0  0  6  0  0  0  0  0  0
    1.4213   -1.5258    0.8529 O   0  0  0  0  0  0  0  0  0  0  0  0
    2.4367    0.6019    0.2247 O   0  0  0  0  0  0  0  0  0  0  0  0
   -0.1206    0.4898    0.1055 C   0  0  0  0  0  0  0  0  0  0  0  0
   -1.3660   -0.3228   -0.1700 C   0  0  0  0  0  0  0  0  0  0  0  0
   -2.5237    0.4891    0.0113 O   0  0  0  0  0  0  0  0  0  0  0  0
   -1.7638   -0.2133   -1.3555 O   0  0  0  0  0  0  0  0  0  0  0  0
   -1.2654    0.6375   -0.2988 S   0  0  0  0  0  6  0  0  0  0  0  0
   -0.9290    2.0249   -0.5143 O   0  0  0  0  0  0  0  0  0  0  0  0
   -2.3695    0.5659    0.8765 O   0  0  0  0  0  0  0  0  0  0  0  0
    0.0625   -0.1804    0.5522 C   0  0  0  0  0  0  0  0  0  0  0  0
    1.2865   -0.2398   -0.3350 C   0  0  0  0  0  0  0  0  0  0  0  0
    2.3211   -0.9426    0.3464 O   0  0  0  0  0  0  0  0  0  0  0  0
    8.8282    0.0455   -0.2802 H   0  0  0  0  0  0  0  0  0  0  0  0
    6.5280    2.4902   -2.2408 H   0  0  0  0  0  0  0  0  0  0  0  0
    8.0894    2.9307   -1.7813 H   0  0  0  0  0  0  0  0  0  0  0  0
    7.5994   -1.4885   -1.2823 H   0  0  0  0  0  0  0  0  0  0  0  0
    5.7544   -3.0865   -0.9350 H   0  0  0  0  0  0  0  0  0  0  0  0
    2.1099   -1.4831    0.9938 H   0  0  0  0  0  0  0  0  0  0  0  0
    1.7058   -3.1585    0.7049 H   0  0  0  0  0  0  0  0  0  0  0  0
    1.1350   -2.7226   -1.6617 H   0  0  0  0  0  0  0  0  0  0  0  0
    1.5332   -1.0287   -1.4865 H   0  0  0  0  0  0  0  0  0  0  0  0
   -0.2483   -0.7775    0.2664 H   0  0  0  0  0  0  0  0  0  0  0  0
   -0.6594   -2.4852    0.0874 H   0  0  0  0  0  0  0  0  0  0  0  0
   -0.8291   -0.3743   -2.1204 H   0  0  0  0  0  0  0  0  0  0  0  0
   -1.2010   -2.0909   -2.3405 H   0  0  0  0  0  0  0  0  0  0  0  0
   -3.0103   -1.9036   -0.6120 H   0  0  0  0  0  0  0  0  0  0  0  0
   -3.2654   -0.8466   -2.0382 H   0  0  0  0  0  0  0  0  0  0  0  0
   -5.1798   -1.0038   -0.6760 H   0  0  0  0  0  0  0  0  0  0  0  0
   -7.2153   -0.1472    0.3688 H   0  0  0  0  0  0  0  0  0  0  0  0
   -8.4403    1.8160    0.3500 H   0  0  0  0  0  0  0  0  0  0  0  0
   -6.6494    2.7006    3.7413 H   0  0  0  0  0  0  0  0  0  0  0  0
   -8.3272    2.9231    3.5309 H   0  0  0  0  0  0  0  0  0  0  0  0
   -4.9462    3.0046    2.2498 H   0  0  0  0  0  0  0  0  0  0  0  0
   -2.8865    2.1195    1.2196 H   0  0  0  0  0  0  0  0  0  0  0  0
    3.1065    0.1800    0.0243 H   0  0  0  0  0  0  0  0  0  0  0  0
    4.9408    1.7603   -0.2832 H   0  0  0  0  0  0  0  0  0  0  0  0
    2.9989    0.2306    0.9394 H   0  0  0  0  0  0  0  0  0  0  0  0
   -0.0674    1.3595   -0.5565 H   0  0  0  0  0  0  0  0  0  0  0  0
   -0.1083    0.8455    1.1400 H   0  0  0  0  0  0  0  0  0  0  0  0
   -1.3781   -0.7268   -1.1881 H   0  0  0  0  0  0  0  0  0  0  0  0
   -1.4396   -1.1681    0.5221 H   0  0  0  0  0  0  0  0  0  0  0  0
   -2.6415    1.0258   -0.7926 H   0  0  0  0  0  0  0  0  0  0  0  0
   -3.1664    0.1184    0.5195 H   0  0  0  0  0  0  0  0  0  0  0  0
    0.2764    0.3734    1.4715 H   0  0  0  0  0  0  0  0  0  0  0  0
   -0.2720   -1.1858    0.8273 H   0  0  0  0  0  0  0  0  0  0  0  0
    1.0725   -0.7641   -1.2723 H   0  0  0  0  0  0  0  0  0  0  0  0
    1.6500    0.7648   -0.5754 H   0  0  0  0  0  0  0  0  0  0  0  0
    3.0972   -0.9590   -0.2422 H   0  0  0  0  0  0  0  0  0  0  0  0
  1  2  2  3
  2  3  1  0
  2  4  1  0
  4  5  2  0
  5  6  1  0
  6  7  2  0
  7  8  1  0
  8  9  1  0
  9 10  1  0
 10 11  1  0
 11 12  1  0
 12 13  1  0
 13 14  1  0
 14 15  1  0
 15 16  2  0
 16 17  1  0
 17 18  2  0
 18 19  1  0
 19 20  2  3
 19 21  1  0
 18 22  1  0
 22 23  2  0
  7 24  1  0
 24 25  2  0
 26 27  2  0
 27 28  2  0
 27 29  1  0
 27 30  1  0
 30 31  1  0
 31 32  1  0
 33 34  2  0
 34 35  2  0
 34 36  1  0
 34 37  1  0
 37 38  1  0
 38 39  1  0
 25  4  1  0
 23 15  1  0
  1 40  1  0
  3 41  1  0
  3 42  1  0
  5 43  1  0
  6 44  1  0
  9 45  1  0
  9 46  1  0
 10 47  1  0
 10 48  1  0
 11 49  1  0
 11 50  1  0
 12 51  1  0
 12 52  1  0
 13 53  1  0
 13 54  1  0
 16 55  1  0
 17 56  1  0
 20 57  1  0
 21 58  1  0
 21 59  1  0
 22 60  1  0
 23 61  1  0
 24 62  1  0
 25 63  1  0
 29 64  1  0
 30 65  1  0
 30 66  1  0
 31 67  1  0
 31 68  1  0
 32 69  1  0
 36 70  1  0
 37 71  1  0
 37 72  1  0
 38 73  1  0
 38 74  1  0
 39 75  1  0
M  END
$$$$
