
     RDKit          3D

 27 29  0  0  0  0  0  0  0  0999 V2000
    1.5587   -1.0966   -1.6469 O   0  0  0  0  0  0  0  0  0  0  0  0
    1.6182   -0.4151   -0.6313 C   0  0  0  0  0  0  0  0  0  0  0  0
    0.5755    0.0842    0.1128 N   0  0  0  0  0  0  0  0  0  0  0  0
   -0.7653   -0.0642   -0.1084 C   0  0  0  0  0  0  0  0  0  0  0  0
   -1.6487    0.4752    0.6956 N   0  0  0  0  0  0  0  0  0  0  0  0
   -2.9325    0.1805    0.2562 C   0  0  0  0  0  0  0  0  0  0  0  0
   -4.1508    0.5786    0.8496 C   0  0  0  0  0  0  0  0  0  0  0  0
   -4.1514    1.3260    1.9635 F   0  0  0  0  0  0  0  0  0  0  0  0
   -5.3727    0.2061    0.2942 C   0  0  0  0  0  0  0  0  0  0  0  0
   -5.3885   -0.5652   -0.8555 C   0  0  0  0  0  0  0  0  0  0  0  0
   -6.5662   -0.9207   -1.3856 F   0  0  0  0  0  0  0  0  0  0  0  0
   -4.2140   -0.9840   -1.4796 C   0  0  0  0  0  0  0  0  0  0  0  0
   -2.9925   -0.5978   -0.9039 C   0  0  0  0  0  0  0  0  0  0  0  0
   -1.3893   -0.9454   -1.4219 S   0  0  0  0  0  0  0  0  0  0  0  0
    2.9555   -0.0353   -0.0656 C   0  0  0  0  0  0  0  0  0  0  0  0
    4.1242   -0.4539   -0.6895 C   0  0  0  0  0  0  0  0  0  0  0  0
    5.3390   -0.0757   -0.1261 C   0  0  0  0  0  0  0  0  0  0  0  0
    5.3439    0.6999    1.0297 C   0  0  0  0  0  0  0  0  0  0  0  0
    4.1280    1.0715    1.5836 C   0  0  0  0  0  0  0  0  0  0  0  0
    2.9289    0.7248    1.0672 N   0  0  0  0  0  0  0  0  0  0  0  0
    0.8210    0.6334    0.9313 H   0  0  0  0  0  0  0  0  0  0  0  0
   -6.3004    0.5186    0.7599 H   0  0  0  0  0  0  0  0  0  0  0  0
   -4.2522   -1.5881   -2.3800 H   0  0  0  0  0  0  0  0  0  0  0  0
    4.0904   -1.0584   -1.5904 H   0  0  0  0  0  0  0  0  0  0  0  0
    6.2747   -0.3838   -0.5853 H   0  0  0  0  0  0  0  0  0  0  0  0
    6.2770    1.0086    1.4895 H   0  0  0  0  0  0  0  0  0  0  0  0
    4.0893    1.6769    2.4857 H   0  0  0  0  0  0  0  0  0  0  0  0
  1  2  2  0
  2  3  1  0
  3  4  1  0
  4  5  2  0
  5  6  1  0
  6  7  2  0
  7  8  1  0
  7  9  1  0
  9 10  2  0
 10 11  1  0
 10 12  1  0
 12 13  2  0
 13 14  1  0
  2 15  1  0
 15 16  2  0
 16 17  1  0
 17 18  2  0
 18 19  1  0
 19 20  2  0
 14  4  1  0
 20 15  1  0
 13  6  1  0
  3 21  1  0
  9 22  1  0
 12 23  1  0
 16 24  1  0
 17 25  1  0
 18 26  1  0
 19 27  1  0
M  END
$$$$
