
     RDKit          3D

 40 43  0  0  0  0  0  0  0  0999 V2000
    6.9451    0.2250   -0.8428 C   0  0  0  0  0  0  0  0  0  0  0  0
    5.4866    0.0992   -0.5179 C   0  0  0  0  0  0  0  0  0  0  0  0
    5.0321    0.2785    0.7891 C   0  0  0  0  0  0  0  0  0  0  0  0
    3.6669    0.1881    1.0895 C   0  0  0  0  0  0  0  0  0  0  0  0
    2.7138   -0.0712    0.0931 C   0  0  0  0  0  0  0  0  0  0  0  0
    1.3053   -0.1489    0.3945 N   0  0  0  0  0  0  0  0  0  0  0  0
    0.3741    0.2127   -0.5711 C   0  0  0  0  0  0  0  0  0  0  0  0
   -0.9217    0.1959   -0.4881 N   0  0  0  0  0  0  0  0  0  0  0  0
   -1.4271   -0.2288    0.7467 C   0  0  0  0  0  0  0  0  0  0  0  0
   -0.5829   -0.5953    1.7570 C   0  0  0  0  0  0  0  0  0  0  0  0
   -1.4157   -1.0613    3.1517 S   0  0  0  0  0  0  0  0  0  0  0  0
   -2.9241   -0.7704    2.4043 C   0  0  0  0  0  0  0  0  0  0  0  0
   -4.0501   -0.9903    3.1126 N   0  0  0  0  0  0  0  0  0  0  0  0
   -5.1804   -0.7333    2.4401 C   0  0  0  0  0  0  0  0  0  0  0  0
   -5.2387   -0.2822    1.1381 C   0  0  0  0  0  0  0  0  0  0  0  0
   -4.0563   -0.0567    0.4100 C   0  0  0  0  0  0  0  0  0  0  0  0
   -4.2558    0.4062   -0.9194 N   0  0  0  0  0  0  0  0  0  0  0  0
   -3.8224   -0.5590   -1.9275 C   0  0  0  0  0  0  0  0  0  0  0  0
   -3.7818    1.7740   -1.1203 C   0  0  0  0  0  0  0  0  0  0  0  0
   -2.8228   -0.3164    1.0836 C   0  0  0  0  0  0  0  0  0  0  0  0
    0.8531   -0.5985    1.6488 C   0  0  0  0  0  0  0  0  0  0  0  0
    1.5797   -0.9991    2.5558 O   0  0  0  0  0  0  0  0  0  0  0  0
    3.1862   -0.2372   -1.2209 C   0  0  0  0  0  0  0  0  0  0  0  0
    4.5514   -0.1486   -1.5232 C   0  0  0  0  0  0  0  0  0  0  0  0
    7.5629   -0.0963    0.0024 H   0  0  0  0  0  0  0  0  0  0  0  0
    7.2109   -0.4064   -1.6972 H   0  0  0  0  0  0  0  0  0  0  0  0
    7.1867    1.2650   -1.0827 H   0  0  0  0  0  0  0  0  0  0  0  0
    5.7355    0.4919    1.5919 H   0  0  0  0  0  0  0  0  0  0  0  0
    3.3773    0.3609    2.1235 H   0  0  0  0  0  0  0  0  0  0  0  0
    0.7989    0.5869   -1.5133 H   0  0  0  0  0  0  0  0  0  0  0  0
   -6.0955   -0.9069    3.0005 H   0  0  0  0  0  0  0  0  0  0  0  0
   -6.2023   -0.1002    0.6715 H   0  0  0  0  0  0  0  0  0  0  0  0
   -2.7362   -0.6507   -1.9930 H   0  0  0  0  0  0  0  0  0  0  0  0
   -4.1871   -0.2458   -2.9122 H   0  0  0  0  0  0  0  0  0  0  0  0
   -4.2474   -1.5501   -1.7305 H   0  0  0  0  0  0  0  0  0  0  0  0
   -4.1412    2.1461   -2.0862 H   0  0  0  0  0  0  0  0  0  0  0  0
   -2.6926    1.8533   -1.1216 H   0  0  0  0  0  0  0  0  0  0  0  0
   -4.1818    2.4448   -0.3511 H   0  0  0  0  0  0  0  0  0  0  0  0
    2.5190   -0.4862   -2.0419 H   0  0  0  0  0  0  0  0  0  0  0  0
    4.8782   -0.2885   -2.5518 H   0  0  0  0  0  0  0  0  0  0  0  0
  1  2  1  0
  2  3  2  0
  3  4  1  0
  4  5  2  0
  5  6  1  0
  6  7  1  0
  7  8  2  0
  8  9  1  0
  9 10  2  0
 10 11  1  0
 11 12  1  0
 12 13  2  0
 13 14  1  0
 14 15  2  0
 15 16  1  0
 16 17  1  0
 17 18  1  0
 17 19  1  0
 16 20  2  0
 10 21  1  0
 21 22  2  0
  5 23  1  0
 23 24  2  0
 24  2  1  0
 21  6  1  0
 20  9  1  0
 20 12  1  0
  1 25  1  0
  1 26  1  0
  1 27  1  0
  3 28  1  0
  4 29  1  0
  7 30  1  0
 14 31  1  0
 15 32  1  0
 18 33  1  0
 18 34  1  0
 18 35  1  0
 19 36  1  0
 19 37  1  0
 19 38  1  0
 23 39  1  0
 24 40  1  0
M  END
$$$$
