
     RDKit          3D

 47 50  0  0  0  0  0  0  0  0999 V2000
    7.5647    0.8520   -0.2381 C   0  0  0  0  0  0  0  0  0  0  0  0
    6.9212   -0.1643    1.0624 S   0  0  0  0  0  6  0  0  0  0  0  0
    7.4882   -1.4961    0.9429 O   0  0  0  0  0  0  0  0  0  0  0  0
    6.9803    0.5734    2.3119 O   0  0  0  0  0  0  0  0  0  0  0  0
    5.2397   -0.3766    0.7610 N   0  0  0  0  0  0  0  0  0  0  0  0
    4.4566   -1.1883    1.5660 C   0  0  0  0  0  0  0  0  0  0  0  0
    3.2003   -1.0889    1.0414 C   0  0  0  0  0  0  0  0  0  0  0  0
    3.3075   -0.2202   -0.0343 C   0  0  0  0  0  0  0  0  0  0  0  0
    4.5314    0.2548   -0.2370 N   0  0  0  0  0  0  0  0  0  0  0  0
    2.0074   -0.0143   -0.6988 C   0  0  0  0  0  0  0  0  0  0  0  0
    1.1813   -1.0801   -0.0505 N   0  0  0  0  0  0  0  0  0  0  0  0
   -0.2620   -0.8470    0.0414 C   0  0  1  0  0  0  0  0  0  0  0  0
   -0.7081    0.3831    0.8596 C   0  0  0  0  0  0  0  0  0  0  0  0
   -2.1335    0.4452    0.9399 O   0  0  0  0  0  0  0  0  0  0  0  0
   -2.7478    0.6187   -0.3496 C   0  0  2  0  0  0  0  0  0  0  0  0
   -4.2346    0.7909   -0.1342 C   0  0  0  0  0  0  0  0  0  0  0  0
   -4.9465   -0.0002    0.7813 C   0  0  0  0  0  0  0  0  0  0  0  0
   -6.3197    0.1736    0.9341 C   0  0  0  0  0  0  0  0  0  0  0  0
   -6.9859   -0.5867    1.8128 F   0  0  0  0  0  0  0  0  0  0  0  0
   -7.0123    1.1221    0.1889 C   0  0  0  0  0  0  0  0  0  0  0  0
   -6.3187    1.9111   -0.7264 C   0  0  0  0  0  0  0  0  0  0  0  0
   -4.9436    1.7393   -0.8816 C   0  0  0  0  0  0  0  0  0  0  0  0
   -4.2975    2.5106   -1.7689 F   0  0  0  0  0  0  0  0  0  0  0  0
   -2.4151   -0.5913   -1.2742 C   0  0  1  0  0  0  0  0  0  0  0  0
   -2.9751   -0.4801   -2.6296 N   0  0  0  0  0  0  0  0  0  0  0  0
   -0.8902   -0.7747   -1.3638 C   0  0  0  0  0  0  0  0  0  0  0  0
    1.8196   -1.5555    1.2154 C   0  0  0  0  0  0  0  0  0  0  0  0
    7.4053    0.3487   -1.1934 H   0  0  0  0  0  0  0  0  0  0  0  0
    7.0592    1.8191   -0.2170 H   0  0  0  0  0  0  0  0  0  0  0  0
    8.6341    0.9882   -0.0637 H   0  0  0  0  0  0  0  0  0  0  0  0
    4.8819   -1.7314    2.3988 H   0  0  0  0  0  0  0  0  0  0  0  0
    1.6419    0.9945   -0.4889 H   0  0  0  0  0  0  0  0  0  0  0  0
    2.0666   -0.1790   -1.7780 H   0  0  0  0  0  0  0  0  0  0  0  0
   -0.7074   -1.7321    0.5181 H   0  0  0  0  0  0  0  0  0  0  0  0
   -0.3377    0.3197    1.8869 H   0  0  0  0  0  0  0  0  0  0  0  0
   -0.3376    1.3232    0.4365 H   0  0  0  0  0  0  0  0  0  0  0  0
   -2.3404    1.5431   -0.7814 H   0  0  0  0  0  0  0  0  0  0  0  0
   -4.4391   -0.7498    1.3817 H   0  0  0  0  0  0  0  0  0  0  0  0
   -8.0826    1.2374    0.3253 H   0  0  0  0  0  0  0  0  0  0  0  0
   -6.8368    2.6561   -1.3217 H   0  0  0  0  0  0  0  0  0  0  0  0
   -2.8305   -1.5009   -0.8205 H   0  0  0  0  0  0  0  0  0  0  0  0
   -2.6554    0.3774   -3.0796 H   0  0  0  0  0  0  0  0  0  0  0  0
   -2.6486   -1.2528   -3.2089 H   0  0  0  0  0  0  0  0  0  0  0  0
   -0.6581   -1.6919   -1.9213 H   0  0  0  0  0  0  0  0  0  0  0  0
   -0.4571    0.0617   -1.9290 H   0  0  0  0  0  0  0  0  0  0  0  0
    1.3807   -1.0973    2.1066 H   0  0  0  0  0  0  0  0  0  0  0  0
    1.7541   -2.6447    1.2858 H   0  0  0  0  0  0  0  0  0  0  0  0
  1  2  1  0
  2  3  2  0
  2  4  2  0
  2  5  1  0
  5  6  1  0
  6  7  2  0
  7  8  1  0
  8  9  2  0
  8 10  1  0
 10 11  1  0
 11 12  1  0
 12 13  1  0
 13 14  1  0
 14 15  1  0
 15 16  1  0
 16 17  2  0
 17 18  1  0
 18 19  1  0
 18 20  2  0
 20 21  1  0
 21 22  2  0
 22 23  1  0
 15 24  1  0
 24 25  1  0
 24 26  1  0
 11 27  1  0
  9  5  1  0
 26 12  1  0
 27  7  1  0
 22 16  1  0
  1 28  1  0
  1 29  1  0
  1 30  1  0
  6 31  1  0
 10 32  1  0
 10 33  1  0
 12 34  1  1
 13 35  1  0
 13 36  1  0
 15 37  1  6
 17 38  1  0
 20 39  1  0
 21 40  1  0
 24 41  1  1
 25 42  1  0
 25 43  1  0
 26 44  1  0
 26 45  1  0
 27 46  1  0
 27 47  1  0
M  END
$$$$
