
     RDKit          3D

 32 34  0  0  0  0  0  0  0  0999 V2000
    2.0495   -3.1452    0.9954 O   0  0  0  0  0  0  0  0  0  0  0  0
    1.7333   -2.0221    0.6179 C   0  0  0  0  0  0  0  0  0  0  0  0
    0.4317   -1.6258    0.5733 N   0  0  0  0  0  0  0  0  0  0  0  0
    0.0571   -0.3783    0.1483 C   0  0  0  0  0  0  0  0  0  0  0  0
   -1.4003   -0.0782    0.1277 C   0  0  0  0  0  0  0  0  0  0  0  0
   -1.8792    0.8556   -0.7994 C   0  0  0  0  0  0  0  0  0  0  0  0
   -3.2411    1.1658   -0.8517 C   0  0  0  0  0  0  0  0  0  0  0  0
   -4.1442    0.5586    0.0332 C   0  0  0  0  0  0  0  0  0  0  0  0
   -5.6195    0.8770   -0.0344 C   0  0  0  0  0  0  0  0  0  0  0  0
   -6.2931    0.0235   -0.8531 F   0  0  0  0  0  0  0  0  0  0  0  0
   -6.2358    0.7981    1.1779 F   0  0  0  0  0  0  0  0  0  0  0  0
   -5.8775    2.1296   -0.5021 F   0  0  0  0  0  0  0  0  0  0  0  0
   -3.6574   -0.3725    0.9645 C   0  0  0  0  0  0  0  0  0  0  0  0
   -2.2945   -0.6854    1.0176 C   0  0  0  0  0  0  0  0  0  0  0  0
    0.9191    0.5076   -0.2356 N   0  0  0  0  0  0  0  0  0  0  0  0
    2.2564    0.1811   -0.2004 C   0  0  0  0  0  0  0  0  0  0  0  0
    2.7321   -1.0157    0.1917 C   0  0  0  0  0  0  0  0  0  0  0  0
    4.1562   -1.4733    0.2464 C   0  0  0  0  0  0  0  0  0  0  0  0
    5.3160   -0.3997   -0.6472 S   0  0  0  0  0  0  0  0  0  0  0  0
    4.6109    1.1946   -0.1574 C   0  0  0  0  0  0  0  0  0  0  0  0
    3.1669    1.3114   -0.6303 C   0  0  0  0  0  0  0  0  0  0  0  0
   -0.2406   -2.3355    0.8183 H   0  0  0  0  0  0  0  0  0  0  0  0
   -1.1934    1.3433   -1.4904 H   0  0  0  0  0  0  0  0  0  0  0  0
   -3.5931    1.8897   -1.5860 H   0  0  0  0  0  0  0  0  0  0  0  0
   -4.3421   -0.8518    1.6641 H   0  0  0  0  0  0  0  0  0  0  0  0
   -1.9531   -1.3810    1.7790 H   0  0  0  0  0  0  0  0  0  0  0  0
    4.2555   -2.4696   -0.1975 H   0  0  0  0  0  0  0  0  0  0  0  0
    4.4841   -1.5414    1.2893 H   0  0  0  0  0  0  0  0  0  0  0  0
    5.2132    1.9946   -0.5997 H   0  0  0  0  0  0  0  0  0  0  0  0
    4.6794    1.2975    0.9313 H   0  0  0  0  0  0  0  0  0  0  0  0
    2.7686    2.2583   -0.2423 H   0  0  0  0  0  0  0  0  0  0  0  0
    3.1348    1.3891   -1.7251 H   0  0  0  0  0  0  0  0  0  0  0  0
  1  2  2  0
  2  3  1  0
  3  4  1  0
  4  5  1  0
  5  6  2  0
  6  7  1  0
  7  8  2  0
  8  9  1  0
  9 10  1  0
  9 11  1  0
  9 12  1  0
  8 13  1  0
 13 14  2  0
  4 15  2  0
 15 16  1  0
 16 17  2  0
 17 18  1  0
 18 19  1  0
 19 20  1  0
 20 21  1  0
 17  2  1  0
 14  5  1  0
 21 16  1  0
  3 22  1  0
  6 23  1  0
  7 24  1  0
 13 25  1  0
 14 26  1  0
 18 27  1  0
 18 28  1  0
 20 29  1  0
 20 30  1  0
 21 31  1  0
 21 32  1  0
M  END
$$$$
