
     RDKit          3D

 55 58  0  0  0  0  0  0  0  0999 V2000
   10.6426    0.3750   -0.4691 C   0  0  0  0  0  0  0  0  0  0  0  0
   10.0019   -0.6134   -1.2643 O   0  0  0  0  0  0  0  0  0  0  0  0
    9.3613   -1.6260   -0.4700 C   0  0  0  0  0  0  0  0  0  0  0  0
    8.1175   -1.1731    0.2269 C   0  0  0  0  0  0  0  0  0  0  0  0
    8.1034   -0.7609    1.5026 N   0  0  0  0  0  0  0  0  0  0  0  0
    6.8045   -0.4612    1.6703 N   0  0  0  0  0  0  0  0  0  0  0  0
    6.0674   -0.7022    0.5417 C   0  0  0  0  0  0  0  0  0  0  0  0
    4.6283   -0.4755    0.4035 C   0  0  0  0  0  0  0  0  0  0  0  0
    4.0384   -0.5823   -0.8625 C   0  0  0  0  0  0  0  0  0  0  0  0
    2.6663   -0.3715   -1.0403 C   0  0  0  0  0  0  0  0  0  0  0  0
    1.8477   -0.0518    0.0470 C   0  0  0  0  0  0  0  0  0  0  0  0
    0.4761    0.1435   -0.2140 N   0  0  0  0  0  0  0  0  0  0  0  0
   -0.5220    0.4494    0.6973 C   0  0  0  0  0  0  0  0  0  0  0  0
   -0.3846    0.6071    1.9049 O   0  0  0  0  0  0  0  0  0  0  0  0
   -1.8722    0.5802    0.0198 C   0  0  0  0  0  0  0  0  0  0  0  0
   -2.9720    0.8755    1.0345 C   0  0  0  0  0  0  0  0  0  0  0  0
   -4.2752    0.9933    0.4010 N   0  0  0  0  0  0  0  0  0  0  0  0
   -4.7183    2.1385   -0.1941 C   0  0  0  0  0  0  0  0  0  0  0  0
   -4.1505    3.2198   -0.2102 O   0  0  0  0  0  0  0  0  0  0  0  0
   -5.9868    1.8356   -0.9406 C   0  0  0  0  0  0  0  0  0  0  0  0
   -6.3808    0.4446   -0.4464 C   0  0  0  0  0  0  0  0  0  0  0  0
   -7.4163    0.4694    0.6991 C   0  0  0  0  0  0  0  0  0  0  0  0
   -8.5588   -0.4385    0.2458 C   0  0  0  0  0  0  0  0  0  0  0  0
   -7.9330   -1.3663   -0.7801 C   0  0  0  0  0  0  0  0  0  0  0  0
   -6.9795   -0.4502   -1.5335 C   0  0  0  0  0  0  0  0  0  0  0  0
   -5.0587   -0.0802    0.0839 C   0  0  0  0  0  0  0  0  0  0  0  0
   -4.7606   -1.2567    0.2186 O   0  0  0  0  0  0  0  0  0  0  0  0
    2.4271    0.0526    1.3110 C   0  0  0  0  0  0  0  0  0  0  0  0
    3.8031   -0.1572    1.4890 C   0  0  0  0  0  0  0  0  0  0  0  0
    6.8888   -1.1563   -0.3867 N   0  0  0  0  0  0  0  0  0  0  0  0
    9.9100    0.9639    0.0890 H   0  0  0  0  0  0  0  0  0  0  0  0
   11.3642   -0.0826    0.2145 H   0  0  0  0  0  0  0  0  0  0  0  0
   11.1822    1.0512   -1.1383 H   0  0  0  0  0  0  0  0  0  0  0  0
   10.0817   -2.0447    0.2428 H   0  0  0  0  0  0  0  0  0  0  0  0
    9.0947   -2.4361   -1.1576 H   0  0  0  0  0  0  0  0  0  0  0  0
    6.4947   -0.0983    2.5629 H   0  0  0  0  0  0  0  0  0  0  0  0
    4.6527   -0.8316   -1.7272 H   0  0  0  0  0  0  0  0  0  0  0  0
    2.2569   -0.4652   -2.0427 H   0  0  0  0  0  0  0  0  0  0  0  0
    0.1935    0.0389   -1.1810 H   0  0  0  0  0  0  0  0  0  0  0  0
   -1.8146    1.3865   -0.7214 H   0  0  0  0  0  0  0  0  0  0  0  0
   -2.0894   -0.3533   -0.5133 H   0  0  0  0  0  0  0  0  0  0  0  0
   -2.7589    1.8128    1.5625 H   0  0  0  0  0  0  0  0  0  0  0  0
   -3.0246    0.0721    1.7794 H   0  0  0  0  0  0  0  0  0  0  0  0
   -6.7436    2.5966   -0.7335 H   0  0  0  0  0  0  0  0  0  0  0  0
   -5.7529    1.8365   -2.0110 H   0  0  0  0  0  0  0  0  0  0  0  0
   -7.7994    1.4729    0.9125 H   0  0  0  0  0  0  0  0  0  0  0  0
   -6.9925    0.0826    1.6339 H   0  0  0  0  0  0  0  0  0  0  0  0
   -9.3443    0.1640   -0.2261 H   0  0  0  0  0  0  0  0  0  0  0  0
   -9.0102   -0.9837    1.0798 H   0  0  0  0  0  0  0  0  0  0  0  0
   -7.3815   -2.1714   -0.2813 H   0  0  0  0  0  0  0  0  0  0  0  0
   -8.6788   -1.8200   -1.4387 H   0  0  0  0  0  0  0  0  0  0  0  0
   -6.2293   -1.0239   -2.0871 H   0  0  0  0  0  0  0  0  0  0  0  0
   -7.5479    0.1481   -2.2563 H   0  0  0  0  0  0  0  0  0  0  0  0
    1.8365    0.2955    2.1893 H   0  0  0  0  0  0  0  0  0  0  0  0
    4.1955   -0.0720    2.4981 H   0  0  0  0  0  0  0  0  0  0  0  0
  1  2  1  0
  2  3  1  0
  3  4  1  0
  4  5  2  0
  5  6  1  0
  6  7  1  0
  7  8  1  0
  8  9  2  0
  9 10  1  0
 10 11  2  0
 11 12  1  0
 12 13  1  0
 13 14  2  0
 13 15  1  0
 15 16  1  0
 16 17  1  0
 17 18  1  0
 18 19  2  0
 18 20  1  0
 20 21  1  0
 21 22  1  0
 22 23  1  0
 23 24  1  0
 24 25  1  0
 21 26  1  0
 26 27  2  0
 11 28  1  0
 28 29  2  0
  7 30  2  0
 30  4  1  0
 29  8  1  0
 26 17  1  0
 25 21  1  0
  1 31  1  0
  1 32  1  0
  1 33  1  0
  3 34  1  0
  3 35  1  0
  6 36  1  0
  9 37  1  0
 10 38  1  0
 12 39  1  0
 15 40  1  0
 15 41  1  0
 16 42  1  0
 16 43  1  0
 20 44  1  0
 20 45  1  0
 22 46  1  0
 22 47  1  0
 23 48  1  0
 23 49  1  0
 24 50  1  0
 24 51  1  0
 25 52  1  0
 25 53  1  0
 28 54  1  0
 29 55  1  0
M  END
$$$$
