
     RDKit          3D

 35 34  0  0  0  0  0  0  0  0999 V2000
   -4.5643    0.6771   -0.2619 C   0  0  0  0  0  0  0  0  0  0  0  0
   -3.3862   -0.2854   -0.0737 C   0  0  0  0  0  0  0  0  0  0  0  0
   -2.4177    0.3916    0.8799 C   0  0  0  0  0  0  0  0  0  0  0  0
   -1.2583   -0.3680    1.1815 N   0  0  0  0  0  0  0  0  0  0  0  0
   -0.3716   -0.4223    0.0354 C   0  0  1  0  0  0  0  0  0  0  0  0
    0.1858    0.9087   -0.3174 C   0  0  0  0  0  0  0  0  0  0  0  0
    1.3562    0.7387   -1.2562 C   0  0  0  0  0  0  0  0  0  0  0  0
    2.4528    0.1617   -0.4561 C   0  0  0  0  0  0  0  0  0  0  0  0
    3.6929    0.4644   -0.2594 N   0  0  0  0  0  0  0  0  0  0  0  0
    4.5180   -0.0336    0.3946 C   0  0  0  0  0  0  0  0  0  0  0  0
    5.8628    0.0752    0.7727 N   0  0  0  0  0  0  0  0  0  0  0  0
    3.4712   -1.4751    1.1143 S   0  0  0  0  0  0  0  0  0  0  0  0
    2.0362   -0.9965    0.2662 C   0  0  0  0  0  0  0  0  0  0  0  0
    0.6553   -1.4795    0.1440 C   0  0  0  0  0  0  0  0  0  0  0  0
    0.6891    0.0000    0.0000 Cl  0  0  0  0  0  0  0  0  0  0  0  0
    0.6861    0.0000    0.0000 Cl  0  0  0  0  0  0  0  0  0  0  0  0
   -4.5041    1.1708   -1.2620 H   0  0  0  0  0  0  0  0  0  0  0  0
   -4.5601    1.4421    0.5375 H   0  0  0  0  0  0  0  0  0  0  0  0
   -5.4978    0.0766   -0.2524 H   0  0  0  0  0  0  0  0  0  0  0  0
   -3.7177   -1.2725    0.2900 H   0  0  0  0  0  0  0  0  0  0  0  0
   -2.9579   -0.4251   -1.0819 H   0  0  0  0  0  0  0  0  0  0  0  0
   -2.1853    1.3809    0.3901 H   0  0  0  0  0  0  0  0  0  0  0  0
   -2.9195    0.6849    1.8444 H   0  0  0  0  0  0  0  0  0  0  0  0
   -1.4163   -1.3185    1.5088 H   0  0  0  0  0  0  0  0  0  0  0  0
   -1.0271   -0.7179   -0.8460 H   0  0  0  0  0  0  0  0  0  0  0  0
   -0.5502    1.6482   -0.7063 H   0  0  0  0  0  0  0  0  0  0  0  0
    0.5758    1.3756    0.6411 H   0  0  0  0  0  0  0  0  0  0  0  0
    1.0917   -0.0233   -2.0433 H   0  0  0  0  0  0  0  0  0  0  0  0
    1.6422    1.7073   -1.7329 H   0  0  0  0  0  0  0  0  0  0  0  0
    6.2035    0.9007    1.2982 H   0  0  0  0  0  0  0  0  0  0  0  0
    6.5314   -0.6741    0.5289 H   0  0  0  0  0  0  0  0  0  0  0  0
    0.4375   -2.0727    1.0624 H   0  0  0  0  0  0  0  0  0  0  0  0
    0.6211   -2.2397   -0.6930 H   0  0  0  0  0  0  0  0  0  0  0  0
   -0.6891    0.0000    0.0000 H   0  0  0  0  0  0  0  0  0  0  0  0
   -0.6861    0.0000    0.0000 H   0  0  0  0  0  0  0  0  0  0  0  0
  1  2  1  0
  2  3  1  0
  3  4  1  0
  4  5  1  0
  5  6  1  0
  6  7  1  0
  7  8  1  0
  8  9  1  0
  9 10  2  0
 10 11  1  0
 10 12  1  0
 12 13  1  0
 13 14  1  0
 14  5  1  0
 13  8  2  0
  1 17  1  0
  1 18  1  0
  1 19  1  0
  2 20  1  0
  2 21  1  0
  3 22  1  0
  3 23  1  0
  4 24  1  0
  5 25  1  6
  6 26  1  0
  6 27  1  0
  7 28  1  0
  7 29  1  0
 11 30  1  0
 11 31  1  0
 14 32  1  0
 14 33  1  0
 15 34  1  0
 16 35  1  0
M  END
$$$$
