
     RDKit          3D

 50 53  0  0  0  0  0  0  0  0999 V2000
    4.8738   -3.6535   -0.6771 O   0  0  0  0  0  0  0  0  0  0  0  0
    4.5614   -2.7737   -1.4601 C   0  0  0  0  0  0  0  0  0  0  0  0
    4.9474   -2.8316   -2.7486 O   0  0  0  0  0  0  0  0  0  0  0  0
    3.7377   -1.5562   -1.1704 C   0  0  0  0  0  0  0  0  0  0  0  0
    3.4498   -1.4645    0.3218 C   0  0  0  0  0  0  0  0  0  0  0  0
    2.6311   -0.3057    0.6464 N   0  0  0  0  0  0  0  0  0  0  0  0
    1.2679   -0.3037    0.8022 C   0  0  0  0  0  0  0  0  0  0  0  0
    0.8696    0.9917    1.0699 C   0  0  0  0  0  0  0  0  0  0  0  0
    2.0305    1.8079    1.0901 C   0  0  0  0  0  0  0  0  0  0  0  0
    2.2528    3.1822    1.3083 C   0  0  0  0  0  0  0  0  0  0  0  0
    3.5551    3.6864    1.2654 C   0  0  0  0  0  0  0  0  0  0  0  0
    4.6304    2.8421    1.0115 C   0  0  0  0  0  0  0  0  0  0  0  0
    4.4354    1.4752    0.7908 C   0  0  0  0  0  0  0  0  0  0  0  0
    3.1240    0.9751    0.8328 C   0  0  0  0  0  0  0  0  0  0  0  0
   -0.5558    1.3686    1.3058 C   0  0  0  0  0  0  0  0  0  0  0  0
   -1.5117    0.2642    0.7986 C   0  0  2  0  0  0  0  0  0  0  0  0
   -2.8654    0.4741    1.3429 N   0  0  0  0  0  0  0  0  0  0  0  0
   -3.9859    1.3703    0.4817 S   0  0  0  0  0  6  0  0  0  0  0  0
   -3.2865    2.4160   -0.2277 O   0  0  0  0  0  0  0  0  0  0  0  0
   -5.0686    1.6573    1.3949 O   0  0  0  0  0  0  0  0  0  0  0  0
   -4.5773    0.1737   -0.6895 C   0  0  0  0  0  0  0  0  0  0  0  0
   -4.1970    0.2624   -2.0337 C   0  0  0  0  0  0  0  0  0  0  0  0
   -4.6744   -0.6829   -2.9432 C   0  0  0  0  0  0  0  0  0  0  0  0
   -5.5260   -1.6930   -2.5028 C   0  0  0  0  0  0  0  0  0  0  0  0
   -5.9797   -2.5988   -3.3798 F   0  0  0  0  0  0  0  0  0  0  0  0
   -5.9159   -1.7771   -1.1683 C   0  0  0  0  0  0  0  0  0  0  0  0
   -5.4430   -0.8369   -0.2524 C   0  0  0  0  0  0  0  0  0  0  0  0
   -1.0353   -1.1397    1.2294 C   0  0  0  0  0  0  0  0  0  0  0  0
    0.3564   -1.4783    0.6676 C   0  0  0  0  0  0  0  0  0  0  0  0
    5.4682   -3.6599   -2.8137 H   0  0  0  0  0  0  0  0  0  0  0  0
    2.8034   -1.6235   -1.7403 H   0  0  0  0  0  0  0  0  0  0  0  0
    4.2918   -0.6722   -1.5065 H   0  0  0  0  0  0  0  0  0  0  0  0
    2.9305   -2.3609    0.6785 H   0  0  0  0  0  0  0  0  0  0  0  0
    4.3749   -1.3937    0.9073 H   0  0  0  0  0  0  0  0  0  0  0  0
    1.4196    3.8489    1.5066 H   0  0  0  0  0  0  0  0  0  0  0  0
    3.7261    4.7469    1.4326 H   0  0  0  0  0  0  0  0  0  0  0  0
    5.6387    3.2503    0.9839 H   0  0  0  0  0  0  0  0  0  0  0  0
    5.2850    0.8299    0.5951 H   0  0  0  0  0  0  0  0  0  0  0  0
   -0.7853    2.3202    0.8119 H   0  0  0  0  0  0  0  0  0  0  0  0
   -0.7013    1.5253    2.3823 H   0  0  0  0  0  0  0  0  0  0  0  0
   -1.5426    0.2815   -0.2988 H   0  0  0  0  0  0  0  0  0  0  0  0
   -3.0013    0.4905    2.3538 H   0  0  0  0  0  0  0  0  0  0  0  0
   -3.5374    1.0566   -2.3768 H   0  0  0  0  0  0  0  0  0  0  0  0
   -4.3928   -0.6373   -3.9917 H   0  0  0  0  0  0  0  0  0  0  0  0
   -6.5861   -2.5709   -0.8535 H   0  0  0  0  0  0  0  0  0  0  0  0
   -5.7488   -0.8920    0.7902 H   0  0  0  0  0  0  0  0  0  0  0  0
   -1.7525   -1.9031    0.9003 H   0  0  0  0  0  0  0  0  0  0  0  0
   -1.0083   -1.1951    2.3273 H   0  0  0  0  0  0  0  0  0  0  0  0
    0.2685   -1.7419   -0.3937 H   0  0  0  0  0  0  0  0  0  0  0  0
    0.7488   -2.3514    1.1988 H   0  0  0  0  0  0  0  0  0  0  0  0
  1  2  2  0
  2  3  1  0
  2  4  1  0
  4  5  1  0
  5  6  1  0
  6  7  1  0
  7  8  2  0
  8  9  1  0
  9 10  2  0
 10 11  1  0
 11 12  2  0
 12 13  1  0
 13 14  2  0
  8 15  1  0
 15 16  1  0
 16 17  1  0
 17 18  1  0
 18 19  2  0
 18 20  2  0
 18 21  1  0
 21 22  2  0
 22 23  1  0
 23 24  2  0
 24 25  1  0
 24 26  1  0
 26 27  2  0
 16 28  1  0
 28 29  1  0
 14  6  1  0
 27 21  1  0
 29  7  1  0
 14  9  1  0
  3 30  1  0
  4 31  1  0
  4 32  1  0
  5 33  1  0
  5 34  1  0
 10 35  1  0
 11 36  1  0
 12 37  1  0
 13 38  1  0
 15 39  1  0
 15 40  1  0
 16 41  1  6
 17 42  1  0
 22 43  1  0
 23 44  1  0
 26 45  1  0
 27 46  1  0
 28 47  1  0
 28 48  1  0
 29 49  1  0
 29 50  1  0
M  END
$$$$
