
     RDKit          3D

 20 20  0  0  0  0  0  0  0  0999 V2000
   -4.2988   -0.7107    0.0845 O   0  0  0  0  0  0  0  0  0  0  0  0
   -3.3185   -0.1751   -0.4079 C   0  0  0  0  0  0  0  0  0  0  0  0
   -3.4559    0.6489   -1.4639 O   0  0  0  0  0  0  0  0  0  0  0  0
   -1.9100   -0.3420    0.0550 C   0  0  0  0  0  0  0  0  0  0  0  0
   -1.7005   -1.3926    1.4273 S   0  0  0  0  0  0  0  0  0  0  0  0
   -0.8980    0.3000   -0.5582 C   0  0  0  0  0  0  0  0  0  0  0  0
    0.5233    0.2251   -0.2012 C   0  0  0  0  0  0  0  0  0  0  0  0
    1.2795   -0.9149   -0.4978 C   0  0  0  0  0  0  0  0  0  0  0  0
    2.6349   -0.9689   -0.1621 C   0  0  0  0  0  0  0  0  0  0  0  0
    3.2358    0.1208    0.4673 C   0  0  0  0  0  0  0  0  0  0  0  0
    5.2513    0.0421    0.9681 I   0  0  0  0  0  0  0  0  0  0  0  0
    2.4924    1.2634    0.7623 C   0  0  0  0  0  0  0  0  0  0  0  0
    1.1370    1.3152    0.4259 C   0  0  0  0  0  0  0  0  0  0  0  0
   -4.4209    0.6463   -1.6364 H   0  0  0  0  0  0  0  0  0  0  0  0
   -2.9955   -1.7113    1.6034 H   0  0  0  0  0  0  0  0  0  0  0  0
   -1.0945    0.9617   -1.3996 H   0  0  0  0  0  0  0  0  0  0  0  0
    0.8194   -1.7702   -0.9877 H   0  0  0  0  0  0  0  0  0  0  0  0
    3.2040   -1.8649   -0.3958 H   0  0  0  0  0  0  0  0  0  0  0  0
    2.9504    2.1179    1.2536 H   0  0  0  0  0  0  0  0  0  0  0  0
    0.5647    2.2092    0.6632 H   0  0  0  0  0  0  0  0  0  0  0  0
  1  2  2  0
  2  3  1  0
  2  4  1  0
  4  5  1  0
  4  6  2  0
  6  7  1  0
  7  8  2  0
  8  9  1  0
  9 10  2  0
 10 11  1  0
 10 12  1  0
 12 13  2  0
 13  7  1  0
  3 14  1  0
  5 15  1  0
  6 16  1  0
  8 17  1  0
  9 18  1  0
 12 19  1  0
 13 20  1  0
M  END
$$$$
