
     RDKit          3D

 36 38  0  0  0  0  0  0  0  0999 V2000
    4.8871    1.3179   -0.8201 C   0  0  0  0  0  0  0  0  0  0  0  0
    4.1035    1.5019    0.4658 C   0  0  0  0  0  0  0  0  0  0  0  0
    2.8365    0.8351    0.3715 O   0  0  0  0  0  0  0  0  0  0  0  0
    2.8289   -0.4848    0.7283 C   0  0  0  0  0  0  0  0  0  0  0  0
    3.8285   -1.0927    1.0944 O   0  0  0  0  0  0  0  0  0  0  0  0
    1.4950   -1.0960    0.6336 C   0  0  0  0  0  0  0  0  0  0  0  0
    1.2506   -2.3750    1.1032 N   0  0  0  0  0  0  0  0  0  0  0  0
   -0.0211   -2.6050    0.8840 C   0  0  0  0  0  0  0  0  0  0  0  0
   -0.6532   -1.5329    0.3024 N   0  0  0  0  0  0  0  0  0  0  0  0
    0.3263   -0.5848    0.0787 C   0  0  0  0  0  0  0  0  0  0  0  0
    0.0290    0.6431   -0.6800 C   0  0  0  0  0  0  0  0  0  0  0  0
   -0.8563    1.4380    0.1338 N   0  0  0  0  0  0  0  0  0  0  0  0
   -0.3364    2.6924    0.6529 C   0  0  0  0  0  0  0  0  0  0  0  0
   -2.1870    1.1099    0.3320 C   0  0  0  0  0  0  0  0  0  0  0  0
   -2.9792    1.8743    0.8810 O   0  0  0  0  0  0  0  0  0  0  0  0
   -2.7107   -0.2139   -0.1292 C   0  0  0  0  0  0  0  0  0  0  0  0
   -4.0630   -0.2101   -0.5187 C   0  0  0  0  0  0  0  0  0  0  0  0
   -4.7110   -1.3969   -0.8311 C   0  0  0  0  0  0  0  0  0  0  0  0
   -5.9964   -1.3709   -1.2040 F   0  0  0  0  0  0  0  0  0  0  0  0
   -4.0487   -2.6116   -0.7501 C   0  0  0  0  0  0  0  0  0  0  0  0
   -2.7096   -2.6420   -0.3584 C   0  0  0  0  0  0  0  0  0  0  0  0
   -2.0241   -1.4462   -0.0592 C   0  0  0  0  0  0  0  0  0  0  0  0
    5.1110    0.2612   -0.9965 H   0  0  0  0  0  0  0  0  0  0  0  0
    5.8286    1.8731   -0.7834 H   0  0  0  0  0  0  0  0  0  0  0  0
    4.3039    1.6673   -1.6786 H   0  0  0  0  0  0  0  0  0  0  0  0
    3.8924    2.5656    0.6176 H   0  0  0  0  0  0  0  0  0  0  0  0
    4.6732    1.1612    1.3378 H   0  0  0  0  0  0  0  0  0  0  0  0
   -0.5335   -3.5153    1.1659 H   0  0  0  0  0  0  0  0  0  0  0  0
   -0.4732    0.4024   -1.6252 H   0  0  0  0  0  0  0  0  0  0  0  0
    0.9161    1.2211   -0.9471 H   0  0  0  0  0  0  0  0  0  0  0  0
   -1.0486    3.1871    1.3182 H   0  0  0  0  0  0  0  0  0  0  0  0
   -0.1174    3.3558   -0.1890 H   0  0  0  0  0  0  0  0  0  0  0  0
    0.5828    2.4922    1.2111 H   0  0  0  0  0  0  0  0  0  0  0  0
   -4.6293    0.7183   -0.5577 H   0  0  0  0  0  0  0  0  0  0  0  0
   -4.5781   -3.5279   -0.9955 H   0  0  0  0  0  0  0  0  0  0  0  0
   -2.2167   -3.6118   -0.3338 H   0  0  0  0  0  0  0  0  0  0  0  0
  1  2  1  0
  2  3  1  0
  3  4  1  0
  4  5  2  0
  4  6  1  0
  6  7  1  0
  7  8  2  0
  8  9  1  0
  9 10  1  0
 10 11  1  0
 11 12  1  0
 12 13  1  0
 12 14  1  0
 14 15  2  0
 14 16  1  0
 16 17  2  0
 17 18  1  0
 18 19  1  0
 18 20  2  0
 20 21  1  0
 21 22  2  0
 10  6  2  0
 22 16  1  0
 22  9  1  0
  1 23  1  0
  1 24  1  0
  1 25  1  0
  2 26  1  0
  2 27  1  0
  8 28  1  0
 11 29  1  0
 11 30  1  0
 13 31  1  0
 13 32  1  0
 13 33  1  0
 17 34  1  0
 20 35  1  0
 21 36  1  0
M  END
$$$$
