
     RDKit          3D

 68 71  0  0  0  0  0  0  0  0999 V2000
   11.1049    1.4424   -0.0171 C   0  0  0  0  0  0  0  0  0  0  0  0
    9.5869    1.5504   -0.0486 C   0  0  0  0  0  0  0  0  0  0  0  0
    8.9315    0.1649   -0.1016 C   0  0  0  0  0  0  0  0  0  0  0  0
    7.4695    0.2342   -0.2507 N   0  0  0  0  0  0  0  0  0  0  0  0
    6.8035    0.7320    0.9701 C   0  0  0  0  0  0  0  0  0  0  0  0
    5.2619    0.7217    0.8460 C   0  0  0  0  0  0  0  0  0  0  0  0
    4.7252   -0.6212    0.5358 N   0  0  0  0  0  0  0  0  0  0  0  0
    3.2599   -0.5506    0.3751 C   0  0  0  0  0  0  0  0  0  0  0  0
    2.5869   -1.9332    0.2770 C   0  0  0  0  0  0  0  0  0  0  0  0
    1.1382   -1.8505    0.3529 N   0  0  0  0  0  0  0  0  0  0  0  0
    0.3803   -1.4285   -0.7178 C   0  0  0  0  0  0  0  0  0  0  0  0
    0.8730   -1.1352   -1.8021 O   0  0  0  0  0  0  0  0  0  0  0  0
   -1.1172   -1.3844   -0.4353 C   0  0  0  0  0  0  0  0  0  0  0  0
   -1.4453   -0.3398    0.6353 C   0  0  0  0  0  0  0  0  0  0  0  0
   -2.9474   -0.2770    0.9050 C   0  0  0  0  0  0  0  0  0  0  0  0
   -3.6840   -0.0672   -0.3399 N   0  0  0  0  0  0  0  0  0  0  0  0
   -5.0534    0.1650   -0.1447 C   0  0  0  0  0  0  0  0  0  0  0  0
   -5.4789    0.6010    1.0536 N   0  0  0  0  0  0  0  0  0  0  0  0
   -6.7998    0.8465    1.2074 C   0  0  0  0  0  0  0  0  0  0  0  0
   -7.7507    0.6754    0.2237 C   0  0  0  0  0  0  0  0  0  0  0  0
   -9.1781    0.9455    0.4183 C   0  0  0  0  0  0  0  0  0  0  0  0
   -9.9056    1.7099   -0.5110 C   0  0  0  0  0  0  0  0  0  0  0  0
  -11.2674    1.9655   -0.3272 C   0  0  0  0  0  0  0  0  0  0  0  0
  -11.9276    1.4606    0.7898 C   0  0  0  0  0  0  0  0  0  0  0  0
  -11.2274    0.7013    1.7232 C   0  0  0  0  0  0  0  0  0  0  0  0
   -9.8655    0.4468    1.5392 C   0  0  0  0  0  0  0  0  0  0  0  0
   -7.2144    0.2216   -0.9626 C   0  0  0  0  0  0  0  0  0  0  0  0
   -5.9028   -0.0351   -1.1663 N   0  0  0  0  0  0  0  0  0  0  0  0
   -3.4051   -0.9975   -1.4353 C   0  0  0  0  0  0  0  0  0  0  0  0
   -1.9054   -1.0649   -1.7089 C   0  0  0  0  0  0  0  0  0  0  0  0
    5.3855   -1.1129   -0.6930 C   0  0  0  0  0  0  0  0  0  0  0  0
    6.9280   -1.1021   -0.5761 C   0  0  0  0  0  0  0  0  0  0  0  0
   11.4405    0.8940    0.8695 H   0  0  0  0  0  0  0  0  0  0  0  0
   11.5542    2.4402    0.0108 H   0  0  0  0  0  0  0  0  0  0  0  0
   11.4811    0.9260   -0.9060 H   0  0  0  0  0  0  0  0  0  0  0  0
    9.2632    2.1012    0.8408 H   0  0  0  0  0  0  0  0  0  0  0  0
    9.2888    2.1380   -0.9256 H   0  0  0  0  0  0  0  0  0  0  0  0
    9.2084   -0.4177    0.7869 H   0  0  0  0  0  0  0  0  0  0  0  0
    9.3501   -0.3622   -0.9690 H   0  0  0  0  0  0  0  0  0  0  0  0
    7.1058    1.7654    1.1700 H   0  0  0  0  0  0  0  0  0  0  0  0
    7.0959    0.1298    1.8407 H   0  0  0  0  0  0  0  0  0  0  0  0
    4.9605    1.4448    0.0755 H   0  0  0  0  0  0  0  0  0  0  0  0
    4.8444    1.0682    1.7994 H   0  0  0  0  0  0  0  0  0  0  0  0
    2.8351   -0.0464    1.2542 H   0  0  0  0  0  0  0  0  0  0  0  0
    2.9878    0.0644   -0.4930 H   0  0  0  0  0  0  0  0  0  0  0  0
    2.8490   -2.4291   -0.6636 H   0  0  0  0  0  0  0  0  0  0  0  0
    2.9088   -2.5740    1.1054 H   0  0  0  0  0  0  0  0  0  0  0  0
    0.6938   -2.0684    1.2342 H   0  0  0  0  0  0  0  0  0  0  0  0
   -1.4112   -2.3817   -0.0804 H   0  0  0  0  0  0  0  0  0  0  0  0
   -0.9250   -0.5602    1.5741 H   0  0  0  0  0  0  0  0  0  0  0  0
   -1.0881    0.6456    0.3074 H   0  0  0  0  0  0  0  0  0  0  0  0
   -3.1120    0.5453    1.6129 H   0  0  0  0  0  0  0  0  0  0  0  0
   -3.2729   -1.2086    1.3874 H   0  0  0  0  0  0  0  0  0  0  0  0
   -7.0702    1.2134    2.1944 H   0  0  0  0  0  0  0  0  0  0  0  0
   -9.4130    2.1294   -1.3870 H   0  0  0  0  0  0  0  0  0  0  0  0
  -11.8108    2.5612   -1.0567 H   0  0  0  0  0  0  0  0  0  0  0  0
  -12.9870    1.6587    0.9324 H   0  0  0  0  0  0  0  0  0  0  0  0
  -11.7415    0.3018    2.5944 H   0  0  0  0  0  0  0  0  0  0  0  0
   -9.3482   -0.1629    2.2782 H   0  0  0  0  0  0  0  0  0  0  0  0
   -7.8428    0.0289   -1.8282 H   0  0  0  0  0  0  0  0  0  0  0  0
   -3.7797   -1.9998   -1.1878 H   0  0  0  0  0  0  0  0  0  0  0  0
   -3.8875   -0.6765   -2.3672 H   0  0  0  0  0  0  0  0  0  0  0  0
   -1.7083   -1.8225   -2.4775 H   0  0  0  0  0  0  0  0  0  0  0  0
   -1.5704   -0.1046   -2.1238 H   0  0  0  0  0  0  0  0  0  0  0  0
    5.0878   -0.5081   -1.5605 H   0  0  0  0  0  0  0  0  0  0  0  0
    5.0810   -2.1460   -0.8930 H   0  0  0  0  0  0  0  0  0  0  0  0
    7.3399   -1.4371   -1.5357 H   0  0  0  0  0  0  0  0  0  0  0  0
    7.2332   -1.8348    0.1830 H   0  0  0  0  0  0  0  0  0  0  0  0
  1  2  1  0
  2  3  1  0
  3  4  1  0
  4  5  1  0
  5  6  1  0
  6  7  1  0
  7  8  1  0
  8  9  1  0
  9 10  1  0
 10 11  1  0
 11 12  2  0
 11 13  1  0
 13 14  1  0
 14 15  1  0
 15 16  1  0
 16 17  1  0
 17 18  2  0
 18 19  1  0
 19 20  2  0
 20 21  1  0
 21 22  2  0
 22 23  1  0
 23 24  2  0
 24 25  1  0
 25 26  2  0
 20 27  1  0
 27 28  2  0
 16 29  1  0
 29 30  1  0
  7 31  1  0
 31 32  1  0
 32  4  1  0
 30 13  1  0
 28 17  1  0
 26 21  1  0
  1 33  1  0
  1 34  1  0
  1 35  1  0
  2 36  1  0
  2 37  1  0
  3 38  1  0
  3 39  1  0
  5 40  1  0
  5 41  1  0
  6 42  1  0
  6 43  1  0
  8 44  1  0
  8 45  1  0
  9 46  1  0
  9 47  1  0
 10 48  1  0
 13 49  1  0
 14 50  1  0
 14 51  1  0
 15 52  1  0
 15 53  1  0
 19 54  1  0
 22 55  1  0
 23 56  1  0
 24 57  1  0
 25 58  1  0
 26 59  1  0
 27 60  1  0
 29 61  1  0
 29 62  1  0
 30 63  1  0
 30 64  1  0
 31 65  1  0
 31 66  1  0
 32 67  1  0
 32 68  1  0
M  END
$$$$
