
     RDKit          3D

 44 45  0  0  0  0  0  0  0  0999 V2000
   -4.5604    1.2707   -0.1587 C   0  0  0  0  0  0  0  0  0  0  0  0
   -4.3756   -0.2422    0.0000 C   0  0  0  0  0  0  0  0  0  0  0  0
   -5.6778   -0.8318    0.1520 N   0  0  0  0  0  0  0  0  0  0  0  0
   -3.5836   -0.5121    1.2661 C   0  0  0  0  0  0  0  0  0  0  0  0
   -2.2571    0.1972    1.0867 C   0  0  0  0  0  0  0  0  0  0  0  0
   -1.5459   -0.4700    0.0130 N   0  0  0  0  0  0  0  0  0  0  0  0
   -0.1337   -0.3355    0.0143 C   0  0  0  0  0  0  0  0  0  0  0  0
    0.6321   -0.9882   -0.9145 C   0  0  0  0  0  0  0  0  0  0  0  0
    1.9777   -0.8611   -0.9261 N   0  0  0  0  0  0  0  0  0  0  0  0
    2.5954   -0.0853   -0.0190 C   0  0  0  0  0  0  0  0  0  0  0  0
    4.0472    0.0694   -0.0131 C   0  0  0  0  0  0  0  0  0  0  0  0
    4.8048   -0.1613    1.1052 C   0  0  0  0  0  0  0  0  0  0  0  0
    6.1763   -0.0132    1.1165 C   0  0  0  0  0  0  0  0  0  0  0  0
    6.7646    0.3828   -0.0602 C   0  0  0  0  0  0  0  0  0  0  0  0
    6.0369    0.6243   -1.2054 C   0  0  0  0  0  0  0  0  0  0  0  0
    6.8491    1.1300   -2.6862 Cl  0  0  0  0  0  0  0  0  0  0  0  0
    4.6673    0.4632   -1.1702 C   0  0  0  0  0  0  0  0  0  0  0  0
    3.7750    0.7787   -2.6497 Cl  0  0  0  0  0  0  0  0  0  0  0  0
    1.8446    0.5821    0.9268 C   0  0  0  0  0  0  0  0  0  0  0  0
    2.4967    1.4208    1.9109 N   0  0  0  0  0  0  0  0  0  0  0  0
    0.5086    0.4464    0.9261 N   0  0  0  0  0  0  0  0  0  0  0  0
   -2.2628   -1.2125   -0.9831 C   0  0  0  0  0  0  0  0  0  0  0  0
   -3.6754   -0.7756   -1.2052 C   0  0  0  0  0  0  0  0  0  0  0  0
    0.6850    0.0000    0.0000 Cl  0  0  0  0  0  0  0  0  0  0  0  0
   -5.5632    1.5079   -0.5472 H   0  0  0  0  0  0  0  0  0  0  0  0
   -4.4223    1.8012    0.7995 H   0  0  0  0  0  0  0  0  0  0  0  0
   -3.8070    1.6475   -0.8890 H   0  0  0  0  0  0  0  0  0  0  0  0
   -6.4467   -0.3055   -0.2943 H   0  0  0  0  0  0  0  0  0  0  0  0
   -5.7002   -1.8116   -0.2085 H   0  0  0  0  0  0  0  0  0  0  0  0
   -4.1243   -0.0474    2.1153 H   0  0  0  0  0  0  0  0  0  0  0  0
   -3.4788   -1.6045    1.3475 H   0  0  0  0  0  0  0  0  0  0  0  0
   -1.7304    0.1715    2.0475 H   0  0  0  0  0  0  0  0  0  0  0  0
   -2.4663    1.2169    0.7402 H   0  0  0  0  0  0  0  0  0  0  0  0
    0.1610   -1.6188   -1.6541 H   0  0  0  0  0  0  0  0  0  0  0  0
    4.3469   -0.4771    2.0493 H   0  0  0  0  0  0  0  0  0  0  0  0
    6.7619   -0.2035    2.0258 H   0  0  0  0  0  0  0  0  0  0  0  0
    7.8361    0.5184   -0.1170 H   0  0  0  0  0  0  0  0  0  0  0  0
    2.7509    2.3832    1.5961 H   0  0  0  0  0  0  0  0  0  0  0  0
    2.6911    1.0567    2.8764 H   0  0  0  0  0  0  0  0  0  0  0  0
   -2.1877   -2.3193   -0.8029 H   0  0  0  0  0  0  0  0  0  0  0  0
   -1.7429   -1.0563   -1.9761 H   0  0  0  0  0  0  0  0  0  0  0  0
   -3.7552   -0.0489   -2.0581 H   0  0  0  0  0  0  0  0  0  0  0  0
   -4.2268   -1.6870   -1.5817 H   0  0  0  0  0  0  0  0  0  0  0  0
   -0.6850    0.0000    0.0000 H   0  0  0  0  0  0  0  0  0  0  0  0
  1  2  1  0
  2  3  1  0
  2  4  1  0
  4  5  1  0
  5  6  1  0
  6  7  1  0
  7  8  2  0
  8  9  1  0
  9 10  2  0
 10 11  1  0
 11 12  2  0
 12 13  1  0
 13 14  2  0
 14 15  1  0
 15 16  1  0
 15 17  2  0
 17 18  1  0
 10 19  1  0
 19 20  1  0
 19 21  2  0
  6 22  1  0
 22 23  1  0
 23  2  1  0
 21  7  1  0
 17 11  1  0
  1 25  1  0
  1 26  1  0
  1 27  1  0
  3 28  1  0
  3 29  1  0
  4 30  1  0
  4 31  1  0
  5 32  1  0
  5 33  1  0
  8 34  1  0
 12 35  1  0
 13 36  1  0
 14 37  1  0
 20 38  1  0
 20 39  1  0
 22 40  1  0
 22 41  1  0
 23 42  1  0
 23 43  1  0
 24 44  1  0
M  END
$$$$
