
     RDKit          3D

 76 78  0  0  0  0  0  0  0  0999 V2000
   -0.7384    0.1492   -1.6550 C   0  0  0  0  0  0  0  0  0  0  0  0
   -0.6882   -0.6959   -0.4067 C   0  0  0  0  0  0  0  0  0  0  0  0
    0.4250   -1.5361   -0.2076 C   0  0  0  0  0  0  0  0  0  0  0  0
    0.5290   -2.3350    0.9238 C   0  0  0  0  0  0  0  0  0  0  0  0
    1.5403   -3.1964    1.2334 O   0  0  0  0  0  0  0  0  0  0  0  0
    2.5682   -3.5652    0.3009 C   0  0  1  0  0  0  0  0  0  0  0  0
    2.0216   -4.4021   -0.8772 C   0  0  0  0  0  0  0  0  0  0  0  0
    1.5629   -5.8245   -0.5165 C   0  0  0  0  0  0  0  0  0  0  0  0
    0.4368   -5.9473    0.4863 C   0  0  0  0  0  0  0  0  0  0  0  0
    0.0100   -7.2336    0.5271 F   0  0  0  0  0  0  0  0  0  0  0  0
   -0.6213   -5.1866    0.1487 F   0  0  0  0  0  0  0  0  0  0  0  0
    0.8299   -5.6299    1.7342 F   0  0  0  0  0  0  0  0  0  0  0  0
    3.5163   -2.4052   -0.0009 C   0  0  0  0  0  0  0  0  0  0  0  0
    4.0580   -1.6823    1.0796 C   0  0  0  0  0  0  0  0  0  0  0  0
    4.9370   -0.6144    0.8731 C   0  0  0  0  0  0  0  0  0  0  0  0
    5.2916   -0.2459   -0.4271 C   0  0  0  0  0  0  0  0  0  0  0  0
    6.2185    0.8855   -0.7081 C   0  0  0  0  0  0  0  0  0  0  0  0
    6.8525    0.9184   -1.7563 O   0  0  0  0  0  0  0  0  0  0  0  0
    6.2754    1.8855    0.2414 N   0  0  0  0  0  0  0  0  0  0  0  0
    7.0102    3.1144   -0.0046 C   0  0  0  0  0  0  0  0  0  0  0  0
    6.1986    4.1281   -0.8013 C   0  0  0  0  0  0  0  0  0  0  0  0
    5.2203    4.8920    0.0465 C   0  0  0  0  0  0  0  0  0  0  0  0
    4.9261    6.0679   -0.0976 O   0  0  0  0  0  0  0  0  0  0  0  0
    4.6019    4.1556    0.9930 O   0  0  0  0  0  0  0  0  0  0  0  0
    4.7805   -0.9710   -1.5095 C   0  0  0  0  0  0  0  0  0  0  0  0
    3.9001   -2.0379   -1.2993 C   0  0  0  0  0  0  0  0  0  0  0  0
   -0.4862   -2.2819    1.8797 C   0  0  0  0  0  0  0  0  0  0  0  0
   -1.6149   -1.4619    1.7113 C   0  0  0  0  0  0  0  0  0  0  0  0
   -2.6778   -1.4658    2.7793 C   0  0  0  0  0  0  0  0  0  0  0  0
   -1.7273   -0.6552    0.5546 C   0  0  0  0  0  0  0  0  0  0  0  0
   -2.9070    0.2029    0.3491 C   0  0  0  0  0  0  0  0  0  0  0  0
   -3.9924   -0.2455   -0.4101 C   0  0  0  0  0  0  0  0  0  0  0  0
   -5.1125    0.5687   -0.6100 C   0  0  0  0  0  0  0  0  0  0  0  0
   -5.1953    1.8578   -0.0500 C   0  0  0  0  0  0  0  0  0  0  0  0
   -6.4457    2.7234   -0.2869 C   0  0  0  0  0  0  0  0  0  0  0  0
   -7.7087    1.9641    0.1760 C   0  0  0  0  0  0  0  0  0  0  0  0
   -6.5683    3.0443   -1.7915 C   0  0  0  0  0  0  0  0  0  0  0  0
   -6.4247    4.0692    0.4721 C   0  0  0  0  0  0  0  0  0  0  0  0
   -4.0987    2.2983    0.7093 C   0  0  0  0  0  0  0  0  0  0  0  0
   -2.9741    1.4852    0.9040 C   0  0  0  0  0  0  0  0  0  0  0  0
   -1.6130   -0.1089   -2.2597 H   0  0  0  0  0  0  0  0  0  0  0  0
   -0.7700    1.2119   -1.3953 H   0  0  0  0  0  0  0  0  0  0  0  0
    0.1457   -0.0068   -2.2822 H   0  0  0  0  0  0  0  0  0  0  0  0
    1.1992   -1.5370   -0.9643 H   0  0  0  0  0  0  0  0  0  0  0  0
    3.2048   -4.2643    0.8630 H   0  0  0  0  0  0  0  0  0  0  0  0
    1.1939   -3.8873   -1.3751 H   0  0  0  0  0  0  0  0  0  0  0  0
    2.8076   -4.5337   -1.6300 H   0  0  0  0  0  0  0  0  0  0  0  0
    2.4238   -6.3962   -0.1497 H   0  0  0  0  0  0  0  0  0  0  0  0
    1.2444   -6.3143   -1.4453 H   0  0  0  0  0  0  0  0  0  0  0  0
    3.7883   -1.9532    2.1002 H   0  0  0  0  0  0  0  0  0  0  0  0
    5.3505   -0.1028    1.7377 H   0  0  0  0  0  0  0  0  0  0  0  0
    5.5350    1.9404    0.9313 H   0  0  0  0  0  0  0  0  0  0  0  0
    7.3028    3.5168    0.9711 H   0  0  0  0  0  0  0  0  0  0  0  0
    7.9241    2.8628   -0.5558 H   0  0  0  0  0  0  0  0  0  0  0  0
    6.8921    4.8679   -1.2182 H   0  0  0  0  0  0  0  0  0  0  0  0
    5.6544    3.6629   -1.6300 H   0  0  0  0  0  0  0  0  0  0  0  0
    3.9753    4.7900    1.4028 H   0  0  0  0  0  0  0  0  0  0  0  0
    5.0640   -0.7020   -2.5262 H   0  0  0  0  0  0  0  0  0  0  0  0
    3.5187   -2.5570   -2.1752 H   0  0  0  0  0  0  0  0  0  0  0  0
   -0.3991   -2.9095    2.7653 H   0  0  0  0  0  0  0  0  0  0  0  0
   -3.6513   -1.7346    2.3560 H   0  0  0  0  0  0  0  0  0  0  0  0
   -2.7428   -0.4822    3.2548 H   0  0  0  0  0  0  0  0  0  0  0  0
   -2.4551   -2.1948    3.5659 H   0  0  0  0  0  0  0  0  0  0  0  0
   -3.9705   -1.2389   -0.8535 H   0  0  0  0  0  0  0  0  0  0  0  0
   -5.9257    0.1718   -1.2131 H   0  0  0  0  0  0  0  0  0  0  0  0
   -7.8781    1.0493   -0.4017 H   0  0  0  0  0  0  0  0  0  0  0  0
   -7.6337    1.6803    1.2314 H   0  0  0  0  0  0  0  0  0  0  0  0
   -8.6067    2.5816    0.0596 H   0  0  0  0  0  0  0  0  0  0  0  0
   -5.6794    3.5727   -2.1568 H   0  0  0  0  0  0  0  0  0  0  0  0
   -7.4388    3.6804   -1.9897 H   0  0  0  0  0  0  0  0  0  0  0  0
   -6.6850    2.1400   -2.3990 H   0  0  0  0  0  0  0  0  0  0  0  0
   -5.5832    4.6983    0.1598 H   0  0  0  0  0  0  0  0  0  0  0  0
   -6.3553    3.9172    1.5552 H   0  0  0  0  0  0  0  0  0  0  0  0
   -7.3391    4.6441    0.2835 H   0  0  0  0  0  0  0  0  0  0  0  0
   -4.0844    3.2831    1.1680 H   0  0  0  0  0  0  0  0  0  0  0  0
   -2.1426    1.8609    1.4974 H   0  0  0  0  0  0  0  0  0  0  0  0
  1  2  1  0
  2  3  2  0
  3  4  1  0
  4  5  1  0
  5  6  1  0
  6  7  1  0
  7  8  1  0
  8  9  1  0
  9 10  1  0
  9 11  1  0
  9 12  1  0
  6 13  1  0
 13 14  2  0
 14 15  1  0
 15 16  2  0
 16 17  1  0
 17 18  2  0
 17 19  1  0
 19 20  1  0
 20 21  1  0
 21 22  1  0
 22 23  2  0
 22 24  1  0
 16 25  1  0
 25 26  2  0
  4 27  2  0
 27 28  1  0
 28 29  1  0
 28 30  2  0
 30 31  1  0
 31 32  2  0
 32 33  1  0
 33 34  2  0
 34 35  1  0
 35 36  1  0
 35 37  1  0
 35 38  1  0
 34 39  1  0
 39 40  2  0
 30  2  1  0
 40 31  1  0
 26 13  1  0
  1 41  1  0
  1 42  1  0
  1 43  1  0
  3 44  1  0
  6 45  1  1
  7 46  1  0
  7 47  1  0
  8 48  1  0
  8 49  1  0
 14 50  1  0
 15 51  1  0
 19 52  1  0
 20 53  1  0
 20 54  1  0
 21 55  1  0
 21 56  1  0
 24 57  1  0
 25 58  1  0
 26 59  1  0
 27 60  1  0
 29 61  1  0
 29 62  1  0
 29 63  1  0
 32 64  1  0
 33 65  1  0
 36 66  1  0
 36 67  1  0
 36 68  1  0
 37 69  1  0
 37 70  1  0
 37 71  1  0
 38 72  1  0
 38 73  1  0
 38 74  1  0
 39 75  1  0
 40 76  1  0
M  END
$$$$
