
     RDKit          3D

100103  0  0  0  0  0  0  0  0999 V2000
   11.4963   -1.1134   -0.7513 C   0  0  0  0  0  0  0  0  0  0  0  0
   10.4993   -2.0879   -1.3629 C   0  0  0  0  0  0  0  0  0  0  0  0
    9.4693   -2.6042   -0.3544 C   0  0  0  0  0  0  0  0  0  0  0  0
    8.1071   -1.9024   -0.4138 C   0  0  0  0  0  0  0  0  0  0  0  0
    8.1582   -0.4122   -0.0765 C   0  0  0  0  0  0  0  0  0  0  0  0
    6.7807    0.2576   -0.0958 C   0  0  0  0  0  0  0  0  0  0  0  0
    5.8665   -0.1822    1.0507 C   0  0  0  0  0  0  0  0  0  0  0  0
    4.5510    0.6012    1.0337 C   0  0  0  0  0  0  0  0  0  0  0  0
    3.6112    0.1517    2.1558 C   0  0  0  0  0  0  0  0  0  0  0  0
    2.2337    0.8177    2.0755 C   0  0  0  0  0  0  0  0  0  0  0  0
    2.2509    2.3019    2.4484 C   0  0  0  0  0  0  0  0  0  0  0  0
    0.8755    2.9731    2.3314 C   0  0  0  0  0  0  0  0  0  0  0  0
    0.5562    3.4906    0.9296 C   0  0  0  0  0  0  0  0  0  0  0  0
    0.0887    2.4161   -0.0177 C   0  0  0  0  0  0  0  0  0  0  0  0
    0.7876    1.9344   -0.8977 O   0  0  0  0  0  0  0  0  0  0  0  0
   -1.1999    2.0799    0.2549 O   0  0  0  0  0  0  0  0  0  0  0  0
   -1.7743    1.0018   -0.5245 C   0  0  2  0  0  0  0  0  0  0  0  0
   -3.2113    1.4271   -0.9135 C   0  0  1  0  0  0  0  0  0  0  0  0
   -3.0171    2.4117   -2.1063 C   0  0  0  0  0  0  0  0  0  0  0  0
   -4.1917    0.2491   -1.2384 C   0  0  1  0  0  0  0  0  0  0  0  0
   -3.7117   -0.3040   -2.4952 O   0  0  0  0  0  0  0  0  0  0  0  0
   -4.1363   -0.9499   -0.2145 C   0  0  1  0  0  0  0  0  0  0  0  0
   -4.7945   -2.2204   -0.7697 C   0  0  0  0  0  0  0  0  0  0  0  0
   -6.0587   -2.4271   -1.1995 C   0  0  0  0  0  0  0  0  0  0  0  0
   -6.5171   -3.7703   -1.7437 C   0  0  0  0  0  0  0  0  0  0  0  0
   -5.6470   -4.8315   -1.3857 O   0  0  0  0  0  0  0  0  0  0  0  0
   -7.1629   -1.3904   -1.2468 C   0  0  0  0  0  0  0  0  0  0  0  0
   -6.8398    0.0061   -0.7336 C   0  0  2  0  0  0  0  0  0  0  0  0
   -6.7002    0.0218    0.6999 O   0  0  0  0  0  0  0  0  0  0  0  0
   -7.9783    0.9871   -0.9485 C   0  0  0  0  0  0  0  0  0  0  0  0
   -9.1714    0.7244   -0.9190 O   0  0  0  0  0  0  0  0  0  0  0  0
   -7.4386    2.3515   -1.0850 C   0  0  0  0  0  0  0  0  0  0  0  0
   -8.2609    3.5706   -0.9548 C   0  0  0  0  0  0  0  0  0  0  0  0
   -6.1256    2.1855   -1.2989 C   0  0  0  0  0  0  0  0  0  0  0  0
   -5.6953    0.7316   -1.4943 C   0  0  1  0  0  0  0  0  0  0  0  0
   -2.7469   -1.2506    0.3361 C   0  0  2  0  0  0  0  0  0  0  0  0
   -2.2412   -0.5741    1.6152 C   0  0  0  0  0  0  0  0  0  0  0  0
   -1.4870   -1.4613    2.5859 C   0  0  0  0  0  0  0  0  0  0  0  0
   -3.0297    0.4889    2.3405 C   0  0  0  0  0  0  0  0  0  0  0  0
   -1.6075   -0.2782    0.2466 C   0  0  2  0  0  0  0  0  0  0  0  0
   -0.2631   -0.8267    0.1316 O   0  0  0  0  0  0  0  0  0  0  0  0
    0.1104   -1.4125   -1.0416 C   0  0  0  0  0  0  0  0  0  0  0  0
    1.5540   -1.8044   -0.9751 C   0  0  0  0  0  0  0  0  0  0  0  0
   -0.6062   -1.5829   -2.0174 O   0  0  0  0  0  0  0  0  0  0  0  0
   12.0725   -1.5969    0.0439 H   0  0  0  0  0  0  0  0  0  0  0  0
   12.2029   -0.7712   -1.5141 H   0  0  0  0  0  0  0  0  0  0  0  0
   11.0057   -0.2337   -0.3265 H   0  0  0  0  0  0  0  0  0  0  0  0
   11.0685   -2.9421   -1.7503 H   0  0  0  0  0  0  0  0  0  0  0  0
   10.0066   -1.6268   -2.2251 H   0  0  0  0  0  0  0  0  0  0  0  0
    9.2902   -3.6648   -0.5684 H   0  0  0  0  0  0  0  0  0  0  0  0
    9.8680   -2.5626    0.6657 H   0  0  0  0  0  0  0  0  0  0  0  0
    7.4415   -2.4178    0.2873 H   0  0  0  0  0  0  0  0  0  0  0  0
    7.6741   -2.0362   -1.4129 H   0  0  0  0  0  0  0  0  0  0  0  0
    8.7816    0.1028   -0.8156 H   0  0  0  0  0  0  0  0  0  0  0  0
    8.6300   -0.2639    0.9013 H   0  0  0  0  0  0  0  0  0  0  0  0
    6.2917    0.0611   -1.0572 H   0  0  0  0  0  0  0  0  0  0  0  0
    6.9293    1.3432   -0.0358 H   0  0  0  0  0  0  0  0  0  0  0  0
    5.6470   -1.2519    0.9693 H   0  0  0  0  0  0  0  0  0  0  0  0
    6.3748   -0.0246    2.0091 H   0  0  0  0  0  0  0  0  0  0  0  0
    4.0579    0.4615    0.0643 H   0  0  0  0  0  0  0  0  0  0  0  0
    4.7699    1.6702    1.1329 H   0  0  0  0  0  0  0  0  0  0  0  0
    4.0681    0.3512    3.1315 H   0  0  0  0  0  0  0  0  0  0  0  0
    3.4695   -0.9336    2.0862 H   0  0  0  0  0  0  0  0  0  0  0  0
    1.5552    0.2923    2.7584 H   0  0  0  0  0  0  0  0  0  0  0  0
    1.8358    0.6771    1.0694 H   0  0  0  0  0  0  0  0  0  0  0  0
    2.5838    2.3842    3.4905 H   0  0  0  0  0  0  0  0  0  0  0  0
    2.9804    2.8518    1.8456 H   0  0  0  0  0  0  0  0  0  0  0  0
    0.0908    2.2986    2.6919 H   0  0  0  0  0  0  0  0  0  0  0  0
    0.8774    3.8413    3.0023 H   0  0  0  0  0  0  0  0  0  0  0  0
    1.4224    3.9940    0.4858 H   0  0  0  0  0  0  0  0  0  0  0  0
   -0.2350    4.2484    0.9818 H   0  0  0  0  0  0  0  0  0  0  0  0
   -1.2112    0.8833   -1.4572 H   0  0  0  0  0  0  0  0  0  0  0  0
   -3.6412    2.0154   -0.0957 H   0  0  0  0  0  0  0  0  0  0  0  0
   -3.9327    2.6333   -2.6541 H   0  0  0  0  0  0  0  0  0  0  0  0
   -2.3190    2.0161   -2.8538 H   0  0  0  0  0  0  0  0  0  0  0  0
   -2.6046    3.3615   -1.7477 H   0  0  0  0  0  0  0  0  0  0  0  0
   -3.8350    0.3363   -3.2152 H   0  0  0  0  0  0  0  0  0  0  0  0
   -4.6859   -0.6924    0.6872 H   0  0  0  0  0  0  0  0  0  0  0  0
   -4.1033   -3.0566   -0.8812 H   0  0  0  0  0  0  0  0  0  0  0  0
   -7.5085   -4.0230   -1.3528 H   0  0  0  0  0  0  0  0  0  0  0  0
   -6.5824   -3.7280   -2.8364 H   0  0  0  0  0  0  0  0  0  0  0  0
   -5.5551   -4.7995   -0.4186 H   0  0  0  0  0  0  0  0  0  0  0  0
   -7.5059   -1.3146   -2.2882 H   0  0  0  0  0  0  0  0  0  0  0  0
   -8.0098   -1.7882   -0.6697 H   0  0  0  0  0  0  0  0  0  0  0  0
   -7.5126   -0.3755    1.0673 H   0  0  0  0  0  0  0  0  0  0  0  0
   -8.7232    3.6176    0.0367 H   0  0  0  0  0  0  0  0  0  0  0  0
   -9.0537    3.5829   -1.7092 H   0  0  0  0  0  0  0  0  0  0  0  0
   -7.6563    4.4736   -1.0877 H   0  0  0  0  0  0  0  0  0  0  0  0
   -5.4825    3.0460   -1.4130 H   0  0  0  0  0  0  0  0  0  0  0  0
   -5.8722    0.5622   -2.5707 H   0  0  0  0  0  0  0  0  0  0  0  0
   -2.4750   -2.2941    0.2042 H   0  0  0  0  0  0  0  0  0  0  0  0
   -0.9370   -2.2648    2.0855 H   0  0  0  0  0  0  0  0  0  0  0  0
   -2.1858   -1.9316    3.2860 H   0  0  0  0  0  0  0  0  0  0  0  0
   -0.7709   -0.8669    3.1618 H   0  0  0  0  0  0  0  0  0  0  0  0
   -3.7179    1.0487    1.7121 H   0  0  0  0  0  0  0  0  0  0  0  0
   -3.6335    0.0321    3.1313 H   0  0  0  0  0  0  0  0  0  0  0  0
   -2.3488    1.2043    2.8122 H   0  0  0  0  0  0  0  0  0  0  0  0
    1.7901   -2.4639   -1.8151 H   0  0  0  0  0  0  0  0  0  0  0  0
    1.7516   -2.3495   -0.0485 H   0  0  0  0  0  0  0  0  0  0  0  0
    2.1795   -0.9108   -1.0361 H   0  0  0  0  0  0  0  0  0  0  0  0
  1  2  1  0
  2  3  1  0
  3  4  1  0
  4  5  1  0
  5  6  1  0
  6  7  1  0
  7  8  1  0
  8  9  1  0
  9 10  1  0
 10 11  1  0
 11 12  1  0
 12 13  1  0
 13 14  1  0
 14 15  2  0
 14 16  1  0
 16 17  1  0
 17 18  1  0
 18 19  1  0
 18 20  1  0
 20 21  1  6
 20 22  1  0
 22 23  1  0
 23 24  2  0
 24 25  1  0
 25 26  1  0
 24 27  1  0
 27 28  1  0
 28 29  1  1
 28 30  1  0
 30 31  2  0
 30 32  1  0
 32 33  1  0
 32 34  2  0
 34 35  1  0
 22 36  1  0
 36 37  1  0
 37 38  1  0
 37 39  1  0
 37 40  1  0
 40 41  1  1
 41 42  1  0
 42 43  1  0
 42 44  2  0
 40 17  1  0
 35 20  1  0
 40 36  1  0
 35 28  1  0
  1 45  1  0
  1 46  1  0
  1 47  1  0
  2 48  1  0
  2 49  1  0
  3 50  1  0
  3 51  1  0
  4 52  1  0
  4 53  1  0
  5 54  1  0
  5 55  1  0
  6 56  1  0
  6 57  1  0
  7 58  1  0
  7 59  1  0
  8 60  1  0
  8 61  1  0
  9 62  1  0
  9 63  1  0
 10 64  1  0
 10 65  1  0
 11 66  1  0
 11 67  1  0
 12 68  1  0
 12 69  1  0
 13 70  1  0
 13 71  1  0
 17 72  1  6
 18 73  1  1
 19 74  1  0
 19 75  1  0
 19 76  1  0
 21 77  1  0
 22 78  1  1
 23 79  1  0
 25 80  1  0
 25 81  1  0
 26 82  1  0
 27 83  1  0
 27 84  1  0
 29 85  1  0
 33 86  1  0
 33 87  1  0
 33 88  1  0
 34 89  1  0
 35 90  1  6
 36 91  1  1
 38 92  1  0
 38 93  1  0
 38 94  1  0
 39 95  1  0
 39 96  1  0
 39 97  1  0
 43 98  1  0
 43 99  1  0
 43100  1  0
M  END
$$$$
