
     RDKit          3D

 14 14  0  0  0  0  0  0  0  0999 V2000
   -2.3255   -0.5429    0.6512 N   0  0  0  0  0  0  0  0  0  0  0  0
   -1.6608    0.3521   -0.2908 C   0  0  0  0  0  0  0  0  0  0  0  0
   -0.1964    0.3630   -0.0773 C   0  0  0  0  0  0  0  0  0  0  0  0
    0.8561   -0.3409   -0.6175 C   0  0  0  0  0  0  0  0  0  0  0  0
    1.9668    0.1809    0.0532 C   0  0  0  0  0  0  0  0  0  0  0  0
    3.2580   -0.1409   -0.0780 O   0  0  0  0  0  0  0  0  0  0  0  0
    1.6584    1.1240    0.9359 N   0  0  0  0  0  0  0  0  0  0  0  0
    0.2761    1.2430    0.8530 O   0  0  0  0  0  0  0  0  0  0  0  0
   -2.1318   -0.2173    1.5993 H   0  0  0  0  0  0  0  0  0  0  0  0
   -1.9118   -1.4715    0.5883 H   0  0  0  0  0  0  0  0  0  0  0  0
   -2.0694    1.3623   -0.1800 H   0  0  0  0  0  0  0  0  0  0  0  0
   -1.8867    0.0263   -1.3118 H   0  0  0  0  0  0  0  0  0  0  0  0
    0.8090   -1.1067   -1.3750 H   0  0  0  0  0  0  0  0  0  0  0  0
    3.3580   -0.8314   -0.7504 H   0  0  0  0  0  0  0  0  0  0  0  0
  1  2  1  0
  2  3  1  0
  3  4  2  0
  4  5  1  0
  5  6  1  0
  5  7  2  0
  7  8  1  0
  8  3  1  0
  1  9  1  0
  1 10  1  0
  2 11  1  0
  2 12  1  0
  4 13  1  0
  6 14  1  0
M  END
$$$$
