
     RDKit          3D

 26 27  0  0  0  0  0  0  0  0999 V2000
    2.0603   -1.9131    0.1005 O   0  0  0  0  0  0  0  0  0  0  0  0
    2.6375   -0.8752   -0.2793 C   0  0  0  0  0  0  0  0  0  0  0  0
    3.8658   -0.4936    0.2375 O   0  0  0  0  0  0  0  0  0  0  0  0
    1.9895   -0.0314   -1.3137 C   0  0  0  0  0  0  0  0  0  0  0  0
    1.2771    1.1565   -0.6376 C   0  0  0  0  0  0  0  0  0  0  0  0
    0.2684    0.6492    0.3100 C   0  0  0  0  0  0  0  0  0  0  0  0
    0.5330    0.5974    1.6913 C   0  0  0  0  0  0  0  0  0  0  0  0
   -0.4319    0.0978    2.5400 C   0  0  0  0  0  0  0  0  0  0  0  0
   -1.6530   -0.3559    2.0849 C   0  0  0  0  0  0  0  0  0  0  0  0
   -1.8992   -0.3008    0.7497 C   0  0  0  0  0  0  0  0  0  0  0  0
   -0.9354    0.2020   -0.1224 C   0  0  0  0  0  0  0  0  0  0  0  0
   -1.6158    0.1084   -1.5473 B   0  0  0  0  0  0  0  0  0  0  0  0
   -1.0737    0.7308   -2.7794 O   0  0  0  0  0  0  0  0  0  0  0  0
   -3.0690    0.0951   -1.2092 O   0  0  0  0  0  0  0  0  0  0  0  0
   -3.0823   -0.6860   -0.0466 C   0  0  0  0  0  0  0  0  0  0  0  0
    4.2719   -0.9933    1.0431 H   0  0  0  0  0  0  0  0  0  0  0  0
    2.7915    0.3716   -1.9559 H   0  0  0  0  0  0  0  0  0  0  0  0
    1.2253   -0.5719   -1.8757 H   0  0  0  0  0  0  0  0  0  0  0  0
    0.7504    1.6526   -1.4815 H   0  0  0  0  0  0  0  0  0  0  0  0
    1.9706    1.8617   -0.1838 H   0  0  0  0  0  0  0  0  0  0  0  0
    1.4995    0.9613    1.9884 H   0  0  0  0  0  0  0  0  0  0  0  0
   -0.1846    0.0779    3.5913 H   0  0  0  0  0  0  0  0  0  0  0  0
   -2.3539   -0.7312    2.8204 H   0  0  0  0  0  0  0  0  0  0  0  0
   -1.7511    0.5881   -3.4943 H   0  0  0  0  0  0  0  0  0  0  0  0
   -3.0622   -1.7441   -0.3634 H   0  0  0  0  0  0  0  0  0  0  0  0
   -4.0287   -0.4537    0.4983 H   0  0  0  0  0  0  0  0  0  0  0  0
  1  2  2  0
  2  3  1  0
  2  4  1  0
  4  5  1  0
  5  6  1  0
  6  7  2  0
  7  8  1  0
  8  9  2  0
  9 10  1  0
 10 11  2  0
 11 12  1  0
 12 13  1  0
 12 14  1  0
 14 15  1  0
 11  6  1  0
 15 10  1  0
  3 16  1  0
  4 17  1  0
  4 18  1  0
  5 19  1  0
  5 20  1  0
  7 21  1  0
  8 22  1  0
  9 23  1  0
 13 24  1  0
 15 25  1  0
 15 26  1  0
M  END
$$$$
