
     RDKit          3D

 53 56  0  0  0  0  0  0  0  0999 V2000
   -3.9575    2.1525   -1.6685 O   0  0  0  0  0  0  0  0  0  0  0  0
   -3.9226    0.9603   -1.3608 C   0  0  0  0  0  0  0  0  0  0  0  0
   -2.6072    0.2144   -1.3287 C   0  0  0  0  0  0  0  0  0  0  0  0
   -1.8614    0.5699   -0.0421 C   0  0  0  0  0  0  0  0  0  0  0  0
   -0.6388   -0.2272    0.1374 N   0  0  0  0  0  0  0  0  0  0  0  0
    0.4479    0.1515   -0.7948 C   0  0  0  0  0  0  0  0  0  0  0  0
    1.5928    0.9861   -0.1885 C   0  0  0  0  0  0  0  0  0  0  0  0
    2.1567    0.3678    1.0109 N   0  0  0  0  0  0  0  0  0  0  0  0
    3.4339    0.6141    1.4652 C   0  0  0  0  0  0  0  0  0  0  0  0
    3.9189    0.0857    2.4597 O   0  0  0  0  0  0  0  0  0  0  0  0
    4.0890    1.5161    0.6867 O   0  0  0  0  0  0  0  0  0  0  0  0
    5.4343    1.8091    1.0791 C   0  0  0  0  0  0  0  0  0  0  0  0
    6.3852    0.8584    0.3966 C   0  0  0  0  0  0  0  0  0  0  0  0
    7.0479   -0.1380    1.1289 C   0  0  0  0  0  0  0  0  0  0  0  0
    7.9089   -1.0287    0.4851 C   0  0  0  0  0  0  0  0  0  0  0  0
    8.7192   -2.2424    1.3994 Cl  0  0  0  0  0  0  0  0  0  0  0  0
    8.1165   -0.9479   -0.8903 C   0  0  0  0  0  0  0  0  0  0  0  0
    7.4535    0.0346   -1.6207 C   0  0  0  0  0  0  0  0  0  0  0  0
    7.6916    0.1376   -3.3224 Cl  0  0  0  0  0  0  0  0  0  0  0  0
    6.5918    0.9334   -0.9892 C   0  0  0  0  0  0  0  0  0  0  0  0
    1.2853   -0.5412    1.7493 C   0  0  0  0  0  0  0  0  0  0  0  0
   -0.1960   -0.1791    1.5512 C   0  0  0  0  0  0  0  0  0  0  0  0
   -5.1935    0.2652   -0.9920 C   0  0  0  0  0  0  0  0  0  0  0  0
   -6.4147    0.9240   -1.2968 C   0  0  0  0  0  0  0  0  0  0  0  0
   -7.6515    0.3516   -0.9800 C   0  0  0  0  0  0  0  0  0  0  0  0
   -7.6172   -0.8716   -0.3591 C   0  0  0  0  0  0  0  0  0  0  0  0
   -8.6273   -1.6795    0.0717 N   0  0  0  0  0  0  0  0  0  0  0  0
   -8.0603   -2.8024    0.6281 C   0  0  0  0  0  0  0  0  0  0  0  0
   -8.6853   -3.7358    1.1086 O   0  0  0  0  0  0  0  0  0  0  0  0
   -6.6608   -2.7424    0.5734 O   0  0  0  0  0  0  0  0  0  0  0  0
   -6.4420   -1.5237   -0.0504 C   0  0  0  0  0  0  0  0  0  0  0  0
   -5.2087   -0.9817   -0.3493 C   0  0  0  0  0  0  0  0  0  0  0  0
   -2.7583   -0.8644   -1.4271 H   0  0  0  0  0  0  0  0  0  0  0  0
   -2.0474    0.5167   -2.2212 H   0  0  0  0  0  0  0  0  0  0  0  0
   -2.5402    0.3763    0.8006 H   0  0  0  0  0  0  0  0  0  0  0  0
   -1.6349    1.6445   -0.0130 H   0  0  0  0  0  0  0  0  0  0  0  0
    0.0696    0.6694   -1.6825 H   0  0  0  0  0  0  0  0  0  0  0  0
    0.8801   -0.7882   -1.1638 H   0  0  0  0  0  0  0  0  0  0  0  0
    1.2259    1.9789    0.1013 H   0  0  0  0  0  0  0  0  0  0  0  0
    2.3779    1.1282   -0.9392 H   0  0  0  0  0  0  0  0  0  0  0  0
    5.6564    2.8329    0.7528 H   0  0  0  0  0  0  0  0  0  0  0  0
    5.5561    1.8084    2.1697 H   0  0  0  0  0  0  0  0  0  0  0  0
    6.8795   -0.2290    2.2006 H   0  0  0  0  0  0  0  0  0  0  0  0
    8.7851   -1.6461   -1.3859 H   0  0  0  0  0  0  0  0  0  0  0  0
    6.0708    1.6880   -1.5761 H   0  0  0  0  0  0  0  0  0  0  0  0
    1.5383   -0.5159    2.8151 H   0  0  0  0  0  0  0  0  0  0  0  0
    1.4856   -1.5567    1.3857 H   0  0  0  0  0  0  0  0  0  0  0  0
   -0.3509    0.8297    1.9601 H   0  0  0  0  0  0  0  0  0  0  0  0
   -0.8159   -0.8680    2.1380 H   0  0  0  0  0  0  0  0  0  0  0  0
   -6.3956    1.8970   -1.7884 H   0  0  0  0  0  0  0  0  0  0  0  0
   -8.5805    0.8565   -1.2155 H   0  0  0  0  0  0  0  0  0  0  0  0
   -9.6200   -1.5276    0.0084 H   0  0  0  0  0  0  0  0  0  0  0  0
   -4.3103   -1.5212   -0.0733 H   0  0  0  0  0  0  0  0  0  0  0  0
  1  2  2  0
  2  3  1  0
  3  4  1  0
  4  5  1  0
  5  6  1  0
  6  7  1  0
  7  8  1  0
  8  9  1  0
  9 10  2  0
  9 11  1  0
 11 12  1  0
 12 13  1  0
 13 14  2  0
 14 15  1  0
 15 16  1  0
 15 17  2  0
 17 18  1  0
 18 19  1  0
 18 20  2  0
  8 21  1  0
 21 22  1  0
  2 23  1  0
 23 24  2  0
 24 25  1  0
 25 26  2  0
 26 27  1  0
 27 28  1  0
 28 29  2  0
 28 30  1  0
 30 31  1  0
 31 32  2  0
 22  5  1  0
 32 23  1  0
 20 13  1  0
 31 26  1  0
  3 33  1  0
  3 34  1  0
  4 35  1  0
  4 36  1  0
  6 37  1  0
  6 38  1  0
  7 39  1  0
  7 40  1  0
 12 41  1  0
 12 42  1  0
 14 43  1  0
 17 44  1  0
 20 45  1  0
 21 46  1  0
 21 47  1  0
 22 48  1  0
 22 49  1  0
 24 50  1  0
 25 51  1  0
 27 52  1  0
 32 53  1  0
M  END
$$$$
