
     RDKit          3D

 50 53  0  0  0  0  0  0  0  0999 V2000
   -3.0770    2.5717   -1.2070 C   0  0  0  0  0  0  0  0  0  0  0  0
   -3.2861    1.1141   -0.8984 C   0  0  0  0  0  0  0  0  0  0  0  0
   -4.4853    0.7277   -0.2700 C   0  0  0  0  0  0  0  0  0  0  0  0
   -4.7514   -0.6167    0.0025 C   0  0  0  0  0  0  0  0  0  0  0  0
   -3.8369   -1.6017   -0.3599 C   0  0  0  0  0  0  0  0  0  0  0  0
   -2.6450   -1.2421   -0.9840 C   0  0  0  0  0  0  0  0  0  0  0  0
   -2.3633    0.1077   -1.2463 C   0  0  0  0  0  0  0  0  0  0  0  0
   -0.8117    0.4841   -2.0480 S   0  0  0  0  0  6  0  0  0  0  0  0
   -1.0923    1.3585   -3.1659 O   0  0  0  0  0  0  0  0  0  0  0  0
   -0.0760   -0.7516   -2.2322 O   0  0  0  0  0  0  0  0  0  0  0  0
    0.0294    1.3737   -0.8595 N   0  0  0  0  0  0  0  0  0  0  0  0
    1.1373    2.2099   -1.4370 C   0  0  0  0  0  0  0  0  0  0  0  0
    2.1957    2.5679   -0.3895 C   0  0  0  0  0  0  0  0  0  0  0  0
    2.7965    1.3676    0.2007 N   0  0  0  0  0  0  0  0  0  0  0  0
    4.1635    1.3580    0.4531 C   0  0  0  0  0  0  0  0  0  0  0  0
    4.9057    2.3188    0.2729 O   0  0  0  0  0  0  0  0  0  0  0  0
    4.7595    0.1157    0.9715 C   0  0  0  0  0  0  0  0  0  0  0  0
    4.8371   -0.0828    2.3554 C   0  0  0  0  0  0  0  0  0  0  0  0
    5.4151   -1.2544    2.8436 C   0  0  0  0  0  0  0  0  0  0  0  0
    5.9176   -2.1979    1.9473 C   0  0  0  0  0  0  0  0  0  0  0  0
    6.4788   -3.3174    2.4194 F   0  0  0  0  0  0  0  0  0  0  0  0
    5.8587   -1.9909    0.5691 C   0  0  0  0  0  0  0  0  0  0  0  0
    5.2789   -0.8238    0.0720 C   0  0  0  0  0  0  0  0  0  0  0  0
    1.9063    0.2102    0.3591 C   0  0  0  0  0  0  0  0  0  0  0  0
    0.4243    0.6104    0.3684 C   0  0  0  0  0  0  0  0  0  0  0  0
   -4.0102   -2.9347   -0.1274 O   0  0  0  0  0  0  0  0  0  0  0  0
   -5.2651   -3.3076    0.4176 C   0  0  0  0  0  0  0  0  0  0  0  0
   -6.2638   -2.2585    0.9086 C   0  0  0  0  0  0  0  0  0  0  0  0
   -7.3074   -2.5479    1.4888 O   0  0  0  0  0  0  0  0  0  0  0  0
   -5.9365   -0.9607    0.6464 N   0  0  0  0  0  0  0  0  0  0  0  0
   -3.1933    2.7527   -2.2804 H   0  0  0  0  0  0  0  0  0  0  0  0
   -3.8101    3.1940   -0.6809 H   0  0  0  0  0  0  0  0  0  0  0  0
   -2.0936    2.9146   -0.8778 H   0  0  0  0  0  0  0  0  0  0  0  0
   -5.2173    1.4866   -0.0003 H   0  0  0  0  0  0  0  0  0  0  0  0
   -1.9416   -2.0234   -1.2663 H   0  0  0  0  0  0  0  0  0  0  0  0
    0.6968    3.1302   -1.8379 H   0  0  0  0  0  0  0  0  0  0  0  0
    1.6222    1.6670   -2.2577 H   0  0  0  0  0  0  0  0  0  0  0  0
    2.9651    3.2020   -0.8430 H   0  0  0  0  0  0  0  0  0  0  0  0
    1.7426    3.1351    0.4338 H   0  0  0  0  0  0  0  0  0  0  0  0
    4.4645    0.6754    3.0398 H   0  0  0  0  0  0  0  0  0  0  0  0
    5.4922   -1.4293    3.9124 H   0  0  0  0  0  0  0  0  0  0  0  0
    6.2807   -2.7312   -0.1078 H   0  0  0  0  0  0  0  0  0  0  0  0
    5.2399   -0.6440   -0.9997 H   0  0  0  0  0  0  0  0  0  0  0  0
    2.1523   -0.3121    1.2889 H   0  0  0  0  0  0  0  0  0  0  0  0
    2.1124   -0.4712   -0.4738 H   0  0  0  0  0  0  0  0  0  0  0  0
   -0.1961   -0.2800    0.5010 H   0  0  0  0  0  0  0  0  0  0  0  0
    0.2187    1.2578    1.2298 H   0  0  0  0  0  0  0  0  0  0  0  0
   -5.0544   -3.9619    1.2734 H   0  0  0  0  0  0  0  0  0  0  0  0
   -5.7816   -3.9114   -0.3391 H   0  0  0  0  0  0  0  0  0  0  0  0
   -6.5958   -0.2580    0.9483 H   0  0  0  0  0  0  0  0  0  0  0  0
  1  2  1  0
  2  3  2  0
  3  4  1  0
  4  5  2  0
  5  6  1  0
  6  7  2  0
  7  8  1  0
  8  9  2  0
  8 10  2  0
  8 11  1  0
 11 12  1  0
 12 13  1  0
 13 14  1  0
 14 15  1  0
 15 16  2  0
 15 17  1  0
 17 18  2  0
 18 19  1  0
 19 20  2  0
 20 21  1  0
 20 22  1  0
 22 23  2  0
 14 24  1  0
 24 25  1  0
  5 26  1  0
 26 27  1  0
 27 28  1  0
 28 29  2  0
 28 30  1  0
  7  2  1  0
 25 11  1  0
 30  4  1  0
 23 17  1  0
  1 31  1  0
  1 32  1  0
  1 33  1  0
  3 34  1  0
  6 35  1  0
 12 36  1  0
 12 37  1  0
 13 38  1  0
 13 39  1  0
 18 40  1  0
 19 41  1  0
 22 42  1  0
 23 43  1  0
 24 44  1  0
 24 45  1  0
 25 46  1  0
 25 47  1  0
 27 48  1  0
 27 49  1  0
 30 50  1  0
M  END
$$$$
