
     RDKit          3D

 69 73  0  0  0  0  0  0  0  0999 V2000
   -8.5320   -2.0624   -0.2233 C   0  0  0  0  0  0  0  0  0  0  0  0
   -7.5027   -1.1379   -0.8712 C   0  0  0  0  0  0  0  0  0  0  0  0
   -7.9477   -0.6736   -2.2575 C   0  0  0  0  0  0  0  0  0  0  0  0
   -7.0910    0.0209    0.0012 C   0  0  0  0  0  0  0  0  0  0  0  0
   -5.8339    0.4786    0.3430 C   0  0  0  0  0  0  0  0  0  0  0  0
   -4.6158   -0.0615   -0.0777 C   0  0  0  0  0  0  0  0  0  0  0  0
   -3.4871    0.6349    0.4369 C   0  0  0  0  0  0  0  0  0  0  0  0
   -2.1173    0.1929    0.0885 C   0  0  0  0  0  0  0  0  0  0  0  0
   -1.7647   -1.1374   -0.0085 C   0  0  0  0  0  0  0  0  0  0  0  0
   -0.4559   -1.3889   -0.3345 C   0  0  0  0  0  0  0  0  0  0  0  0
    0.4520   -0.4243   -0.5550 N   0  0  0  0  0  0  0  0  0  0  0  0
    0.0333    0.8394   -0.4451 C   0  0  0  0  0  0  0  0  0  0  0  0
    0.8871    1.8989   -0.6682 N   0  0  0  0  0  0  0  0  0  0  0  0
    2.3046    1.8146   -0.3404 C   0  0  1  0  0  0  0  0  0  0  0  0
    2.5559    1.4847    1.1373 C   0  0  0  0  0  0  0  0  0  0  0  0
    4.0516    1.3035    1.3722 C   0  0  0  0  0  0  0  0  0  0  0  0
    4.6345    0.1172    0.5744 C   0  0  2  0  0  0  0  0  0  0  0  0
    6.0095    0.4868    0.2033 N   0  0  0  0  0  0  0  0  0  0  0  0
    6.8970   -0.6522   -0.0802 C   0  0  0  0  0  0  0  0  0  0  0  0
    7.2033   -1.4751    1.1820 C   0  0  0  0  0  0  0  0  0  0  0  0
    8.5557   -2.1758    1.1001 C   0  0  0  0  0  0  0  0  0  0  0  0
    8.8755   -2.4781   -0.2527 O   0  0  0  0  0  0  0  0  0  0  0  0
    9.1382   -1.3028   -1.0213 C   0  0  0  0  0  0  0  0  0  0  0  0
    8.2074   -0.1384   -0.6820 C   0  0  0  0  0  0  0  0  0  0  0  0
    3.7650   -0.2629   -0.6399 C   0  0  0  0  0  0  0  0  0  0  0  0
    3.1033    0.9357   -1.3194 C   0  0  0  0  0  0  0  0  0  0  0  0
   -1.2190    1.1817   -0.1200 N   0  0  0  0  0  0  0  0  0  0  0  0
   -3.6527    1.7836    1.2960 C   0  0  0  0  0  0  0  0  0  0  0  0
   -4.8974    2.3125    1.7107 C   0  0  0  0  0  0  0  0  0  0  0  0
   -6.0032    1.6190    1.2011 C   0  0  0  0  0  0  0  0  0  0  0  0
   -7.3098    1.8429    1.3806 N   0  0  0  0  0  0  0  0  0  0  0  0
   -7.9385    0.9039    0.6415 N   0  0  0  0  0  0  0  0  0  0  0  0
   -9.3831    0.9387    0.6371 C   0  0  0  0  0  0  0  0  0  0  0  0
   -8.6153   -2.9943   -0.7939 H   0  0  0  0  0  0  0  0  0  0  0  0
   -8.2430   -2.3227    0.8009 H   0  0  0  0  0  0  0  0  0  0  0  0
   -9.5312   -1.6202   -0.1926 H   0  0  0  0  0  0  0  0  0  0  0  0
   -6.6133   -1.7620   -1.0277 H   0  0  0  0  0  0  0  0  0  0  0  0
   -7.1694   -0.0680   -2.7355 H   0  0  0  0  0  0  0  0  0  0  0  0
   -8.1467   -1.5330   -2.9064 H   0  0  0  0  0  0  0  0  0  0  0  0
   -8.8581   -0.0692   -2.2199 H   0  0  0  0  0  0  0  0  0  0  0  0
   -4.5289   -0.9064   -0.7465 H   0  0  0  0  0  0  0  0  0  0  0  0
   -2.4598   -1.9446    0.1752 H   0  0  0  0  0  0  0  0  0  0  0  0
   -0.0846   -2.4048   -0.4296 H   0  0  0  0  0  0  0  0  0  0  0  0
    0.4109    2.7196   -0.3079 H   0  0  0  0  0  0  0  0  0  0  0  0
    2.6823    2.8354   -0.4954 H   0  0  0  0  0  0  0  0  0  0  0  0
    2.1761    2.2994    1.7661 H   0  0  0  0  0  0  0  0  0  0  0  0
    2.0262    0.5787    1.4534 H   0  0  0  0  0  0  0  0  0  0  0  0
    4.2479    1.1533    2.4412 H   0  0  0  0  0  0  0  0  0  0  0  0
    4.5541    2.2437    1.1050 H   0  0  0  0  0  0  0  0  0  0  0  0
    4.6517   -0.7436    1.2531 H   0  0  0  0  0  0  0  0  0  0  0  0
    5.9810    1.1057   -0.6070 H   0  0  0  0  0  0  0  0  0  0  0  0
    6.4314   -1.3070   -0.8276 H   0  0  0  0  0  0  0  0  0  0  0  0
    7.1801   -0.8602    2.0899 H   0  0  0  0  0  0  0  0  0  0  0  0
    6.4172   -2.2308    1.3050 H   0  0  0  0  0  0  0  0  0  0  0  0
    8.5276   -3.1124    1.6666 H   0  0  0  0  0  0  0  0  0  0  0  0
    9.3517   -1.5583    1.5347 H   0  0  0  0  0  0  0  0  0  0  0  0
    9.0193   -1.5803   -2.0744 H   0  0  0  0  0  0  0  0  0  0  0  0
   10.1855   -1.0111   -0.8823 H   0  0  0  0  0  0  0  0  0  0  0  0
    8.0368    0.4670   -1.5803 H   0  0  0  0  0  0  0  0  0  0  0  0
    8.7100    0.5202    0.0397 H   0  0  0  0  0  0  0  0  0  0  0  0
    4.3403   -0.8263   -1.3826 H   0  0  0  0  0  0  0  0  0  0  0  0
    2.9878   -0.9561   -0.2974 H   0  0  0  0  0  0  0  0  0  0  0  0
    2.4812    0.5915   -2.1540 H   0  0  0  0  0  0  0  0  0  0  0  0
    3.8925    1.5486   -1.7749 H   0  0  0  0  0  0  0  0  0  0  0  0
   -2.7543    2.2887    1.6578 H   0  0  0  0  0  0  0  0  0  0  0  0
   -4.9904    3.1754    2.3545 H   0  0  0  0  0  0  0  0  0  0  0  0
   -9.7544    0.7222   -0.3644 H   0  0  0  0  0  0  0  0  0  0  0  0
   -9.7439    0.2044    1.3613 H   0  0  0  0  0  0  0  0  0  0  0  0
   -9.7207    1.9386    0.9265 H   0  0  0  0  0  0  0  0  0  0  0  0
  1  2  1  0
  2  3  1  0
  2  4  1  0
  4  5  2  0
  5  6  1  0
  6  7  2  0
  7  8  1  0
  8  9  2  0
  9 10  1  0
 10 11  2  0
 11 12  1  0
 12 13  1  0
 13 14  1  0
 14 15  1  0
 15 16  1  0
 16 17  1  0
 17 18  1  0
 18 19  1  0
 19 20  1  0
 20 21  1  0
 21 22  1  0
 22 23  1  0
 23 24  1  0
 17 25  1  0
 25 26  1  0
 12 27  2  0
  7 28  1  0
 28 29  2  0
 29 30  1  0
 30 31  2  0
 31 32  1  0
 32 33  1  0
 32  4  1  0
 30  5  1  0
 27  8  1  0
 26 14  1  0
 24 19  1  0
  1 34  1  0
  1 35  1  0
  1 36  1  0
  2 37  1  0
  3 38  1  0
  3 39  1  0
  3 40  1  0
  6 41  1  0
  9 42  1  0
 10 43  1  0
 13 44  1  0
 14 45  1  1
 15 46  1  0
 15 47  1  0
 16 48  1  0
 16 49  1  0
 17 50  1  1
 18 51  1  0
 19 52  1  0
 20 53  1  0
 20 54  1  0
 21 55  1  0
 21 56  1  0
 23 57  1  0
 23 58  1  0
 24 59  1  0
 24 60  1  0
 25 61  1  0
 25 62  1  0
 26 63  1  0
 26 64  1  0
 28 65  1  0
 29 66  1  0
 33 67  1  0
 33 68  1  0
 33 69  1  0
M  END
$$$$
