
     RDKit          3D

 59 60  0  0  0  0  0  0  0  0999 V2000
   -5.1634   -3.1670   -2.4557 C   0  0  0  0  0  0  0  0  0  0  0  0
   -4.6590   -3.0578   -1.0890 N   0  0  0  0  0  0  0  0  0  0  0  0
   -5.6142   -3.3506   -0.0231 C   0  0  0  0  0  0  0  0  0  0  0  0
   -3.5259   -2.2893   -0.8215 C   0  0  0  0  0  0  0  0  0  0  0  0
   -3.1267   -1.9778    0.4908 C   0  0  0  0  0  0  0  0  0  0  0  0
   -1.9788   -1.2208    0.7678 C   0  0  0  0  0  0  0  0  0  0  0  0
   -1.1800   -0.7472   -0.2719 C   0  0  0  0  0  0  0  0  0  0  0  0
    0.0331    0.0624    0.0131 C   0  0  0  0  0  0  0  0  0  0  0  0
   -0.0423    1.4228    0.1198 C   0  0  0  0  0  0  0  0  0  0  0  0
   -1.3088    2.1410   -0.0468 C   0  0  0  0  0  0  0  0  0  0  0  0
   -1.4031    3.4744    0.0553 C   0  0  0  0  0  0  0  0  0  0  0  0
   -0.2018    4.3234    0.3480 C   0  0  0  0  0  0  0  0  0  0  0  0
   -0.2730    5.6208    0.4508 N   0  0  0  0  0  4  0  0  0  0  0  0
    0.9390    6.4803    0.6321 C   0  0  0  0  0  0  0  0  0  0  0  0
   -1.5728    6.3610    0.3967 C   0  0  0  0  0  0  0  0  0  0  0  0
    1.0874    3.5757    0.5144 C   0  0  0  0  0  0  0  0  0  0  0  0
    1.1397    2.2406    0.4068 C   0  0  0  0  0  0  0  0  0  0  0  0
    1.3320   -0.6405    0.1799 C   0  0  0  0  0  0  0  0  0  0  0  0
    1.7383   -1.0935    1.4339 C   0  0  0  0  0  0  0  0  0  0  0  0
    2.9766   -1.7338    1.5885 C   0  0  0  0  0  0  0  0  0  0  0  0
    3.8484   -1.9613    0.5078 C   0  0  0  0  0  0  0  0  0  0  0  0
    5.0951   -2.5776    0.6759 N   0  0  0  0  0  0  0  0  0  0  0  0
    5.8193   -3.0438   -0.5077 C   0  0  0  0  0  0  0  0  0  0  0  0
    5.3373   -3.3528    1.8942 C   0  0  0  0  0  0  0  0  0  0  0  0
    3.4097   -1.4881   -0.7425 C   0  0  0  0  0  0  0  0  0  0  0  0
    2.1740   -0.8465   -0.9119 C   0  0  0  0  0  0  0  0  0  0  0  0
   -1.5377   -1.0533   -1.5838 C   0  0  0  0  0  0  0  0  0  0  0  0
   -2.6885   -1.8115   -1.8456 C   0  0  0  0  0  0  0  0  0  0  0  0
    0.0000    0.0000    0.0000 Cl  0  0  0  0  0 15  0  0  0  0  0  0
   -5.4412   -2.1833   -2.8498 H   0  0  0  0  0  0  0  0  0  0  0  0
   -6.0532   -3.8045   -2.5071 H   0  0  0  0  0  0  0  0  0  0  0  0
   -4.4210   -3.6304   -3.1143 H   0  0  0  0  0  0  0  0  0  0  0  0
   -5.1413   -3.9176    0.7861 H   0  0  0  0  0  0  0  0  0  0  0  0
   -6.4419   -3.9716   -0.3835 H   0  0  0  0  0  0  0  0  0  0  0  0
   -6.0466   -2.4277    0.3790 H   0  0  0  0  0  0  0  0  0  0  0  0
   -3.6988   -2.3296    1.3443 H   0  0  0  0  0  0  0  0  0  0  0  0
   -1.7175   -1.0185    1.8032 H   0  0  0  0  0  0  0  0  0  0  0  0
   -2.2133    1.5783   -0.2684 H   0  0  0  0  0  0  0  0  0  0  0  0
   -2.3758    3.9290   -0.0957 H   0  0  0  0  0  0  0  0  0  0  0  0
    1.2964    6.3546    1.6573 H   0  0  0  0  0  0  0  0  0  0  0  0
    1.6970    6.1870   -0.0993 H   0  0  0  0  0  0  0  0  0  0  0  0
    0.6797    7.5272    0.4528 H   0  0  0  0  0  0  0  0  0  0  0  0
   -2.2876    5.8760    1.0670 H   0  0  0  0  0  0  0  0  0  0  0  0
   -1.4272    7.3888    0.7398 H   0  0  0  0  0  0  0  0  0  0  0  0
   -1.9240    6.3591   -0.6383 H   0  0  0  0  0  0  0  0  0  0  0  0
    2.0064    4.1039    0.7425 H   0  0  0  0  0  0  0  0  0  0  0  0
    2.1027    1.7533    0.5458 H   0  0  0  0  0  0  0  0  0  0  0  0
    1.1039   -0.9544    2.3054 H   0  0  0  0  0  0  0  0  0  0  0  0
    3.2391   -2.0519    2.5930 H   0  0  0  0  0  0  0  0  0  0  0  0
    5.2377   -3.7933   -1.0558 H   0  0  0  0  0  0  0  0  0  0  0  0
    6.7757   -3.5027   -0.2320 H   0  0  0  0  0  0  0  0  0  0  0  0
    6.0697   -2.2107   -1.1731 H   0  0  0  0  0  0  0  0  0  0  0  0
    4.6102   -4.1663    1.9951 H   0  0  0  0  0  0  0  0  0  0  0  0
    6.3369   -3.8018    1.8872 H   0  0  0  0  0  0  0  0  0  0  0  0
    5.3035   -2.7144    2.7835 H   0  0  0  0  0  0  0  0  0  0  0  0
    4.0219   -1.6093   -1.6311 H   0  0  0  0  0  0  0  0  0  0  0  0
    1.8852   -0.5115   -1.9048 H   0  0  0  0  0  0  0  0  0  0  0  0
   -0.9260   -0.7181   -2.4174 H   0  0  0  0  0  0  0  0  0  0  0  0
   -2.9046   -2.0290   -2.8875 H   0  0  0  0  0  0  0  0  0  0  0  0
  1  2  1  0
  2  3  1  0
  2  4  1  0
  4  5  2  0
  5  6  1  0
  6  7  2  0
  7  8  1  0
  8  9  2  3
  9 10  1  0
 10 11  2  0
 11 12  1  0
 12 13  2  3
 13 14  1  0
 13 15  1  0
 12 16  1  0
 16 17  2  0
  8 18  1  0
 18 19  2  0
 19 20  1  0
 20 21  2  0
 21 22  1  0
 22 23  1  0
 22 24  1  0
 21 25  1  0
 25 26  2  0
  7 27  1  0
 27 28  2  0
 28  4  1  0
 17  9  1  0
 26 18  1  0
  1 30  1  0
  1 31  1  0
  1 32  1  0
  3 33  1  0
  3 34  1  0
  3 35  1  0
  5 36  1  0
  6 37  1  0
 10 38  1  0
 11 39  1  0
 14 40  1  0
 14 41  1  0
 14 42  1  0
 15 43  1  0
 15 44  1  0
 15 45  1  0
 16 46  1  0
 17 47  1  0
 19 48  1  0
 20 49  1  0
 23 50  1  0
 23 51  1  0
 23 52  1  0
 24 53  1  0
 24 54  1  0
 24 55  1  0
 25 56  1  0
 26 57  1  0
 27 58  1  0
 28 59  1  0
M  CHG  2  13   1  29  -1
M  END
$$$$
