
     RDKit          3D

 42 44  0  0  0  0  0  0  0  0999 V2000
    5.7630    2.4374    0.5880 C   0  0  0  0  0  0  0  0  0  0  0  0
    4.8688    1.2191    0.4252 C   0  0  0  0  0  0  0  0  0  0  0  0
    3.5098    1.4328    1.0888 C   0  0  0  0  0  0  0  0  0  0  0  0
    2.6737    0.2497    1.0101 N   0  0  0  0  0  0  0  0  0  0  0  0
    2.0056   -0.0570   -0.1478 C   0  0  0  0  0  0  0  0  0  0  0  0
    2.1142    0.6007   -1.1782 O   0  0  0  0  0  0  0  0  0  0  0  0
    1.2253   -1.1836   -0.0761 N   0  0  0  0  0  0  0  0  0  0  0  0
    1.1919   -2.1712    0.9921 C   0  0  0  0  0  0  0  0  0  0  0  0
    0.1704   -3.2049    0.5399 C   0  0  0  0  0  0  0  0  0  0  0  0
    0.2569   -3.1327   -0.9822 C   0  0  0  0  0  0  0  0  0  0  0  0
    0.4988   -1.6453   -1.2587 C   0  0  0  0  0  0  0  0  0  0  0  0
   -0.7855   -0.8941   -1.4024 C   0  0  0  0  0  0  0  0  0  0  0  0
   -1.6638   -0.5201   -0.4954 N   0  0  0  0  0  0  0  0  0  0  0  0
   -2.6372    0.1006   -1.2548 C   0  0  0  0  0  0  0  0  0  0  0  0
   -3.8210    0.6912   -0.6411 C   0  0  0  0  0  0  0  0  0  0  0  0
   -4.0185    0.5699    0.7474 C   0  0  0  0  0  0  0  0  0  0  0  0
   -5.1449    1.1266    1.3606 C   0  0  0  0  0  0  0  0  0  0  0  0
   -6.0784    1.8079    0.5886 C   0  0  0  0  0  0  0  0  0  0  0  0
   -7.1553    2.3429    1.1773 F   0  0  0  0  0  0  0  0  0  0  0  0
   -5.9087    1.9427   -0.7816 C   0  0  0  0  0  0  0  0  0  0  0  0
   -4.7843    1.3846   -1.3875 C   0  0  0  0  0  0  0  0  0  0  0  0
   -4.6591    1.5414   -2.7142 F   0  0  0  0  0  0  0  0  0  0  0  0
   -2.3879    0.0727   -2.5727 N   0  0  0  0  0  0  0  0  0  0  0  0
   -1.1616   -0.5759   -2.6722 O   0  0  0  0  0  0  0  0  0  0  0  0
    6.7325    2.2629    0.1102 H   0  0  0  0  0  0  0  0  0  0  0  0
    5.9401    2.6534    1.6466 H   0  0  0  0  0  0  0  0  0  0  0  0
    5.3100    3.3207    0.1271 H   0  0  0  0  0  0  0  0  0  0  0  0
    4.7436    1.0041   -0.6419 H   0  0  0  0  0  0  0  0  0  0  0  0
    5.3636    0.3446    0.8654 H   0  0  0  0  0  0  0  0  0  0  0  0
    2.9795    2.2746    0.6293 H   0  0  0  0  0  0  0  0  0  0  0  0
    3.6429    1.6570    2.1533 H   0  0  0  0  0  0  0  0  0  0  0  0
    2.1779    0.0048    1.8524 H   0  0  0  0  0  0  0  0  0  0  0  0
    0.9160   -1.7086    1.9441 H   0  0  0  0  0  0  0  0  0  0  0  0
    2.1925   -2.6082    1.0828 H   0  0  0  0  0  0  0  0  0  0  0  0
    0.3829   -4.2033    0.9324 H   0  0  0  0  0  0  0  0  0  0  0  0
   -0.8332   -2.9163    0.8736 H   0  0  0  0  0  0  0  0  0  0  0  0
    1.1259   -3.7140   -1.3162 H   0  0  0  0  0  0  0  0  0  0  0  0
   -0.6323   -3.5397   -1.4741 H   0  0  0  0  0  0  0  0  0  0  0  0
    1.1133   -1.5111   -2.1569 H   0  0  0  0  0  0  0  0  0  0  0  0
   -3.2909    0.0416    1.3628 H   0  0  0  0  0  0  0  0  0  0  0  0
   -5.2960    1.0340    2.4327 H   0  0  0  0  0  0  0  0  0  0  0  0
   -6.6406    2.4775   -1.3768 H   0  0  0  0  0  0  0  0  0  0  0  0
  1  2  1  0
  2  3  1  0
  3  4  1  0
  4  5  1  0
  5  6  2  0
  5  7  1  0
  7  8  1  0
  8  9  1  0
  9 10  1  0
 10 11  1  0
 11 12  1  0
 12 13  2  0
 13 14  1  0
 14 15  1  0
 15 16  2  0
 16 17  1  0
 17 18  2  0
 18 19  1  0
 18 20  1  0
 20 21  2  0
 21 22  1  0
 14 23  2  0
 23 24  1  0
 11  7  1  0
 24 12  1  0
 21 15  1  0
  1 25  1  0
  1 26  1  0
  1 27  1  0
  2 28  1  0
  2 29  1  0
  3 30  1  0
  3 31  1  0
  4 32  1  0
  8 33  1  0
  8 34  1  0
  9 35  1  0
  9 36  1  0
 10 37  1  0
 10 38  1  0
 11 39  1  0
 16 40  1  0
 17 41  1  0
 20 42  1  0
M  END
$$$$
