
     RDKit          3D

 31 32  0  0  0  0  0  0  0  0999 V2000
   -4.2946   -1.4716   -0.2382 C   0  0  0  0  0  0  0  0  0  0  0  0
   -3.1747   -0.4908   -0.0457 C   0  0  0  0  0  0  0  0  0  0  0  0
   -3.0133    0.1672    1.1816 C   0  0  0  0  0  0  0  0  0  0  0  0
   -1.9577    1.0599    1.3726 C   0  0  0  0  0  0  0  0  0  0  0  0
   -1.0472    1.2772    0.3357 C   0  0  0  0  0  0  0  0  0  0  0  0
    0.3011    2.4134    0.5820 S   0  0  0  0  0  6  0  0  0  0  0  0
   -0.2046    3.4578    1.4584 O   0  0  0  0  0  0  0  0  0  0  0  0
    0.8248    2.7647   -0.7256 O   0  0  0  0  0  0  0  0  0  0  0  0
    1.5214    1.4892    1.4986 C   0  0  0  0  0  0  0  0  0  0  0  0
    1.8910    0.2457    0.7874 C   0  0  0  0  0  0  0  0  0  0  0  0
    1.4371   -1.0556    0.8445 C   0  0  0  0  0  0  0  0  0  0  0  0
    2.2131   -1.7882   -0.0856 C   0  0  0  0  0  0  0  0  0  0  0  0
    3.1147   -0.9018   -0.6453 C   0  0  0  0  0  0  0  0  0  0  0  0
    4.1361   -1.1072   -1.6387 C   0  0  0  0  0  0  0  0  0  0  0  0
    4.4028   -2.1484   -2.2224 O   0  0  0  0  0  0  0  0  0  0  0  0
    4.8379    0.0181   -1.8976 O   0  0  0  0  0  0  0  0  0  0  0  0
    2.9207    0.3392   -0.0991 O   0  0  0  0  0  0  0  0  0  0  0  0
   -1.1983    0.6354   -0.8953 C   0  0  0  0  0  0  0  0  0  0  0  0
   -2.2554   -0.2570   -1.0777 C   0  0  0  0  0  0  0  0  0  0  0  0
   -5.1665   -1.1919    0.3625 H   0  0  0  0  0  0  0  0  0  0  0  0
   -3.9682   -2.4737    0.0565 H   0  0  0  0  0  0  0  0  0  0  0  0
   -4.6162   -1.4969   -1.2846 H   0  0  0  0  0  0  0  0  0  0  0  0
   -3.7193   -0.0044    1.9920 H   0  0  0  0  0  0  0  0  0  0  0  0
   -1.8615    1.5827    2.3215 H   0  0  0  0  0  0  0  0  0  0  0  0
    2.3876    2.1443    1.6324 H   0  0  0  0  0  0  0  0  0  0  0  0
    1.1005    1.2696    2.4846 H   0  0  0  0  0  0  0  0  0  0  0  0
    0.6374   -1.4326    1.4686 H   0  0  0  0  0  0  0  0  0  0  0  0
    2.1376   -2.8405   -0.3259 H   0  0  0  0  0  0  0  0  0  0  0  0
    5.4770   -0.2567   -2.5843 H   0  0  0  0  0  0  0  0  0  0  0  0
   -0.5002    0.8168   -1.7101 H   0  0  0  0  0  0  0  0  0  0  0  0
   -2.3632   -0.7637   -2.0349 H   0  0  0  0  0  0  0  0  0  0  0  0
  1  2  1  0
  2  3  2  0
  3  4  1  0
  4  5  2  0
  5  6  1  0
  6  7  2  0
  6  8  2  0
  6  9  1  0
  9 10  1  0
 10 11  2  0
 11 12  1  0
 12 13  2  0
 13 14  1  0
 14 15  2  0
 14 16  1  0
 13 17  1  0
  5 18  1  0
 18 19  2  0
 19  2  1  0
 17 10  1  0
  1 20  1  0
  1 21  1  0
  1 22  1  0
  3 23  1  0
  4 24  1  0
  9 25  1  0
  9 26  1  0
 11 27  1  0
 12 28  1  0
 16 29  1  0
 18 30  1  0
 19 31  1  0
M  END
$$$$
