
     RDKit          3D

 80 86  0  0  0  0  0  0  0  0999 V2000
    8.7459    4.1151    2.1478 C   0  0  0  0  0  0  0  0  0  0  0  0
    7.8263    2.9822    2.1566 N   0  0  0  0  0  0  0  0  0  0  0  0
    6.4647    3.4218    1.7753 C   0  0  0  0  0  0  0  0  0  0  0  0
    5.5409    2.2734    1.3032 C   0  0  0  0  0  0  0  0  0  0  0  0
    6.1190    1.5370    0.1488 N   0  0  0  0  0  0  0  0  0  0  0  0
    5.5193    0.3090   -0.1355 C   0  0  0  0  0  0  0  0  0  0  0  0
    6.2239   -0.8558   -0.4329 C   0  0  0  0  0  0  0  0  0  0  0  0
    5.5536   -2.0528   -0.7170 C   0  0  0  0  0  0  0  0  0  0  0  0
    4.1620   -2.0967   -0.7057 C   0  0  0  0  0  0  0  0  0  0  0  0
    3.5418   -3.3245   -1.0164 N   0  0  0  0  0  0  0  0  0  0  0  0
    2.1741   -3.5452   -1.1263 C   0  0  0  0  0  0  0  0  0  0  0  0
    1.2413   -2.7321   -1.6503 C   0  0  0  0  0  0  0  0  0  0  0  0
   -0.1587   -3.1011   -1.7333 C   0  0  0  0  0  0  0  0  0  0  0  0
   -1.1989   -2.2103   -2.2928 C   0  0  0  0  0  0  0  0  0  0  0  0
   -1.2561   -2.1032   -3.6929 C   0  0  0  0  0  0  0  0  0  0  0  0
   -2.2535   -1.3537   -4.3076 C   0  0  0  0  0  0  0  0  0  0  0  0
   -3.2008   -0.6970   -3.5277 C   0  0  0  0  0  0  0  0  0  0  0  0
   -3.1441   -0.7540   -2.1235 C   0  0  0  0  0  0  0  0  0  0  0  0
   -4.1617   -0.0583   -1.3923 N   0  0  0  0  0  0  0  0  0  0  0  0
   -5.4949   -0.3772   -1.6001 C   0  0  0  0  0  0  0  0  0  0  0  0
   -6.4972    0.2409   -0.9696 C   0  0  0  0  0  0  0  0  0  0  0  0
   -6.1954    1.2955   -0.0092 C   0  0  0  0  0  0  0  0  0  0  0  0
   -7.2299    1.9126    0.7159 C   0  0  0  0  0  0  0  0  0  0  0  0
   -6.9783    2.9194    1.6687 C   0  0  0  0  0  0  0  0  0  0  0  0
   -8.0605    3.5943    2.4910 C   0  0  0  0  0  0  0  0  0  0  0  0
   -9.3179    2.8621    2.8955 C   0  0  0  0  0  0  0  0  0  0  0  0
   -9.3874    3.9648    1.8774 C   0  0  0  0  0  0  0  0  0  0  0  0
   -5.6353    3.2917    1.8467 C   0  0  0  0  0  0  0  0  0  0  0  0
   -4.6010    2.6859    1.1285 C   0  0  0  0  0  0  0  0  0  0  0  0
   -3.3496    3.0990    1.3753 F   0  0  0  0  0  0  0  0  0  0  0  0
   -4.8697    1.6829    0.2020 C   0  0  0  0  0  0  0  0  0  0  0  0
   -3.7789    1.0099   -0.5532 C   0  0  0  0  0  0  0  0  0  0  0  0
   -2.6241    1.4076   -0.4308 O   0  0  0  0  0  0  0  0  0  0  0  0
   -2.1367   -1.5171   -1.4835 C   0  0  0  0  0  0  0  0  0  0  0  0
   -2.1180   -1.7005    0.0149 C   0  0  0  0  0  0  0  0  0  0  0  0
   -3.0307   -2.7438    0.3598 O   0  0  0  0  0  0  0  0  0  0  0  0
   -0.5382   -4.3155   -1.2979 C   0  0  0  0  0  0  0  0  0  0  0  0
    0.3661   -5.2113   -0.7582 N   0  0  0  0  0  0  0  0  0  0  0  0
   -0.1325   -6.4794   -0.2555 C   0  0  0  0  0  0  0  0  0  0  0  0
    1.7166   -4.9035   -0.6181 C   0  0  0  0  0  0  0  0  0  0  0  0
    2.5535   -5.6531   -0.1104 O   0  0  0  0  0  0  0  0  0  0  0  0
    3.4461   -0.9919   -0.4415 N   0  0  0  0  0  0  0  0  0  0  0  0
    4.1276    0.1544   -0.1699 C   0  0  0  0  0  0  0  0  0  0  0  0
    7.5616    1.7671   -0.0611 C   0  0  0  0  0  0  0  0  0  0  0  0
    8.3034    1.8825    1.2875 C   0  0  0  0  0  0  0  0  0  0  0  0
    8.3866    4.9012    2.8205 H   0  0  0  0  0  0  0  0  0  0  0  0
    8.8646    4.5478    1.1487 H   0  0  0  0  0  0  0  0  0  0  0  0
    9.7329    3.8136    2.5140 H   0  0  0  0  0  0  0  0  0  0  0  0
    6.5141    4.1654    0.9675 H   0  0  0  0  0  0  0  0  0  0  0  0
    6.0010    3.9147    2.6366 H   0  0  0  0  0  0  0  0  0  0  0  0
    5.3736    1.5891    2.1476 H   0  0  0  0  0  0  0  0  0  0  0  0
    4.5768    2.7120    1.0173 H   0  0  0  0  0  0  0  0  0  0  0  0
    7.3074   -0.8855   -0.4297 H   0  0  0  0  0  0  0  0  0  0  0  0
    6.1255   -2.9451   -0.9485 H   0  0  0  0  0  0  0  0  0  0  0  0
    3.9704   -4.0934   -0.4974 H   0  0  0  0  0  0  0  0  0  0  0  0
    1.5233   -1.7553   -2.0352 H   0  0  0  0  0  0  0  0  0  0  0  0
   -0.5269   -2.6246   -4.3106 H   0  0  0  0  0  0  0  0  0  0  0  0
   -2.2928   -1.2824   -5.3911 H   0  0  0  0  0  0  0  0  0  0  0  0
   -3.9684   -0.1079   -4.0227 H   0  0  0  0  0  0  0  0  0  0  0  0
   -5.6982   -1.1901   -2.2931 H   0  0  0  0  0  0  0  0  0  0  0  0
   -7.5279   -0.0460   -1.1460 H   0  0  0  0  0  0  0  0  0  0  0  0
   -8.2566    1.5962    0.5424 H   0  0  0  0  0  0  0  0  0  0  0  0
   -7.6891    4.2957    3.2402 H   0  0  0  0  0  0  0  0  0  0  0  0
   -9.7168    3.0620    3.8850 H   0  0  0  0  0  0  0  0  0  0  0  0
   -9.4819    1.8444    2.5599 H   0  0  0  0  0  0  0  0  0  0  0  0
   -9.8399    4.9021    2.1771 H   0  0  0  0  0  0  0  0  0  0  0  0
   -9.5867    3.7042    0.8458 H   0  0  0  0  0  0  0  0  0  0  0  0
   -5.3723    4.0699    2.5606 H   0  0  0  0  0  0  0  0  0  0  0  0
   -1.1262   -1.9720    0.3923 H   0  0  0  0  0  0  0  0  0  0  0  0
   -2.4015   -0.8012    0.5620 H   0  0  0  0  0  0  0  0  0  0  0  0
   -3.0687   -2.7522    1.3334 H   0  0  0  0  0  0  0  0  0  0  0  0
   -1.5786   -4.6369   -1.3405 H   0  0  0  0  0  0  0  0  0  0  0  0
   -0.6982   -6.2932    0.6636 H   0  0  0  0  0  0  0  0  0  0  0  0
    0.6822   -7.1731   -0.0317 H   0  0  0  0  0  0  0  0  0  0  0  0
   -0.7871   -6.9406   -1.0045 H   0  0  0  0  0  0  0  0  0  0  0  0
    3.4715    1.0007    0.0112 H   0  0  0  0  0  0  0  0  0  0  0  0
    8.0387    1.0116   -0.6936 H   0  0  0  0  0  0  0  0  0  0  0  0
    7.6761    2.7080   -0.6162 H   0  0  0  0  0  0  0  0  0  0  0  0
    8.1517    0.9492    1.8452 H   0  0  0  0  0  0  0  0  0  0  0  0
    9.3838    1.9544    1.1084 H   0  0  0  0  0  0  0  0  0  0  0  0
  1  2  1  0
  2  3  1  0
  3  4  1  0
  4  5  1  0
  5  6  1  0
  6  7  2  0
  7  8  1  0
  8  9  2  0
  9 10  1  0
 10 11  1  0
 11 12  2  0
 12 13  1  0
 13 14  1  0
 14 15  2  0
 15 16  1  0
 16 17  2  0
 17 18  1  0
 18 19  1  0
 19 20  1  0
 20 21  2  0
 21 22  1  0
 22 23  2  0
 23 24  1  0
 24 25  1  0
 25 26  1  0
 26 27  1  0
 24 28  2  0
 28 29  1  0
 29 30  1  0
 29 31  2  0
 31 32  1  0
 32 33  2  0
 18 34  2  0
 34 35  1  0
 35 36  1  0
 13 37  2  0
 37 38  1  0
 38 39  1  0
 38 40  1  0
 40 41  2  0
  9 42  1  0
 42 43  2  0
  5 44  1  0
 44 45  1  0
 45  2  1  0
 43  6  1  0
 40 11  1  0
 34 14  1  0
 32 19  1  0
 31 22  1  0
 27 25  1  0
  1 46  1  0
  1 47  1  0
  1 48  1  0
  3 49  1  0
  3 50  1  0
  4 51  1  0
  4 52  1  0
  7 53  1  0
  8 54  1  0
 10 55  1  0
 12 56  1  0
 15 57  1  0
 16 58  1  0
 17 59  1  0
 20 60  1  0
 21 61  1  0
 23 62  1  0
 25 63  1  0
 26 64  1  0
 26 65  1  0
 27 66  1  0
 27 67  1  0
 28 68  1  0
 35 69  1  0
 35 70  1  0
 36 71  1  0
 37 72  1  0
 39 73  1  0
 39 74  1  0
 39 75  1  0
 43 76  1  0
 44 77  1  0
 44 78  1  0
 45 79  1  0
 45 80  1  0
M  END
$$$$
