
     RDKit          3D

 50 54  0  0  0  0  0  0  0  0999 V2000
   -5.1977    3.6656    0.3466 C   0  0  0  0  0  0  0  0  0  0  0  0
   -4.7487    2.3692   -0.0494 O   0  0  0  0  0  0  0  0  0  0  0  0
   -3.6811    1.9139    0.6540 C   0  0  0  0  0  0  0  0  0  0  0  0
   -3.1101    2.5279    1.5441 O   0  0  0  0  0  0  0  0  0  0  0  0
   -3.2557    0.5620    0.1964 C   0  0  0  0  0  0  0  0  0  0  0  0
   -4.0120   -0.1502   -0.6511 C   0  0  0  0  0  0  0  0  0  0  0  0
   -3.7415   -1.4127   -1.1002 O   0  0  0  0  0  0  0  0  0  0  0  0
   -2.3879   -1.8521   -0.9102 C   0  0  0  0  0  0  0  0  0  0  0  0
   -2.3798   -3.3501   -1.2103 C   0  0  0  0  0  0  0  0  0  0  0  0
   -1.8527   -1.5278    0.5009 C   0  0  0  0  0  0  0  0  0  0  0  0
   -0.3853   -1.9887    0.6449 C   0  0  0  0  0  0  0  0  0  0  0  0
    0.3003   -1.2176    1.6804 N   0  0  0  0  0  0  0  0  0  0  0  0
    1.5792   -1.8378    2.1010 C   0  0  0  0  0  0  0  0  0  0  0  0
    2.7141   -1.8026    1.0492 C   0  0  0  0  0  0  0  0  0  0  0  0
    2.8077   -0.4368    0.4699 C   0  0  0  0  0  0  0  0  0  0  0  0
    1.7639    0.4573    0.5945 C   0  0  0  0  0  0  0  0  0  0  0  0
    2.1498    1.6342    0.0108 N   0  0  0  0  0  0  0  0  0  0  0  0
    3.4104    1.4989   -0.5316 C   0  0  0  0  0  0  0  0  0  0  0  0
    4.1915    2.4235   -1.2353 C   0  0  0  0  0  0  0  0  0  0  0  0
    5.4550    2.0090   -1.6674 C   0  0  0  0  0  0  0  0  0  0  0  0
    5.9181    0.7218   -1.4034 C   0  0  0  0  0  0  0  0  0  0  0  0
    5.1264   -0.1910   -0.6969 C   0  0  0  0  0  0  0  0  0  0  0  0
    3.8486    0.2014   -0.2536 C   0  0  0  0  0  0  0  0  0  0  0  0
    0.4563    0.2162    1.2947 C   0  0  0  0  0  0  0  0  0  0  0  0
   -0.7273    0.7212    0.4380 C   0  0  0  0  0  0  0  0  0  0  0  0
   -2.0146   -0.0190    0.8236 C   0  0  0  0  0  0  0  0  0  0  0  0
   -4.4123    4.4100    0.1821 H   0  0  0  0  0  0  0  0  0  0  0  0
   -6.0595    3.9293   -0.2727 H   0  0  0  0  0  0  0  0  0  0  0  0
   -5.5136    3.6591    1.3946 H   0  0  0  0  0  0  0  0  0  0  0  0
   -4.9626    0.1797   -1.0545 H   0  0  0  0  0  0  0  0  0  0  0  0
   -1.7738   -1.3505   -1.6704 H   0  0  0  0  0  0  0  0  0  0  0  0
   -2.9827   -3.8970   -0.4770 H   0  0  0  0  0  0  0  0  0  0  0  0
   -2.8278   -3.5443   -2.1913 H   0  0  0  0  0  0  0  0  0  0  0  0
   -1.3677   -3.7638   -1.2115 H   0  0  0  0  0  0  0  0  0  0  0  0
   -2.4679   -2.0701    1.2346 H   0  0  0  0  0  0  0  0  0  0  0  0
    0.1461   -1.9142   -0.3127 H   0  0  0  0  0  0  0  0  0  0  0  0
   -0.3950   -3.0523    0.9151 H   0  0  0  0  0  0  0  0  0  0  0  0
    1.4064   -2.8749    2.4144 H   0  0  0  0  0  0  0  0  0  0  0  0
    1.9192   -1.3153    3.0059 H   0  0  0  0  0  0  0  0  0  0  0  0
    2.5099   -2.5242    0.2498 H   0  0  0  0  0  0  0  0  0  0  0  0
    3.6603   -2.0861    1.5231 H   0  0  0  0  0  0  0  0  0  0  0  0
    1.5989    2.4806   -0.0290 H   0  0  0  0  0  0  0  0  0  0  0  0
    3.8360    3.4278   -1.4402 H   0  0  0  0  0  0  0  0  0  0  0  0
    6.0861    2.7039   -2.2165 H   0  0  0  0  0  0  0  0  0  0  0  0
    6.9047    0.4216   -1.7473 H   0  0  0  0  0  0  0  0  0  0  0  0
    5.4962   -1.1913   -0.4942 H   0  0  0  0  0  0  0  0  0  0  0  0
    0.4691    0.7897    2.2314 H   0  0  0  0  0  0  0  0  0  0  0  0
   -0.8293    1.8035    0.5829 H   0  0  0  0  0  0  0  0  0  0  0  0
   -0.5311    0.5764   -0.6339 H   0  0  0  0  0  0  0  0  0  0  0  0
   -2.1366    0.0668    1.9142 H   0  0  0  0  0  0  0  0  0  0  0  0
  1  2  1  0
  2  3  1  0
  3  4  2  0
  3  5  1  0
  5  6  2  0
  6  7  1  0
  7  8  1  0
  8  9  1  0
  8 10  1  0
 10 11  1  0
 11 12  1  0
 12 13  1  0
 13 14  1  0
 14 15  1  0
 15 16  2  0
 16 17  1  0
 17 18  1  0
 18 19  2  0
 19 20  1  0
 20 21  2  0
 21 22  1  0
 22 23  2  0
 16 24  1  0
 24 25  1  0
 25 26  1  0
 26  5  1  0
 26 10  1  0
 24 12  1  0
 23 15  1  0
 23 18  1  0
  1 27  1  0
  1 28  1  0
  1 29  1  0
  6 30  1  0
  8 31  1  0
  9 32  1  0
  9 33  1  0
  9 34  1  0
 10 35  1  0
 11 36  1  0
 11 37  1  0
 13 38  1  0
 13 39  1  0
 14 40  1  0
 14 41  1  0
 17 42  1  0
 19 43  1  0
 20 44  1  0
 21 45  1  0
 22 46  1  0
 24 47  1  0
 25 48  1  0
 25 49  1  0
 26 50  1  0
M  END
$$$$
