
     RDKit          3D

 44 47  0  0  0  0  0  0  0  0999 V2000
    8.7841    0.5031   -1.5767 C   0  0  0  0  0  0  0  0  0  0  0  0
    7.6585   -0.3467   -1.1556 C   0  0  0  0  0  0  0  0  0  0  0  0
    7.6401   -1.6232   -0.8455 N   0  0  0  0  0  0  0  0  0  0  0  0
    6.3321   -1.9235   -0.5221 N   0  0  0  0  0  0  0  0  0  0  0  0
    5.6390   -0.8088   -0.6563 C   0  0  0  0  0  0  0  0  0  0  0  0
    4.2269   -0.5340   -0.4489 C   0  0  0  0  0  0  0  0  0  0  0  0
    3.6543    0.7146   -0.6235 C   0  0  0  0  0  0  0  0  0  0  0  0
    2.2846    0.8700   -0.3948 C   0  0  0  0  0  0  0  0  0  0  0  0
    1.5090   -0.2140    0.0073 C   0  0  0  0  0  0  0  0  0  0  0  0
    0.1244   -0.0608    0.2230 N   0  0  0  0  0  0  0  0  0  0  0  0
   -0.2109    1.0381    1.1437 C   0  0  0  0  0  0  0  0  0  0  0  0
   -1.5950    0.8537    1.7601 C   0  0  0  0  0  0  0  0  0  0  0  0
   -2.5668    0.2583    0.7437 C   0  0  0  0  0  0  0  0  0  0  0  0
   -3.8369    0.1469    1.3954 O   0  0  0  0  0  0  0  0  0  0  0  0
   -4.9910    0.1513    0.6595 C   0  0  0  0  0  0  0  0  0  0  0  0
   -5.0511    0.1469   -0.7357 C   0  0  0  0  0  0  0  0  0  0  0  0
   -6.2882    0.1462   -1.3784 C   0  0  0  0  0  0  0  0  0  0  0  0
   -6.3293    0.1420   -2.7171 F   0  0  0  0  0  0  0  0  0  0  0  0
   -7.4780    0.1481   -0.6621 C   0  0  0  0  0  0  0  0  0  0  0  0
   -7.4335    0.1488    0.7294 C   0  0  0  0  0  0  0  0  0  0  0  0
   -6.1974    0.1491    1.3858 C   0  0  0  0  0  0  0  0  0  0  0  0
   -6.2049    0.1507    3.1162 Cl  0  0  0  0  0  0  0  0  0  0  0  0
   -2.0809   -1.1208    0.2788 C   0  0  0  0  0  0  0  0  0  0  0  0
   -0.5769   -1.3255    0.4674 C   0  0  0  0  0  0  0  0  0  0  0  0
    2.1105   -1.4140    0.1485 N   0  0  0  0  0  0  0  0  0  0  0  0
    3.4700   -1.5804   -0.0698 N   0  0  0  0  0  0  0  0  0  0  0  0
    6.4283    0.2453   -1.0601 O   0  0  0  0  0  0  0  0  0  0  0  0
    8.5939    0.9292   -2.5662 H   0  0  0  0  0  0  0  0  0  0  0  0
    9.7103   -0.0769   -1.6263 H   0  0  0  0  0  0  0  0  0  0  0  0
    8.9306    1.3232   -0.8681 H   0  0  0  0  0  0  0  0  0  0  0  0
    4.2467    1.5665   -0.9403 H   0  0  0  0  0  0  0  0  0  0  0  0
    1.8303    1.8413   -0.5587 H   0  0  0  0  0  0  0  0  0  0  0  0
   -0.2023    1.9820    0.5854 H   0  0  0  0  0  0  0  0  0  0  0  0
    0.5221    1.1238    1.9566 H   0  0  0  0  0  0  0  0  0  0  0  0
   -1.9703    1.8117    2.1402 H   0  0  0  0  0  0  0  0  0  0  0  0
   -1.5345    0.1976    2.6391 H   0  0  0  0  0  0  0  0  0  0  0  0
   -2.6203    0.9615   -0.0974 H   0  0  0  0  0  0  0  0  0  0  0  0
   -4.1684    0.1380   -1.3625 H   0  0  0  0  0  0  0  0  0  0  0  0
   -8.4266    0.1467   -1.1899 H   0  0  0  0  0  0  0  0  0  0  0  0
   -8.3593    0.1482    1.2990 H   0  0  0  0  0  0  0  0  0  0  0  0
   -2.3202   -1.2303   -0.7865 H   0  0  0  0  0  0  0  0  0  0  0  0
   -2.6222   -1.9279    0.7877 H   0  0  0  0  0  0  0  0  0  0  0  0
   -0.2617   -2.1101   -0.2326 H   0  0  0  0  0  0  0  0  0  0  0  0
   -0.3693   -1.6860    1.4836 H   0  0  0  0  0  0  0  0  0  0  0  0
  1  2  1  0
  2  3  2  0
  3  4  1  0
  4  5  2  0
  5  6  1  0
  6  7  2  0
  7  8  1  0
  8  9  2  0
  9 10  1  0
 10 11  1  0
 11 12  1  0
 12 13  1  0
 13 14  1  0
 14 15  1  0
 15 16  2  0
 16 17  1  0
 17 18  1  0
 17 19  2  0
 19 20  1  0
 20 21  2  0
 21 22  1  0
 13 23  1  0
 23 24  1  0
  9 25  1  0
 25 26  2  0
  5 27  1  0
 27  2  1  0
 26  6  1  0
 24 10  1  0
 21 15  1  0
  1 28  1  0
  1 29  1  0
  1 30  1  0
  7 31  1  0
  8 32  1  0
 11 33  1  0
 11 34  1  0
 12 35  1  0
 12 36  1  0
 13 37  1  0
 16 38  1  0
 19 39  1  0
 20 40  1  0
 23 41  1  0
 23 42  1  0
 24 43  1  0
 24 44  1  0
M  END
$$$$
