
     RDKit          3D

 56 58  0  0  0  0  0  0  0  0999 V2000
    5.7424   -2.3191    1.8388 C   0  0  0  0  0  0  0  0  0  0  0  0
    6.7788   -1.3849    1.3686 N   0  0  0  0  0  0  0  0  0  0  0  0
    7.0455   -0.2879    2.3141 C   0  0  0  0  0  0  0  0  0  0  0  0
    6.7721   -0.9937   -0.2871 S   0  0  0  0  0  6  0  0  0  0  0  0
    7.9005   -0.1275   -0.5558 O   0  0  0  0  0  0  0  0  0  0  0  0
    6.5703   -2.2130   -1.0414 O   0  0  0  0  0  0  0  0  0  0  0  0
    5.2949   -0.0109   -0.4644 C   0  0  0  0  0  0  0  0  0  0  0  0
    5.3643    1.3764   -0.3151 C   0  0  0  0  0  0  0  0  0  0  0  0
    4.2088    2.1468   -0.4781 C   0  0  0  0  0  0  0  0  0  0  0  0
    2.9837    1.5429   -0.8069 C   0  0  0  0  0  0  0  0  0  0  0  0
    1.7728    2.3416   -0.9775 C   0  0  0  0  0  0  0  0  0  0  0  0
    1.7195    3.6705   -0.7862 N   0  0  0  0  0  0  0  0  0  0  0  0
    0.3887    3.9931   -1.0526 O   0  0  0  0  0  0  0  0  0  0  0  0
   -0.2320    2.8264   -1.3794 C   0  0  0  0  0  0  0  0  0  0  0  0
   -1.6433    2.8319   -1.7078 C   0  0  0  0  0  0  0  0  0  0  0  0
   -2.3576    3.8325   -1.6823 O   0  0  0  0  0  0  0  0  0  0  0  0
   -2.1422    1.5840   -2.0465 N   0  0  0  0  0  0  0  0  0  0  0  0
   -3.5692    1.3316   -2.1113 C   0  0  0  0  0  0  0  0  0  0  0  0
   -4.1722    1.0880   -0.7133 C   0  0  0  0  0  0  0  0  0  0  0  0
   -3.4889    0.0189    0.0349 N   0  0  0  0  0  0  0  0  0  0  0  0
   -3.7678    0.0480    1.4718 C   0  0  0  0  0  0  0  0  0  0  0  0
   -5.1984   -0.2515    1.9196 C   0  0  0  0  0  0  0  0  0  0  0  0
   -5.7192   -1.6310    1.5186 C   0  0  0  0  0  0  0  0  0  0  0  0
   -6.1135   -1.7114    0.0491 C   0  0  0  0  0  0  0  0  0  0  0  0
   -4.9667   -1.8402   -0.9525 C   0  0  0  0  0  0  0  0  0  0  0  0
   -3.5880   -1.3239   -0.5349 C   0  0  0  0  0  0  0  0  0  0  0  0
    0.5685    1.7784   -1.3457 N   0  0  0  0  0  0  0  0  0  0  0  0
    2.9404    0.1492   -0.9781 C   0  0  0  0  0  0  0  0  0  0  0  0
    4.0914   -0.6275   -0.8151 C   0  0  0  0  0  0  0  0  0  0  0  0
    5.6387   -3.1710    1.1613 H   0  0  0  0  0  0  0  0  0  0  0  0
    6.0287   -2.7243    2.8150 H   0  0  0  0  0  0  0  0  0  0  0  0
    4.7770   -1.8160    1.9432 H   0  0  0  0  0  0  0  0  0  0  0  0
    6.1590    0.3372    2.4521 H   0  0  0  0  0  0  0  0  0  0  0  0
    7.3306   -0.7029    3.2865 H   0  0  0  0  0  0  0  0  0  0  0  0
    7.8810    0.3320    1.9782 H   0  0  0  0  0  0  0  0  0  0  0  0
    6.3077    1.8650   -0.0797 H   0  0  0  0  0  0  0  0  0  0  0  0
    4.2770    3.2271   -0.3554 H   0  0  0  0  0  0  0  0  0  0  0  0
   -1.5453    0.7953   -1.8167 H   0  0  0  0  0  0  0  0  0  0  0  0
   -3.7158    0.4643   -2.7624 H   0  0  0  0  0  0  0  0  0  0  0  0
   -4.0650    2.1892   -2.5793 H   0  0  0  0  0  0  0  0  0  0  0  0
   -5.2461    0.8999   -0.8106 H   0  0  0  0  0  0  0  0  0  0  0  0
   -4.0735    2.0263   -0.1517 H   0  0  0  0  0  0  0  0  0  0  0  0
   -3.4854    1.0344    1.8629 H   0  0  0  0  0  0  0  0  0  0  0  0
   -3.0868   -0.6491    1.9781 H   0  0  0  0  0  0  0  0  0  0  0  0
   -5.2195   -0.1887    3.0153 H   0  0  0  0  0  0  0  0  0  0  0  0
   -5.8803    0.5290    1.5612 H   0  0  0  0  0  0  0  0  0  0  0  0
   -6.6194   -1.8285    2.1146 H   0  0  0  0  0  0  0  0  0  0  0  0
   -4.9991   -2.4155    1.7774 H   0  0  0  0  0  0  0  0  0  0  0  0
   -6.7773   -2.5747   -0.0891 H   0  0  0  0  0  0  0  0  0  0  0  0
   -6.7236   -0.8370   -0.2097 H   0  0  0  0  0  0  0  0  0  0  0  0
   -5.2730   -1.3628   -1.8919 H   0  0  0  0  0  0  0  0  0  0  0  0
   -4.8501   -2.9044   -1.1983 H   0  0  0  0  0  0  0  0  0  0  0  0
   -3.1308   -2.0480    0.1532 H   0  0  0  0  0  0  0  0  0  0  0  0
   -2.9401   -1.3662   -1.4200 H   0  0  0  0  0  0  0  0  0  0  0  0
    2.0072   -0.3425   -1.2485 H   0  0  0  0  0  0  0  0  0  0  0  0
    4.0410   -1.7034   -0.9692 H   0  0  0  0  0  0  0  0  0  0  0  0
  1  2  1  0
  2  3  1  0
  2  4  1  0
  4  5  2  0
  4  6  2  0
  4  7  1  0
  7  8  2  0
  8  9  1  0
  9 10  2  0
 10 11  1  0
 11 12  2  0
 12 13  1  0
 13 14  1  0
 14 15  1  0
 15 16  2  0
 15 17  1  0
 17 18  1  0
 18 19  1  0
 19 20  1  0
 20 21  1  0
 21 22  1  0
 22 23  1  0
 23 24  1  0
 24 25  1  0
 25 26  1  0
 14 27  2  0
 10 28  1  0
 28 29  2  0
 29  7  1  0
 27 11  1  0
 26 20  1  0
  1 30  1  0
  1 31  1  0
  1 32  1  0
  3 33  1  0
  3 34  1  0
  3 35  1  0
  8 36  1  0
  9 37  1  0
 17 38  1  0
 18 39  1  0
 18 40  1  0
 19 41  1  0
 19 42  1  0
 21 43  1  0
 21 44  1  0
 22 45  1  0
 22 46  1  0
 23 47  1  0
 23 48  1  0
 24 49  1  0
 24 50  1  0
 25 51  1  0
 25 52  1  0
 26 53  1  0
 26 54  1  0
 28 55  1  0
 29 56  1  0
M  END
$$$$
