
     RDKit          3D

 53 56  0  0  0  0  0  0  0  0999 V2000
    9.4965    1.1288    1.0623 C   0  0  0  0  0  0  0  0  0  0  0  0
    8.8179   -0.0790    0.7431 O   0  0  0  0  0  0  0  0  0  0  0  0
    7.4607   -0.0061    0.5950 C   0  0  0  0  0  0  0  0  0  0  0  0
    6.8376   -1.2218    0.3103 C   0  0  0  0  0  0  0  0  0  0  0  0
    5.4523   -1.2914    0.1326 C   0  0  0  0  0  0  0  0  0  0  0  0
    4.6627   -0.1404    0.2317 C   0  0  0  0  0  0  0  0  0  0  0  0
    3.2034   -0.2120    0.0315 C   0  0  0  0  0  0  0  0  0  0  0  0
    2.5889    0.6240   -0.8206 C   0  0  0  0  0  0  0  0  0  0  0  0
    1.2477    0.6643   -1.1157 O   0  0  0  0  0  0  0  0  0  0  0  0
    0.4303   -0.2452   -0.4942 C   0  0  0  0  0  0  0  0  0  0  0  0
   -0.9317   -0.1919   -0.8060 C   0  0  0  0  0  0  0  0  0  0  0  0
   -1.8188   -1.0894   -0.2095 C   0  0  0  0  0  0  0  0  0  0  0  0
   -3.1698   -1.1425   -0.4105 O   0  0  0  0  0  0  0  0  0  0  0  0
   -3.7319   -0.3505   -1.4617 C   0  0  2  0  0  0  0  0  0  0  0  0
   -3.7513    1.0515   -1.1640 O   0  0  0  0  0  0  0  0  0  0  0  0
   -4.6750    1.4613   -0.1450 C   0  0  2  0  0  0  0  0  0  0  0  0
   -4.1984    1.1156    1.2721 C   0  0  0  0  0  0  0  0  0  0  0  0
   -4.9916    1.8062    2.2352 O   0  0  0  0  0  0  0  0  0  0  0  0
   -6.1115    0.9993   -0.4569 C   0  0  1  0  0  0  0  0  0  0  0  0
   -6.5707    1.6971   -1.6368 O   0  0  0  0  0  0  0  0  0  0  0  0
   -6.1856   -0.5049   -0.7586 C   0  0  2  0  0  0  0  0  0  0  0  0
   -6.0438   -1.2695    0.4369 O   0  0  0  0  0  0  0  0  0  0  0  0
   -5.1375   -0.8912   -1.8161 C   0  0  1  0  0  0  0  0  0  0  0  0
   -5.5472   -0.4000   -3.1045 O   0  0  0  0  0  0  0  0  0  0  0  0
   -1.3333   -2.0285    0.7075 C   0  0  0  0  0  0  0  0  0  0  0  0
    0.0269   -2.0836    1.0186 C   0  0  0  0  0  0  0  0  0  0  0  0
    0.9086   -1.1870    0.4114 C   0  0  0  0  0  0  0  0  0  0  0  0
    2.3494   -1.2202    0.7217 C   0  0  0  0  0  0  0  0  0  0  0  0
    2.7961   -2.0426    1.5125 O   0  0  0  0  0  0  0  0  0  0  0  0
    5.2946    1.0776    0.5252 C   0  0  0  0  0  0  0  0  0  0  0  0
    6.6828    1.1452    0.7042 C   0  0  0  0  0  0  0  0  0  0  0  0
    9.1583    1.5300    2.0234 H   0  0  0  0  0  0  0  0  0  0  0  0
    9.3829    1.8683    0.2631 H   0  0  0  0  0  0  0  0  0  0  0  0
   10.5625    0.8993    1.1542 H   0  0  0  0  0  0  0  0  0  0  0  0
    7.4341   -2.1277    0.2308 H   0  0  0  0  0  0  0  0  0  0  0  0
    4.9993   -2.2581   -0.0780 H   0  0  0  0  0  0  0  0  0  0  0  0
    3.1030    1.3827   -1.3990 H   0  0  0  0  0  0  0  0  0  0  0  0
   -1.2683    0.5676   -1.5050 H   0  0  0  0  0  0  0  0  0  0  0  0
   -3.1198   -0.4686   -2.3654 H   0  0  0  0  0  0  0  0  0  0  0  0
   -4.6790    2.5576   -0.2078 H   0  0  0  0  0  0  0  0  0  0  0  0
   -3.1550    1.4245    1.3999 H   0  0  0  0  0  0  0  0  0  0  0  0
   -4.2502    0.0476    1.4895 H   0  0  0  0  0  0  0  0  0  0  0  0
   -4.6866    1.5073    3.1103 H   0  0  0  0  0  0  0  0  0  0  0  0
   -6.7910    1.2563    0.3634 H   0  0  0  0  0  0  0  0  0  0  0  0
   -6.6330    2.6402   -1.3944 H   0  0  0  0  0  0  0  0  0  0  0  0
   -7.1832   -0.7211   -1.1623 H   0  0  0  0  0  0  0  0  0  0  0  0
   -6.2241   -2.1997    0.2111 H   0  0  0  0  0  0  0  0  0  0  0  0
   -5.0853   -1.9838   -1.8916 H   0  0  0  0  0  0  0  0  0  0  0  0
   -5.8282    0.5325   -2.9693 H   0  0  0  0  0  0  0  0  0  0  0  0
   -2.0201   -2.7253    1.1834 H   0  0  0  0  0  0  0  0  0  0  0  0
    0.3927   -2.8205    1.7307 H   0  0  0  0  0  0  0  0  0  0  0  0
    4.7123    1.9906    0.6302 H   0  0  0  0  0  0  0  0  0  0  0  0
    7.1206    2.1114    0.9311 H   0  0  0  0  0  0  0  0  0  0  0  0
  1  2  1  0
  2  3  1  0
  3  4  2  0
  4  5  1  0
  5  6  2  0
  6  7  1  0
  7  8  2  0
  8  9  1  0
  9 10  1  0
 10 11  2  0
 11 12  1  0
 12 13  1  0
 13 14  1  0
 14 15  1  0
 15 16  1  0
 16 17  1  0
 17 18  1  0
 16 19  1  0
 19 20  1  0
 19 21  1  0
 21 22  1  0
 21 23  1  0
 23 24  1  0
 12 25  2  0
 25 26  1  0
 26 27  2  0
 27 28  1  0
 28 29  2  0
  6 30  1  0
 30 31  2  0
 31  3  1  0
 28  7  1  0
 27 10  1  0
 23 14  1  0
  1 32  1  0
  1 33  1  0
  1 34  1  0
  4 35  1  0
  5 36  1  0
  8 37  1  0
 11 38  1  0
 14 39  1  6
 16 40  1  1
 17 41  1  0
 17 42  1  0
 18 43  1  0
 19 44  1  1
 20 45  1  0
 21 46  1  6
 22 47  1  0
 23 48  1  6
 24 49  1  0
 25 50  1  0
 26 51  1  0
 30 52  1  0
 31 53  1  0
M  END
$$$$
