
     RDKit          3D

 57 59  0  0  0  0  0  0  0  0999 V2000
    8.1481    1.9887    0.6896 C   0  0  0  0  0  0  0  0  0  0  0  0
    7.7014    0.6806    0.3548 O   0  0  0  0  0  0  0  0  0  0  0  0
    6.3469    0.4522    0.3656 C   0  0  0  0  0  0  0  0  0  0  0  0
    5.3948    1.3665    0.8285 C   0  0  0  0  0  0  0  0  0  0  0  0
    4.0326    1.0478    0.8070 C   0  0  0  0  0  0  0  0  0  0  0  0
    3.5859   -0.1855    0.3093 C   0  0  0  0  0  0  0  0  0  0  0  0
    2.1114   -0.5578    0.3177 C   0  0  0  0  0  0  0  0  0  0  0  0
    1.8614   -1.6226   -0.6161 O   0  0  0  0  0  0  0  0  0  0  0  0
    1.1428    0.6098   -0.0302 C   0  0  0  0  0  0  0  0  0  0  0  0
   -0.2465    0.1437   -0.2849 N   0  0  0  0  0  0  0  0  0  0  0  0
   -1.0463    1.2673   -0.8482 C   0  0  0  0  0  0  0  0  0  0  0  0
   -2.5303    0.8954   -1.0768 C   0  0  0  0  0  0  0  0  0  0  0  0
   -3.1266    0.4468    0.1997 N   0  0  0  0  0  0  0  0  0  0  0  0
   -4.5155    0.2057    0.1377 C   0  0  0  0  0  0  0  0  0  0  0  0
   -5.0874   -0.6509   -0.8200 C   0  0  0  0  0  0  0  0  0  0  0  0
   -6.4683   -0.8892   -0.8595 C   0  0  0  0  0  0  0  0  0  0  0  0
   -7.0531   -1.7740   -1.9189 C   0  0  0  0  0  0  0  0  0  0  0  0
   -7.2928   -0.2470    0.0662 C   0  0  0  0  0  0  0  0  0  0  0  0
   -6.7437    0.5985    1.0311 C   0  0  0  0  0  0  0  0  0  0  0  0
   -5.3608    0.8310    1.0771 C   0  0  0  0  0  0  0  0  0  0  0  0
   -4.8006    1.7526    2.1252 C   0  0  0  0  0  0  0  0  0  0  0  0
   -2.3914   -0.7029    0.7692 C   0  0  0  0  0  0  0  0  0  0  0  0
   -0.9036   -0.3197    0.9705 C   0  0  0  0  0  0  0  0  0  0  0  0
    4.5549   -1.1089   -0.1308 C   0  0  0  0  0  0  0  0  0  0  0  0
    5.9232   -0.8025   -0.1138 C   0  0  0  0  0  0  0  0  0  0  0  0
    6.9168   -1.6580   -0.5324 O   0  0  0  0  0  0  0  0  0  0  0  0
    6.5171   -2.8954   -1.1106 C   0  0  0  0  0  0  0  0  0  0  0  0
    7.7141    2.7416    0.0197 H   0  0  0  0  0  0  0  0  0  0  0  0
    9.2343    2.0155    0.5556 H   0  0  0  0  0  0  0  0  0  0  0  0
    7.9333    2.2220    1.7400 H   0  0  0  0  0  0  0  0  0  0  0  0
    5.6805    2.3354    1.2263 H   0  0  0  0  0  0  0  0  0  0  0  0
    3.3339    1.7848    1.1988 H   0  0  0  0  0  0  0  0  0  0  0  0
    1.8799   -0.9488    1.3161 H   0  0  0  0  0  0  0  0  0  0  0  0
    0.9272   -1.4996   -0.8830 H   0  0  0  0  0  0  0  0  0  0  0  0
    1.1566    1.3788    0.7531 H   0  0  0  0  0  0  0  0  0  0  0  0
    1.5124    1.0775   -0.9538 H   0  0  0  0  0  0  0  0  0  0  0  0
   -0.6198    1.5701   -1.8120 H   0  0  0  0  0  0  0  0  0  0  0  0
   -0.9972    2.1359   -0.1762 H   0  0  0  0  0  0  0  0  0  0  0  0
   -2.5848    0.1108   -1.8442 H   0  0  0  0  0  0  0  0  0  0  0  0
   -3.0628    1.7788   -1.4524 H   0  0  0  0  0  0  0  0  0  0  0  0
   -4.4487   -1.1510   -1.5429 H   0  0  0  0  0  0  0  0  0  0  0  0
   -6.3862   -2.6159   -2.1362 H   0  0  0  0  0  0  0  0  0  0  0  0
   -8.0136   -2.1927   -1.5997 H   0  0  0  0  0  0  0  0  0  0  0  0
   -7.2103   -1.2003   -2.8375 H   0  0  0  0  0  0  0  0  0  0  0  0
   -8.3701   -0.4007    0.0489 H   0  0  0  0  0  0  0  0  0  0  0  0
   -7.4063    1.0798    1.7463 H   0  0  0  0  0  0  0  0  0  0  0  0
   -4.1291    1.2055    2.7931 H   0  0  0  0  0  0  0  0  0  0  0  0
   -5.5944    2.1910    2.7411 H   0  0  0  0  0  0  0  0  0  0  0  0
   -4.2575    2.5781    1.6565 H   0  0  0  0  0  0  0  0  0  0  0  0
   -2.8139   -0.9866    1.7426 H   0  0  0  0  0  0  0  0  0  0  0  0
   -2.4555   -1.5768    0.1040 H   0  0  0  0  0  0  0  0  0  0  0  0
   -0.8417    0.4654    1.7381 H   0  0  0  0  0  0  0  0  0  0  0  0
   -0.3859   -1.2048    1.3591 H   0  0  0  0  0  0  0  0  0  0  0  0
    4.2120   -2.0776   -0.4859 H   0  0  0  0  0  0  0  0  0  0  0  0
    6.0019   -3.5257   -0.3767 H   0  0  0  0  0  0  0  0  0  0  0  0
    7.4214   -3.4258   -1.4253 H   0  0  0  0  0  0  0  0  0  0  0  0
    5.9003   -2.7366   -2.0030 H   0  0  0  0  0  0  0  0  0  0  0  0
  1  2  1  0
  2  3  1  0
  3  4  2  0
  4  5  1  0
  5  6  2  0
  6  7  1  0
  7  8  1  0
  7  9  1  0
  9 10  1  0
 10 11  1  0
 11 12  1  0
 12 13  1  0
 13 14  1  0
 14 15  2  0
 15 16  1  0
 16 17  1  0
 16 18  2  0
 18 19  1  0
 19 20  2  0
 20 21  1  0
 13 22  1  0
 22 23  1  0
  6 24  1  0
 24 25  2  0
 25 26  1  0
 26 27  1  0
 25  3  1  0
 23 10  1  0
 20 14  1  0
  1 28  1  0
  1 29  1  0
  1 30  1  0
  4 31  1  0
  5 32  1  0
  7 33  1  0
  8 34  1  0
  9 35  1  0
  9 36  1  0
 11 37  1  0
 11 38  1  0
 12 39  1  0
 12 40  1  0
 15 41  1  0
 17 42  1  0
 17 43  1  0
 17 44  1  0
 18 45  1  0
 19 46  1  0
 21 47  1  0
 21 48  1  0
 21 49  1  0
 22 50  1  0
 22 51  1  0
 23 52  1  0
 23 53  1  0
 24 54  1  0
 27 55  1  0
 27 56  1  0
 27 57  1  0
M  END
$$$$
