
     RDKit          3D

 53 57  0  0  0  0  0  0  0  0999 V2000
   -2.4177   -2.7212   -1.7143 C   0  0  0  0  0  0  0  0  0  0  0  0
   -1.7377   -3.4324   -0.5466 C   0  0  2  0  0  0  0  0  0  0  0  0
   -2.6140   -3.4615    0.7209 C   0  0  0  0  0  0  0  0  0  0  0  0
   -2.1098   -4.3449    1.7404 O   0  0  0  0  0  0  0  0  0  0  0  0
   -0.7042   -4.6211    1.6193 C   0  0  0  0  0  0  0  0  0  0  0  0
    0.1043   -3.4156    1.1184 C   0  0  0  0  0  0  0  0  0  0  0  0
   -0.3579   -2.9592   -0.2287 N   0  0  0  0  0  0  0  0  0  0  0  0
   -0.1009   -1.5747   -0.3227 C   0  0  0  0  0  0  0  0  0  0  0  0
    1.1739   -1.1748   -0.6821 C   0  0  0  0  0  0  0  0  0  0  0  0
    1.4514    0.1774   -0.7112 C   0  0  0  0  0  0  0  0  0  0  0  0
    2.8165    0.6928   -1.0586 C   0  0  0  0  0  0  0  0  0  0  0  0
    4.0548    0.6495    0.3054 S   0  0  2  0  0  6  0  0  0  0  0  0
    3.1749    1.3140    1.7035 C   0  0  0  0  0  0  0  0  0  0  0  0
    5.1950    1.6424   -0.0239 N   0  0  0  0  0  0  0  0  0  0  0  0
    4.2881   -0.7599    0.5680 O   0  0  0  0  0  0  0  0  0  0  0  0
    3.4420    0.4140   -2.4122 C   0  0  0  0  0  0  0  0  0  0  0  0
    2.9943    1.8091   -2.0670 C   0  0  0  0  0  0  0  0  0  0  0  0
    0.4962    1.0759   -0.3920 N   0  0  0  0  0  0  0  0  0  0  0  0
   -0.7229    0.6225   -0.0593 C   0  0  0  0  0  0  0  0  0  0  0  0
   -1.7653    1.5936    0.3071 C   0  0  0  0  0  0  0  0  0  0  0  0
   -3.0023    1.1893    0.8558 C   0  0  0  0  0  0  0  0  0  0  0  0
   -3.9627    2.1309    1.1983 C   0  0  0  0  0  0  0  0  0  0  0  0
   -3.8334    3.4641    1.0530 N   0  0  0  0  0  0  0  0  0  0  0  0
   -2.6493    3.8220    0.5248 C   0  0  0  0  0  0  0  0  0  0  0  0
   -2.2946    5.1218    0.2820 N   0  0  0  0  0  0  0  0  0  0  0  0
   -1.0370    5.1695   -0.2554 C   0  0  0  0  0  0  0  0  0  0  0  0
   -0.5812    3.8717   -0.3617 C   0  0  0  0  0  0  0  0  0  0  0  0
   -1.5963    2.9934    0.1363 C   0  0  0  0  0  0  0  0  0  0  0  0
   -1.0463   -0.6818    0.0000 N   0  0  0  0  0  0  0  0  0  0  0  0
   -3.3170   -3.2715   -2.0116 H   0  0  0  0  0  0  0  0  0  0  0  0
   -1.7603   -2.6651   -2.5870 H   0  0  0  0  0  0  0  0  0  0  0  0
   -2.7435   -1.7070   -1.4669 H   0  0  0  0  0  0  0  0  0  0  0  0
   -1.6102   -4.4734   -0.8777 H   0  0  0  0  0  0  0  0  0  0  0  0
   -2.7072   -2.4655    1.1678 H   0  0  0  0  0  0  0  0  0  0  0  0
   -3.6260   -3.8032    0.4783 H   0  0  0  0  0  0  0  0  0  0  0  0
   -0.5772   -5.4857    0.9561 H   0  0  0  0  0  0  0  0  0  0  0  0
   -0.3513   -4.9181    2.6142 H   0  0  0  0  0  0  0  0  0  0  0  0
    1.1655   -3.6857    1.0617 H   0  0  0  0  0  0  0  0  0  0  0  0
   -0.0075   -2.6117    1.8630 H   0  0  0  0  0  0  0  0  0  0  0  0
    1.9354   -1.9080   -0.9237 H   0  0  0  0  0  0  0  0  0  0  0  0
    2.3479    0.6498    1.9651 H   0  0  0  0  0  0  0  0  0  0  0  0
    3.8683    1.3710    2.5455 H   0  0  0  0  0  0  0  0  0  0  0  0
    2.8023    2.3126    1.4534 H   0  0  0  0  0  0  0  0  0  0  0  0
    5.8965    1.6443    0.7192 H   0  0  0  0  0  0  0  0  0  0  0  0
    2.8659   -0.1308   -3.1535 H   0  0  0  0  0  0  0  0  0  0  0  0
    4.5091    0.2250   -2.4698 H   0  0  0  0  0  0  0  0  0  0  0  0
    2.1113    2.1945   -2.5662 H   0  0  0  0  0  0  0  0  0  0  0  0
    3.7563    2.5668   -1.9162 H   0  0  0  0  0  0  0  0  0  0  0  0
   -3.2148    0.1353    1.0208 H   0  0  0  0  0  0  0  0  0  0  0  0
   -4.9127    1.8109    1.6239 H   0  0  0  0  0  0  0  0  0  0  0  0
   -2.8956    5.9088    0.4806 H   0  0  0  0  0  0  0  0  0  0  0  0
   -0.5781    6.1135   -0.5170 H   0  0  0  0  0  0  0  0  0  0  0  0
    0.3851    3.5865   -0.7575 H   0  0  0  0  0  0  0  0  0  0  0  0
  1  2  1  0
  2  3  1  0
  3  4  1  0
  4  5  1  0
  5  6  1  0
  6  7  1  0
  7  8  1  0
  8  9  2  0
  9 10  1  0
 10 11  1  0
 11 12  1  0
 12 13  1  1
 12 14  2  0
 12 15  2  0
 11 16  1  0
 16 17  1  0
 10 18  2  0
 18 19  1  0
 19 20  1  0
 20 21  2  0
 21 22  1  0
 22 23  2  0
 23 24  1  0
 24 25  1  0
 25 26  1  0
 26 27  2  0
 27 28  1  0
 19 29  2  0
  7  2  1  0
 29  8  1  0
 17 11  1  0
 28 20  1  0
 28 24  2  0
  1 30  1  0
  1 31  1  0
  1 32  1  0
  2 33  1  6
  3 34  1  0
  3 35  1  0
  5 36  1  0
  5 37  1  0
  6 38  1  0
  6 39  1  0
  9 40  1  0
 13 41  1  0
 13 42  1  0
 13 43  1  0
 14 44  1  0
 16 45  1  0
 16 46  1  0
 17 47  1  0
 17 48  1  0
 21 49  1  0
 22 50  1  0
 25 51  1  0
 26 52  1  0
 27 53  1  0
M  END
$$$$
