
     RDKit          3D

 51 54  0  0  0  0  0  0  0  0999 V2000
   -3.2633   -2.2206    1.0066 C   0  0  0  0  0  0  0  0  0  0  0  0
   -4.1855   -1.1542    0.6290 N   0  0  0  0  0  0  0  0  0  0  0  0
   -3.6706    0.0936    0.3095 C   0  0  0  0  0  0  0  0  0  0  0  0
   -2.2838    0.2999    0.2569 N   0  0  0  0  0  0  0  0  0  0  0  0
   -1.6766    1.4825    0.9194 C   0  0  0  0  0  0  0  0  0  0  0  0
   -0.1856    1.2395    1.1989 C   0  0  0  0  0  0  0  0  0  0  0  0
    0.5590    0.8014    0.0104 N   0  0  0  0  0  0  0  0  0  0  0  0
    1.9391    1.0381    0.0025 C   0  0  0  0  0  0  0  0  0  0  0  0
    2.4629    1.7501    0.8605 O   0  0  0  0  0  0  0  0  0  0  0  0
    2.7330    0.3948   -1.1341 C   0  0  0  0  0  0  0  0  0  0  0  0
    4.2051    0.6598   -1.0758 C   0  0  0  0  0  0  0  0  0  0  0  0
    4.8979    1.6163   -1.7942 C   0  0  0  0  0  0  0  0  0  0  0  0
    6.2227    1.5282   -1.4617 N   0  0  0  0  0  0  0  0  0  0  0  0
    6.4205    0.5152   -0.5535 C   0  0  0  0  0  0  0  0  0  0  0  0
    7.6004    0.0623    0.0492 C   0  0  0  0  0  0  0  0  0  0  0  0
    7.4997   -0.9957    0.9571 C   0  0  0  0  0  0  0  0  0  0  0  0
    6.2670   -1.5731    1.2508 C   0  0  0  0  0  0  0  0  0  0  0  0
    5.0972   -1.1074    0.6391 C   0  0  0  0  0  0  0  0  0  0  0  0
    5.1711   -0.0438   -0.2843 C   0  0  0  0  0  0  0  0  0  0  0  0
   -0.0854   -0.2685   -0.7644 C   0  0  0  0  0  0  0  0  0  0  0  0
   -1.5822   -0.0130   -1.0126 C   0  0  0  0  0  0  0  0  0  0  0  0
   -4.5258    1.0928    0.0541 C   0  0  0  0  0  0  0  0  0  0  0  0
   -5.9767    0.8881    0.0901 C   0  0  0  0  0  0  0  0  0  0  0  0
   -6.7123    1.8561   -0.0894 O   0  0  0  0  0  0  0  0  0  0  0  0
   -6.4020   -0.3977    0.3212 N   0  0  0  0  0  0  0  0  0  0  0  0
   -7.8270   -0.6628    0.3494 C   0  0  0  0  0  0  0  0  0  0  0  0
   -5.5492   -1.4442    0.6419 C   0  0  0  0  0  0  0  0  0  0  0  0
   -5.9843   -2.5633    0.9252 O   0  0  0  0  0  0  0  0  0  0  0  0
   -2.5593   -1.8552    1.7617 H   0  0  0  0  0  0  0  0  0  0  0  0
   -3.7829   -3.0842    1.4310 H   0  0  0  0  0  0  0  0  0  0  0  0
   -2.7195   -2.5551    0.1181 H   0  0  0  0  0  0  0  0  0  0  0  0
   -1.7929    2.3644    0.2768 H   0  0  0  0  0  0  0  0  0  0  0  0
   -2.1852    1.6862    1.8692 H   0  0  0  0  0  0  0  0  0  0  0  0
   -0.0697    0.4500    1.9520 H   0  0  0  0  0  0  0  0  0  0  0  0
    0.2554    2.1539    1.6101 H   0  0  0  0  0  0  0  0  0  0  0  0
    2.3372    0.7747   -2.0837 H   0  0  0  0  0  0  0  0  0  0  0  0
    2.5755   -0.6895   -1.1053 H   0  0  0  0  0  0  0  0  0  0  0  0
    4.5586    2.3595   -2.5033 H   0  0  0  0  0  0  0  0  0  0  0  0
    6.9560    2.1194   -1.8266 H   0  0  0  0  0  0  0  0  0  0  0  0
    8.5612    0.5148   -0.1725 H   0  0  0  0  0  0  0  0  0  0  0  0
    8.3972   -1.3684    1.4452 H   0  0  0  0  0  0  0  0  0  0  0  0
    6.2096   -2.3896    1.9662 H   0  0  0  0  0  0  0  0  0  0  0  0
    4.1414   -1.5591    0.8848 H   0  0  0  0  0  0  0  0  0  0  0  0
    0.4122   -0.3986   -1.7287 H   0  0  0  0  0  0  0  0  0  0  0  0
    0.0483   -1.1955   -0.1935 H   0  0  0  0  0  0  0  0  0  0  0  0
   -1.7048    0.8284   -1.7067 H   0  0  0  0  0  0  0  0  0  0  0  0
   -2.0189   -0.8975   -1.4906 H   0  0  0  0  0  0  0  0  0  0  0  0
   -4.2008    2.0922   -0.2015 H   0  0  0  0  0  0  0  0  0  0  0  0
   -8.1403   -0.7619    1.3938 H   0  0  0  0  0  0  0  0  0  0  0  0
   -8.4018    0.1393   -0.1214 H   0  0  0  0  0  0  0  0  0  0  0  0
   -8.0417   -1.6025   -0.1697 H   0  0  0  0  0  0  0  0  0  0  0  0
  1  2  1  0
  2  3  1  0
  3  4  1  0
  4  5  1  0
  5  6  1  0
  6  7  1  0
  7  8  1  0
  8  9  2  0
  8 10  1  0
 10 11  1  0
 11 12  2  0
 12 13  1  0
 13 14  1  0
 14 15  2  0
 15 16  1  0
 16 17  2  0
 17 18  1  0
 18 19  2  0
  7 20  1  0
 20 21  1  0
  3 22  2  0
 22 23  1  0
 23 24  2  0
 23 25  1  0
 25 26  1  0
 25 27  1  0
 27 28  2  0
 27  2  1  0
 21  4  1  0
 19 11  1  0
 19 14  1  0
  1 29  1  0
  1 30  1  0
  1 31  1  0
  5 32  1  0
  5 33  1  0
  6 34  1  0
  6 35  1  0
 10 36  1  0
 10 37  1  0
 12 38  1  0
 13 39  1  0
 15 40  1  0
 16 41  1  0
 17 42  1  0
 18 43  1  0
 20 44  1  0
 20 45  1  0
 21 46  1  0
 21 47  1  0
 22 48  1  0
 26 49  1  0
 26 50  1  0
 26 51  1  0
M  END
$$$$
