
     RDKit          3D

 59 60  0  0  0  0  0  0  0  0999 V2000
    5.8997   -0.4519    1.8598 C   0  0  0  0  0  0  0  0  0  0  0  0
    5.6925   -0.4582    0.3737 C   0  0  0  0  0  0  0  0  0  0  0  0
    6.7867   -0.5759   -0.4925 C   0  0  0  0  0  0  0  0  0  0  0  0
    6.5948   -0.6320   -1.8735 C   0  0  0  0  0  0  0  0  0  0  0  0
    5.3055   -0.5735   -2.4020 C   0  0  0  0  0  0  0  0  0  0  0  0
    4.2011   -0.4536   -1.5508 C   0  0  0  0  0  0  0  0  0  0  0  0
    2.8417   -0.4016   -2.1586 C   0  0  0  0  0  0  0  0  0  0  0  0
    2.6412   -0.8684   -3.2743 O   0  0  0  0  0  0  0  0  0  0  0  0
    1.8651    0.2217   -1.4163 N   0  0  0  0  0  0  0  0  0  0  0  0
    0.5749    0.4672   -1.9783 C   0  0  0  0  0  0  0  0  0  0  0  0
   -0.2302    0.9936   -0.8865 N   0  0  0  0  0  0  0  0  0  0  0  0
   -0.6686   -0.0754    0.0456 C   0  0  0  0  0  0  0  0  0  0  0  0
   -2.0771   -0.6639   -0.2127 C   0  0  0  0  0  0  0  0  0  0  0  0
   -3.1123    0.3953   -0.2463 N   0  0  0  0  0  0  0  0  0  0  0  0
   -4.3246    0.1852    0.4125 C   0  0  0  0  0  0  0  0  0  0  0  0
   -4.8431    1.1626    1.2866 C   0  0  0  0  0  0  0  0  0  0  0  0
   -6.0504    0.9898    1.9744 C   0  0  0  0  0  0  0  0  0  0  0  0
   -6.7903   -0.1703    1.8020 C   0  0  0  0  0  0  0  0  0  0  0  0
   -6.3241   -1.1510    0.9335 C   0  0  0  0  0  0  0  0  0  0  0  0
   -5.1104   -0.9803    0.2383 C   0  0  0  0  0  0  0  0  0  0  0  0
   -4.7504   -2.0177   -0.6878 C   0  0  0  0  0  0  0  0  0  0  0  0
   -4.4792   -2.8849   -1.4120 N   0  0  0  0  0  0  0  0  0  0  0  0
   -2.6102    1.7611   -0.4836 C   0  0  0  0  0  0  0  0  0  0  0  0
   -1.4011    1.7146   -1.4430 C   0  0  0  0  0  0  0  0  0  0  0  0
    4.3971   -0.4135   -0.1627 C   0  0  0  0  0  0  0  0  0  0  0  0
   -1.1167   -0.6515   -1.4590 O   0  0  0  0  0  0  0  0  0  0  0  0
   -1.4483   -0.2665   -0.3563 C   0  0  0  0  0  0  0  0  0  0  0  0
   -2.6747    0.2110   -0.0953 O   0  0  0  0  0  0  0  0  0  0  0  0
   -0.6551   -0.2967    0.8766 C   0  0  0  0  0  0  0  0  0  0  0  0
    0.6633   -0.0674    0.9172 C   0  0  0  0  0  0  0  0  0  0  0  0
    1.4457    0.3871   -0.2367 C   0  0  0  0  0  0  0  0  0  0  0  0
    1.1056    1.1722   -1.0981 O   0  0  0  0  0  0  0  0  0  0  0  0
    2.6729   -0.1533   -0.1943 O   0  0  0  0  0  0  0  0  0  0  0  0
    5.8738   -1.4756    2.2455 H   0  0  0  0  0  0  0  0  0  0  0  0
    6.8632   -0.0001    2.1182 H   0  0  0  0  0  0  0  0  0  0  0  0
    5.1219    0.1352    2.3595 H   0  0  0  0  0  0  0  0  0  0  0  0
    7.7982   -0.6334   -0.0951 H   0  0  0  0  0  0  0  0  0  0  0  0
    7.4494   -0.7282   -2.5387 H   0  0  0  0  0  0  0  0  0  0  0  0
    5.1623   -0.6238   -3.4797 H   0  0  0  0  0  0  0  0  0  0  0  0
    2.1237    0.8372   -0.6616 H   0  0  0  0  0  0  0  0  0  0  0  0
    0.1657   -0.4440   -2.4306 H   0  0  0  0  0  0  0  0  0  0  0  0
    0.7166    1.2131   -2.7700 H   0  0  0  0  0  0  0  0  0  0  0  0
    0.0603   -0.8937    0.0957 H   0  0  0  0  0  0  0  0  0  0  0  0
   -0.6710    0.3686    1.0502 H   0  0  0  0  0  0  0  0  0  0  0  0
   -2.0733   -1.1900   -1.1742 H   0  0  0  0  0  0  0  0  0  0  0  0
   -2.2825   -1.3950    0.5788 H   0  0  0  0  0  0  0  0  0  0  0  0
   -4.2979    2.0838    1.4738 H   0  0  0  0  0  0  0  0  0  0  0  0
   -6.4049    1.7674    2.6469 H   0  0  0  0  0  0  0  0  0  0  0  0
   -7.7287   -0.3076    2.3328 H   0  0  0  0  0  0  0  0  0  0  0  0
   -6.9176   -2.0522    0.7855 H   0  0  0  0  0  0  0  0  0  0  0  0
   -3.3961    2.3731   -0.9424 H   0  0  0  0  0  0  0  0  0  0  0  0
   -2.3080    2.2363    0.4579 H   0  0  0  0  0  0  0  0  0  0  0  0
   -1.0940    2.7386   -1.6849 H   0  0  0  0  0  0  0  0  0  0  0  0
   -1.7356    1.2446   -2.3788 H   0  0  0  0  0  0  0  0  0  0  0  0
    3.5461   -0.3733    0.5122 H   0  0  0  0  0  0  0  0  0  0  0  0
   -3.1132    0.2059   -0.9720 H   0  0  0  0  0  0  0  0  0  0  0  0
   -1.1972   -0.5597    1.7770 H   0  0  0  0  0  0  0  0  0  0  0  0
    1.2138   -0.1756    1.8440 H   0  0  0  0  0  0  0  0  0  0  0  0
    3.1038    0.1945   -1.0032 H   0  0  0  0  0  0  0  0  0  0  0  0
  1  2  1  0
  2  3  2  0
  3  4  1  0
  4  5  2  0
  5  6  1  0
  6  7  1  0
  7  8  2  0
  7  9  1  0
  9 10  1  0
 10 11  1  0
 11 12  1  0
 12 13  1  0
 13 14  1  0
 14 15  1  0
 15 16  2  0
 16 17  1  0
 17 18  2  0
 18 19  1  0
 19 20  2  0
 20 21  1  0
 21 22  3  0
 14 23  1  0
 23 24  1  0
  6 25  2  0
 26 27  2  0
 27 28  1  0
 27 29  1  0
 29 30  2  0
 30 31  1  0
 31 32  2  0
 31 33  1  0
 25  2  1  0
 24 11  1  0
 20 15  1  0
  1 34  1  0
  1 35  1  0
  1 36  1  0
  3 37  1  0
  4 38  1  0
  5 39  1  0
  9 40  1  0
 10 41  1  0
 10 42  1  0
 12 43  1  0
 12 44  1  0
 13 45  1  0
 13 46  1  0
 16 47  1  0
 17 48  1  0
 18 49  1  0
 19 50  1  0
 23 51  1  0
 23 52  1  0
 24 53  1  0
 24 54  1  0
 25 55  1  0
 28 56  1  0
 29 57  1  0
 30 58  1  0
 33 59  1  0
M  END
$$$$
