
     RDKit          3D

 62 64  0  0  0  0  0  0  0  0999 V2000
    1.0617   -0.3972   -0.1589 C   0  0  0  0  0  0  0  0  0  0  0  0
   -0.3998    0.6108   -0.0651 S   0  0  0  0  0  6  0  0  0  0  0  0
   -0.9194    0.8345   -1.3948 O   0  0  0  0  0  0  0  0  0  0  0  0
   -0.1958    1.6818    0.8814 O   0  0  0  0  0  0  0  0  0  0  0  0
   -1.3812   -0.4772    0.6125 O   0  0  0  0  0  0  0  0  0  0  0  0
    6.4777    2.2327    1.2388 N   0  0  0  0  0  0  0  0  0  0  0  0
    5.9594    1.3929    0.6270 C   0  0  0  0  0  0  0  0  0  0  0  0
    5.3201    0.3018   -0.1565 C   0  0  0  0  0  0  0  0  0  0  0  0
    3.8386    0.2078    0.2143 C   0  0  0  0  0  0  0  0  0  0  0  0
    2.8286    0.7425   -0.6008 C   0  0  0  0  0  0  0  0  0  0  0  0
    1.4779    0.6673   -0.2312 C   0  0  0  0  0  0  0  0  0  0  0  0
    1.1015    0.0701    0.9688 C   0  0  0  0  0  0  0  0  0  0  0  0
   -0.2291   -0.0237    1.4213 N   0  0  0  0  0  0  0  0  0  0  0  0
   -1.3758    0.3449    0.7409 C   0  0  0  0  0  0  0  0  0  0  0  0
   -1.4633    0.7612   -0.4083 O   0  0  0  0  0  0  0  0  0  0  0  0
   -2.6209    0.2019    1.5301 C   0  0  0  0  0  0  0  0  0  0  0  0
   -2.6914    0.7657    2.8117 C   0  0  0  0  0  0  0  0  0  0  0  0
   -3.8721    0.6615    3.5336 C   0  0  0  0  0  0  0  0  0  0  0  0
   -4.9310   -0.0005    2.9439 C   0  0  0  0  0  0  0  0  0  0  0  0
   -4.8849   -0.5443    1.7065 N   0  0  0  0  0  0  0  0  0  0  0  0
   -3.7456   -0.4316    0.9829 C   0  0  0  0  0  0  0  0  0  0  0  0
   -3.6763   -1.0420   -0.2760 N   0  0  0  0  0  0  0  0  0  0  0  0
   -4.9163   -1.5253   -0.8700 C   0  0  0  0  0  0  0  0  0  0  0  0
   -5.5114   -0.5453   -1.8592 C   0  0  0  0  0  0  0  0  0  0  0  0
   -5.6675    0.8133   -1.5611 C   0  0  0  0  0  0  0  0  0  0  0  0
   -6.2540    1.6438   -2.5056 C   0  0  0  0  0  0  0  0  0  0  0  0
   -6.7127    1.2180   -3.7016 N   0  0  0  0  0  0  0  0  0  0  0  0
   -6.5716   -0.0965   -3.9649 C   0  0  0  0  0  0  0  0  0  0  0  0
   -5.9903   -1.0029   -3.0911 C   0  0  0  0  0  0  0  0  0  0  0  0
    2.0979   -0.4496    1.7986 C   0  0  0  0  0  0  0  0  0  0  0  0
    3.4459   -0.3798    1.4291 C   0  0  0  0  0  0  0  0  0  0  0  0
    5.5980    0.5083   -1.6615 C   0  0  0  0  0  0  0  0  0  0  0  0
    7.0478    0.0793   -1.8649 C   0  0  0  0  0  0  0  0  0  0  0  0
    7.3121   -0.9915   -0.8113 C   0  0  0  0  0  0  0  0  0  0  0  0
    6.0684   -1.0315    0.0798 C   0  0  0  0  0  0  0  0  0  0  0  0
    0.8495   -1.2733   -0.7744 H   0  0  0  0  0  0  0  0  0  0  0  0
    1.8538    0.1988   -0.6172 H   0  0  0  0  0  0  0  0  0  0  0  0
    1.3509   -0.6931    0.8518 H   0  0  0  0  0  0  0  0  0  0  0  0
   -2.2198   -0.4851    0.1000 H   0  0  0  0  0  0  0  0  0  0  0  0
    3.0633    1.2386   -1.5400 H   0  0  0  0  0  0  0  0  0  0  0  0
    0.7435    1.1013   -0.9029 H   0  0  0  0  0  0  0  0  0  0  0  0
   -0.3578   -0.4672    2.3222 H   0  0  0  0  0  0  0  0  0  0  0  0
   -1.8470    1.3066    3.2303 H   0  0  0  0  0  0  0  0  0  0  0  0
   -3.9687    1.0931    4.5230 H   0  0  0  0  0  0  0  0  0  0  0  0
   -5.8799   -0.1158    3.4608 H   0  0  0  0  0  0  0  0  0  0  0  0
   -3.1422   -0.4519   -0.9222 H   0  0  0  0  0  0  0  0  0  0  0  0
   -5.6785   -1.8286   -0.1408 H   0  0  0  0  0  0  0  0  0  0  0  0
   -4.6509   -2.4426   -1.4121 H   0  0  0  0  0  0  0  0  0  0  0  0
   -5.3422    1.2277   -0.6131 H   0  0  0  0  0  0  0  0  0  0  0  0
   -6.3795    2.7050   -2.3127 H   0  0  0  0  0  0  0  0  0  0  0  0
   -6.9582   -0.4202   -4.9270 H   0  0  0  0  0  0  0  0  0  0  0  0
   -5.9214   -2.0482   -3.3729 H   0  0  0  0  0  0  0  0  0  0  0  0
    1.8451   -0.9122    2.7489 H   0  0  0  0  0  0  0  0  0  0  0  0
    4.1867   -0.7817    2.1173 H   0  0  0  0  0  0  0  0  0  0  0  0
    5.4401    1.5391   -1.9979 H   0  0  0  0  0  0  0  0  0  0  0  0
    4.9550   -0.1424   -2.2680 H   0  0  0  0  0  0  0  0  0  0  0  0
    7.7240    0.9286   -1.7087 H   0  0  0  0  0  0  0  0  0  0  0  0
    7.2200   -0.2921   -2.8809 H   0  0  0  0  0  0  0  0  0  0  0  0
    8.2040   -0.7347   -0.2282 H   0  0  0  0  0  0  0  0  0  0  0  0
    7.4957   -1.9714   -1.2692 H   0  0  0  0  0  0  0  0  0  0  0  0
    5.4467   -1.8835   -0.2307 H   0  0  0  0  0  0  0  0  0  0  0  0
    6.3426   -1.1964    1.1287 H   0  0  0  0  0  0  0  0  0  0  0  0
  1  2  1  0
  2  3  2  0
  2  4  2  0
  2  5  1  0
  6  7  3  0
  7  8  1  0
  8  9  1  0
  9 10  2  0
 10 11  1  0
 11 12  2  0
 12 13  1  0
 13 14  1  0
 14 15  2  0
 14 16  1  0
 16 17  2  0
 17 18  1  0
 18 19  2  0
 19 20  1  0
 20 21  2  0
 21 22  1  0
 22 23  1  0
 23 24  1  0
 24 25  2  0
 25 26  1  0
 26 27  2  0
 27 28  1  0
 28 29  2  0
 12 30  1  0
 30 31  2  0
  8 32  1  0
 32 33  1  0
 33 34  1  0
 34 35  1  0
 35  8  1  0
 31  9  1  0
 21 16  1  0
 29 24  1  0
  1 36  1  0
  1 37  1  0
  1 38  1  0
  5 39  1  0
 10 40  1  0
 11 41  1  0
 13 42  1  0
 17 43  1  0
 18 44  1  0
 19 45  1  0
 22 46  1  0
 23 47  1  0
 23 48  1  0
 25 49  1  0
 26 50  1  0
 28 51  1  0
 29 52  1  0
 30 53  1  0
 31 54  1  0
 32 55  1  0
 32 56  1  0
 33 57  1  0
 33 58  1  0
 34 59  1  0
 34 60  1  0
 35 61  1  0
 35 62  1  0
M  END
$$$$
