
     RDKit          3D

 37 37  0  0  0  0  0  0  0  0999 V2000
    0.6851    0.0000    0.0000 Cl  0  0  0  0  0  0  0  0  0  0  0  0
    6.4803   -0.1239   -0.7337 N   0  0  0  0  0  0  0  0  0  0  0  0
    6.2683   -0.6168    0.5883 C   0  0  0  0  0  0  0  0  0  0  0  0
    4.7985   -0.6164    0.8747 C   0  0  0  0  0  0  0  0  0  0  0  0
    4.4835   -1.0323    2.0170 O   0  0  0  0  0  0  0  0  0  0  0  0
    3.9186   -0.1717   -0.1084 N   0  0  0  0  0  0  0  0  0  0  0  0
    2.5190   -0.1381    0.0924 C   0  0  0  0  0  0  0  0  0  0  0  0
    1.7457    0.0724   -1.0584 C   0  0  0  0  0  0  0  0  0  0  0  0
    0.3846    0.1350   -0.9701 C   0  0  0  0  0  0  0  0  0  0  0  0
   -0.2603   -0.0031    0.2233 C   0  0  0  0  0  0  0  0  0  0  0  0
   -1.6351    0.0505    0.3768 O   0  0  0  0  0  0  0  0  0  0  0  0
   -2.5311    0.2557   -0.6917 C   0  0  0  0  0  0  0  0  0  0  0  0
   -3.9154    0.2534   -0.1504 C   0  0  0  0  0  0  0  0  0  0  0  0
   -4.5026    1.4258    0.2755 C   0  0  0  0  0  0  0  0  0  0  0  0
   -5.7943    1.4466    0.7844 C   0  0  0  0  0  0  0  0  0  0  0  0
   -6.5383    0.2862    0.8814 C   0  0  0  0  0  0  0  0  0  0  0  0
   -5.9418   -0.8868    0.4518 C   0  0  0  0  0  0  0  0  0  0  0  0
   -4.6606   -0.9109   -0.0536 C   0  0  0  0  0  0  0  0  0  0  0  0
    0.5014   -0.2088    1.3460 C   0  0  0  0  0  0  0  0  0  0  0  0
    1.8788   -0.2753    1.2798 C   0  0  0  0  0  0  0  0  0  0  0  0
   -0.6851    0.0000    0.0000 H   0  0  0  0  0  0  0  0  0  0  0  0
    6.3570    0.9056   -0.7694 H   0  0  0  0  0  0  0  0  0  0  0  0
    7.4707   -0.3208   -1.0489 H   0  0  0  0  0  0  0  0  0  0  0  0
    6.7361    0.0839    1.3037 H   0  0  0  0  0  0  0  0  0  0  0  0
    6.6527   -1.6541    0.7060 H   0  0  0  0  0  0  0  0  0  0  0  0
    4.3269    0.1520   -1.0298 H   0  0  0  0  0  0  0  0  0  0  0  0
    2.2391    0.1838   -2.0158 H   0  0  0  0  0  0  0  0  0  0  0  0
   -0.2001    0.2988   -1.8714 H   0  0  0  0  0  0  0  0  0  0  0  0
   -2.3312    1.2952   -1.0758 H   0  0  0  0  0  0  0  0  0  0  0  0
   -2.4255   -0.4459   -1.5150 H   0  0  0  0  0  0  0  0  0  0  0  0
   -3.9230    2.3414    0.2019 H   0  0  0  0  0  0  0  0  0  0  0  0
   -6.2552    2.3631    1.1181 H   0  0  0  0  0  0  0  0  0  0  0  0
   -7.5540    0.2652    1.2753 H   0  0  0  0  0  0  0  0  0  0  0  0
   -6.5176   -1.8229    0.5204 H   0  0  0  0  0  0  0  0  0  0  0  0
   -4.2109   -1.8339   -0.3840 H   0  0  0  0  0  0  0  0  0  0  0  0
    0.0185   -0.3242    2.3216 H   0  0  0  0  0  0  0  0  0  0  0  0
    2.4171   -0.4288    2.1907 H   0  0  0  0  0  0  0  0  0  0  0  0
  2  3  1  0
  3  4  1  0
  4  5  2  0
  4  6  1  0
  6  7  1  0
  7  8  2  0
  8  9  1  0
  9 10  2  0
 10 11  1  0
 11 12  1  0
 12 13  1  0
 13 14  2  0
 14 15  1  0
 15 16  2  0
 16 17  1  0
 17 18  2  0
 10 19  1  0
 19 20  2  0
 20  7  1  0
 18 13  1  0
  1 21  1  0
  2 22  1  0
  2 23  1  0
  3 24  1  0
  3 25  1  0
  6 26  1  0
  8 27  1  0
  9 28  1  0
 12 29  1  0
 12 30  1  0
 14 31  1  0
 15 32  1  0
 16 33  1  0
 17 34  1  0
 18 35  1  0
 19 36  1  0
 20 37  1  0
M  END
$$$$
