
     RDKit          3D

 49 51  0  0  0  0  0  0  0  0999 V2000
    7.4469   -0.6519   -0.2496 C   0  0  0  0  0  0  0  0  0  0  0  0
    7.1927    0.7390    0.0968 N   0  0  0  0  0  0  0  0  0  0  0  0
    7.1365    0.9487    1.5363 C   0  0  0  0  0  0  0  0  0  0  0  0
    6.0883    1.3549   -0.6457 C   0  0  0  0  0  0  0  0  0  0  0  0
    4.6466    1.1922   -0.1414 C   0  0  0  0  0  0  0  0  0  0  0  0
    4.1190   -0.2363   -0.1857 C   0  0  0  0  0  0  0  0  0  0  0  0
    2.6909   -0.2846    0.0708 N   0  0  0  0  0  0  0  0  0  0  0  0
    1.7710   -0.0715   -0.9352 C   0  0  0  0  0  0  0  0  0  0  0  0
    2.0832    0.1630   -2.0971 O   0  0  0  0  0  0  0  0  0  0  0  0
    0.3351   -0.1692   -0.5539 C   0  0  0  0  0  0  0  0  0  0  0  0
   -0.5868   -0.5544   -1.5326 C   0  0  0  0  0  0  0  0  0  0  0  0
   -1.9467   -0.6538   -1.2213 C   0  0  0  0  0  0  0  0  0  0  0  0
   -2.4155   -0.3626    0.0697 C   0  0  0  0  0  0  0  0  0  0  0  0
   -3.8463   -0.4619    0.3950 C   0  0  0  0  0  0  0  0  0  0  0  0
   -4.2952   -1.2751    1.4414 C   0  0  0  0  0  0  0  0  0  0  0  0
   -5.6610   -1.3591    1.7406 C   0  0  0  0  0  0  0  0  0  0  0  0
   -6.0614   -2.1738    2.7758 O   0  0  0  0  0  0  0  0  0  0  0  0
   -6.6324   -0.6455    1.0255 C   0  0  0  0  0  0  0  0  0  0  0  0
   -7.9496   -0.7335    1.3262 N   0  0  0  0  0  0  0  0  0  0  0  0
   -8.8322   -0.0192    0.5971 C   0  0  0  0  0  0  0  0  0  0  0  0
   -8.4729    0.8054   -0.4486 C   0  0  0  0  0  0  0  0  0  0  0  0
   -7.1243    0.9012   -0.7642 C   0  0  0  0  0  0  0  0  0  0  0  0
   -6.1775    0.1734   -0.0292 C   0  0  0  0  0  0  0  0  0  0  0  0
   -4.8048    0.2570   -0.3336 C   0  0  0  0  0  0  0  0  0  0  0  0
   -1.4805    0.0383    1.0390 C   0  0  0  0  0  0  0  0  0  0  0  0
   -0.1179    0.1397    0.7328 C   0  0  0  0  0  0  0  0  0  0  0  0
    8.4002   -0.9804    0.1802 H   0  0  0  0  0  0  0  0  0  0  0  0
    7.5402   -0.7751   -1.3342 H   0  0  0  0  0  0  0  0  0  0  0  0
    6.6706   -1.3320    0.1092 H   0  0  0  0  0  0  0  0  0  0  0  0
    6.3243    0.3868    2.0097 H   0  0  0  0  0  0  0  0  0  0  0  0
    8.0774    0.6391    2.0048 H   0  0  0  0  0  0  0  0  0  0  0  0
    7.0073    2.0113    1.7699 H   0  0  0  0  0  0  0  0  0  0  0  0
    6.1367    1.0518   -1.6999 H   0  0  0  0  0  0  0  0  0  0  0  0
    6.2926    2.4342   -0.6632 H   0  0  0  0  0  0  0  0  0  0  0  0
    4.0089    1.8299   -0.7682 H   0  0  0  0  0  0  0  0  0  0  0  0
    4.5446    1.5938    0.8742 H   0  0  0  0  0  0  0  0  0  0  0  0
    4.5876   -0.8476    0.5900 H   0  0  0  0  0  0  0  0  0  0  0  0
    4.3184   -0.6951   -1.1602 H   0  0  0  0  0  0  0  0  0  0  0  0
    2.3822   -0.5990    0.9797 H   0  0  0  0  0  0  0  0  0  0  0  0
   -0.2483   -0.7817   -2.5420 H   0  0  0  0  0  0  0  0  0  0  0  0
   -2.6400   -0.9688   -1.9995 H   0  0  0  0  0  0  0  0  0  0  0  0
   -3.5758   -1.8516    2.0167 H   0  0  0  0  0  0  0  0  0  0  0  0
   -5.2951   -2.6423    3.1382 H   0  0  0  0  0  0  0  0  0  0  0  0
   -9.8715   -0.1352    0.8906 H   0  0  0  0  0  0  0  0  0  0  0  0
   -9.2218    1.3586   -1.0031 H   0  0  0  0  0  0  0  0  0  0  0  0
   -6.8161    1.5450   -1.5843 H   0  0  0  0  0  0  0  0  0  0  0  0
   -4.4776    0.9045   -1.1465 H   0  0  0  0  0  0  0  0  0  0  0  0
   -1.8143    0.3001    2.0420 H   0  0  0  0  0  0  0  0  0  0  0  0
    0.5643    0.4933    1.5002 H   0  0  0  0  0  0  0  0  0  0  0  0
  1  2  1  0
  2  3  1  0
  2  4  1  0
  4  5  1  0
  5  6  1  0
  6  7  1  0
  7  8  1  0
  8  9  2  0
  8 10  1  0
 10 11  2  0
 11 12  1  0
 12 13  2  0
 13 14  1  0
 14 15  2  0
 15 16  1  0
 16 17  1  0
 16 18  2  0
 18 19  1  0
 19 20  2  0
 20 21  1  0
 21 22  2  0
 22 23  1  0
 23 24  2  0
 13 25  1  0
 25 26  2  0
 26 10  1  0
 24 14  1  0
 23 18  1  0
  1 27  1  0
  1 28  1  0
  1 29  1  0
  3 30  1  0
  3 31  1  0
  3 32  1  0
  4 33  1  0
  4 34  1  0
  5 35  1  0
  5 36  1  0
  6 37  1  0
  6 38  1  0
  7 39  1  0
 11 40  1  0
 12 41  1  0
 15 42  1  0
 17 43  1  0
 20 44  1  0
 21 45  1  0
 22 46  1  0
 24 47  1  0
 25 48  1  0
 26 49  1  0
M  END
$$$$
