
     RDKit          3D

 56 59  0  0  0  0  0  0  0  0999 V2000
    4.5371   -2.1936    2.9663 C   0  0  0  0  0  0  0  0  0  0  0  0
    3.2658   -1.6514    2.3380 C   0  0  0  0  0  0  0  0  0  0  0  0
    3.4812   -1.5424    0.9351 O   0  0  0  0  0  0  0  0  0  0  0  0
    2.4521   -1.0694    0.1580 C   0  0  0  0  0  0  0  0  0  0  0  0
    1.1991   -0.6833    0.6526 C   0  0  0  0  0  0  0  0  0  0  0  0
    0.1876   -0.2102   -0.2061 C   0  0  0  0  0  0  0  0  0  0  0  0
   -1.1580    0.2173    0.3831 C   0  0  0  0  0  0  0  0  0  0  0  0
   -2.3230   -0.1513   -0.4187 N   0  0  0  0  0  0  0  0  0  0  0  0
   -2.4890   -1.4651   -0.8226 C   0  0  0  0  0  0  0  0  0  0  0  0
   -2.3998   -2.5427    0.0540 C   0  0  0  0  0  0  0  0  0  0  0  0
   -2.5789   -3.8454   -0.4238 C   0  0  0  0  0  0  0  0  0  0  0  0
   -2.5111   -5.0171    0.5065 C   0  0  0  0  0  0  0  0  0  0  0  0
   -2.8819   -4.0194   -1.7709 C   0  0  0  0  0  0  0  0  0  0  0  0
   -2.9742   -2.8943   -2.5705 C   0  0  0  0  0  0  0  0  0  0  0  0
   -2.7886   -1.6331   -2.1249 N   0  0  0  0  0  0  0  0  0  0  0  0
   -1.1880    1.7107    0.7033 C   0  0  0  0  0  0  0  0  0  0  0  0
   -0.9263    2.1375    2.0163 C   0  0  0  0  0  0  0  0  0  0  0  0
   -0.9182    3.4962    2.3418 C   0  0  0  0  0  0  0  0  0  0  0  0
   -1.1686    4.4645    1.3568 C   0  0  0  0  0  0  0  0  0  0  0  0
   -1.1692    5.8364    1.6425 C   0  0  0  0  0  0  0  0  0  0  0  0
   -1.4230    6.7531    0.6288 C   0  0  0  0  0  0  0  0  0  0  0  0
   -1.6687    6.2671   -0.6420 C   0  0  0  0  0  0  0  0  0  0  0  0
   -1.6768    4.9531   -0.9588 N   0  0  0  0  0  0  0  0  0  0  0  0
   -1.4294    4.0683    0.0323 C   0  0  0  0  0  0  0  0  0  0  0  0
   -1.4301    2.7031   -0.2602 C   0  0  0  0  0  0  0  0  0  0  0  0
   -1.6928    2.3431   -1.5669 O   0  0  0  0  0  0  0  0  0  0  0  0
    0.4716   -0.1204   -1.5750 C   0  0  0  0  0  0  0  0  0  0  0  0
    1.7175   -0.5042   -2.0792 C   0  0  0  0  0  0  0  0  0  0  0  0
    2.7128   -0.9806   -1.2227 C   0  0  0  0  0  0  0  0  0  0  0  0
    3.9628   -1.3788   -1.6294 O   0  0  0  0  0  0  0  0  0  0  0  0
    4.2467   -1.3257   -3.0199 C   0  0  0  0  0  0  0  0  0  0  0  0
    5.3828   -1.5293    2.7600 H   0  0  0  0  0  0  0  0  0  0  0  0
    4.4240   -2.2958    4.0493 H   0  0  0  0  0  0  0  0  0  0  0  0
    4.7894   -3.1716    2.5432 H   0  0  0  0  0  0  0  0  0  0  0  0
    3.0477   -0.6669    2.7677 H   0  0  0  0  0  0  0  0  0  0  0  0
    2.4423   -2.3447    2.5446 H   0  0  0  0  0  0  0  0  0  0  0  0
    0.9833   -0.7427    1.7140 H   0  0  0  0  0  0  0  0  0  0  0  0
   -1.2756   -0.3053    1.3425 H   0  0  0  0  0  0  0  0  0  0  0  0
   -2.3844    0.4284   -1.2571 H   0  0  0  0  0  0  0  0  0  0  0  0
   -2.2041   -2.3761    1.1068 H   0  0  0  0  0  0  0  0  0  0  0  0
   -3.4964   -5.2062    0.9433 H   0  0  0  0  0  0  0  0  0  0  0  0
   -2.1800   -5.9174   -0.0219 H   0  0  0  0  0  0  0  0  0  0  0  0
   -1.7947   -4.8331    1.3141 H   0  0  0  0  0  0  0  0  0  0  0  0
   -3.0496   -5.0038   -2.1936 H   0  0  0  0  0  0  0  0  0  0  0  0
   -3.2119   -2.9777   -3.6269 H   0  0  0  0  0  0  0  0  0  0  0  0
   -0.7255    1.4109    2.8012 H   0  0  0  0  0  0  0  0  0  0  0  0
   -0.7143    3.7938    3.3681 H   0  0  0  0  0  0  0  0  0  0  0  0
   -0.9730    6.1941    2.6499 H   0  0  0  0  0  0  0  0  0  0  0  0
   -1.4290    7.8192    0.8258 H   0  0  0  0  0  0  0  0  0  0  0  0
   -1.8727    6.9433   -1.4678 H   0  0  0  0  0  0  0  0  0  0  0  0
   -1.8365    3.2021   -2.0223 H   0  0  0  0  0  0  0  0  0  0  0  0
   -0.2834    0.2415   -2.2706 H   0  0  0  0  0  0  0  0  0  0  0  0
    1.8728   -0.4174   -3.1490 H   0  0  0  0  0  0  0  0  0  0  0  0
    3.5789   -1.9835   -3.5859 H   0  0  0  0  0  0  0  0  0  0  0  0
    4.2017   -0.2974   -3.3934 H   0  0  0  0  0  0  0  0  0  0  0  0
    5.2694   -1.6866   -3.1661 H   0  0  0  0  0  0  0  0  0  0  0  0
  1  2  1  0
  2  3  1  0
  3  4  1  0
  4  5  2  0
  5  6  1  0
  6  7  1  0
  7  8  1  0
  8  9  1  0
  9 10  2  0
 10 11  1  0
 11 12  1  0
 11 13  2  0
 13 14  1  0
 14 15  2  0
  7 16  1  0
 16 17  2  0
 17 18  1  0
 18 19  2  0
 19 20  1  0
 20 21  2  0
 21 22  1  0
 22 23  2  0
 23 24  1  0
 24 25  2  0
 25 26  1  0
  6 27  2  0
 27 28  1  0
 28 29  2  0
 29 30  1  0
 30 31  1  0
 29  4  1  0
 15  9  1  0
 25 16  1  0
 24 19  1  0
  1 32  1  0
  1 33  1  0
  1 34  1  0
  2 35  1  0
  2 36  1  0
  5 37  1  0
  7 38  1  0
  8 39  1  0
 10 40  1  0
 12 41  1  0
 12 42  1  0
 12 43  1  0
 13 44  1  0
 14 45  1  0
 17 46  1  0
 18 47  1  0
 20 48  1  0
 21 49  1  0
 22 50  1  0
 26 51  1  0
 27 52  1  0
 28 53  1  0
 31 54  1  0
 31 55  1  0
 31 56  1  0
M  END
$$$$
