
     RDKit          3D

 73 81  0  0  0  0  0  0  0  0999 V2000
   -0.7679   -2.1888   -1.8047 C   0  0  0  0  0  0  0  0  0  0  0  0
   -0.6244   -0.8563   -1.3295 O   0  0  0  0  0  0  0  0  0  0  0  0
   -1.3817   -0.5994   -0.1296 C   0  0  2  0  0  0  0  0  0  0  0  0
   -2.3064    0.6060   -0.4251 C   0  0  2  0  0  0  0  0  0  0  0  0
   -3.4326    0.2697   -1.3423 N   0  0  0  0  0  0  0  0  0  0  0  0
   -3.2425    0.4437   -2.7777 C   0  0  0  0  0  0  0  0  0  0  0  0
   -4.4560   -0.6189   -0.9666 C   0  0  0  0  0  0  0  0  0  0  0  0
   -5.0942   -1.2978   -1.7666 O   0  0  0  0  0  0  0  0  0  0  0  0
   -4.8010   -0.7665    0.4652 C   0  0  0  0  0  0  0  0  0  0  0  0
   -4.8332   -2.0501    1.0225 C   0  0  0  0  0  0  0  0  0  0  0  0
   -5.1948   -2.2151    2.3587 C   0  0  0  0  0  0  0  0  0  0  0  0
   -5.5482   -1.1010    3.1263 C   0  0  0  0  0  0  0  0  0  0  0  0
   -5.5346    0.1776    2.5656 C   0  0  0  0  0  0  0  0  0  0  0  0
   -5.1673    0.3469    1.2300 C   0  0  0  0  0  0  0  0  0  0  0  0
   -1.4288    1.7748   -0.8961 C   0  0  0  0  0  0  0  0  0  0  0  0
   -0.3077    2.0584    0.1062 C   0  0  1  0  0  0  0  0  0  0  0  0
   -0.3172    1.2191    1.2589 O   0  0  0  0  0  0  0  0  0  0  0  0
   -0.4508   -0.2122    1.0701 C   0  0  1  0  0  0  0  0  0  0  0  0
   -1.1395   -0.5804    2.4076 C   0  0  0  0  0  0  0  0  0  0  0  0
    0.8947   -0.8076    0.9570 N   0  0  0  0  0  0  0  0  0  0  0  0
    1.2955   -2.0999    1.2948 C   0  0  0  0  0  0  0  0  0  0  0  0
    0.5864   -3.2253    1.7571 C   0  0  0  0  0  0  0  0  0  0  0  0
    1.2873   -4.3955    2.0578 C   0  0  0  0  0  0  0  0  0  0  0  0
    2.6627   -4.4647    1.8926 C   0  0  0  0  0  0  0  0  0  0  0  0
    3.3673   -3.3668    1.3986 C   0  0  0  0  0  0  0  0  0  0  0  0
    2.6843   -2.1732    1.0796 C   0  0  0  0  0  0  0  0  0  0  0  0
    3.0976   -0.9461    0.4935 C   0  0  0  0  0  0  0  0  0  0  0  0
    4.2895   -0.3986   -0.0108 C   0  0  0  0  0  0  0  0  0  0  0  0
    4.3282    0.8915   -0.6250 C   0  0  0  0  0  0  0  0  0  0  0  0
    3.2200    1.7369   -0.7877 C   0  0  0  0  0  0  0  0  0  0  0  0
    2.9092    3.0188   -1.3382 C   0  0  0  0  0  0  0  0  0  0  0  0
    3.6580    4.0221   -1.9938 C   0  0  0  0  0  0  0  0  0  0  0  0
    3.0373    5.1976   -2.4275 C   0  0  0  0  0  0  0  0  0  0  0  0
    1.6780    5.3914   -2.2221 C   0  0  0  0  0  0  0  0  0  0  0  0
    0.9058    4.4233   -1.5747 C   0  0  0  0  0  0  0  0  0  0  0  0
    1.5378    3.2458   -1.1332 C   0  0  0  0  0  0  0  0  0  0  0  0
    1.0366    2.1490   -0.4476 N   0  0  0  0  0  0  0  0  0  0  0  0
    2.0336    1.2410   -0.2725 C   0  0  0  0  0  0  0  0  0  0  0  0
    1.9691   -0.1604    0.4023 C   0  0  0  0  0  0  0  0  0  0  0  0
    5.7205    1.1340   -1.0323 C   0  0  0  0  0  0  0  0  0  0  0  0
    6.1744    2.1098   -1.5956 O   0  0  0  0  0  0  0  0  0  0  0  0
    6.4567    0.0334   -0.6531 N   0  0  0  0  0  0  0  0  0  0  0  0
    5.6647   -0.9968   -0.0386 C   0  0  0  0  0  0  0  0  0  0  0  0
   -0.4289   -2.9061   -1.0543 H   0  0  0  0  0  0  0  0  0  0  0  0
   -1.8089   -2.3875   -2.0688 H   0  0  0  0  0  0  0  0  0  0  0  0
   -0.1545   -2.3048   -2.7027 H   0  0  0  0  0  0  0  0  0  0  0  0
   -1.9617   -1.4919    0.1298 H   0  0  0  0  0  0  0  0  0  0  0  0
   -2.7712    0.9122    0.5167 H   0  0  0  0  0  0  0  0  0  0  0  0
   -3.0182    1.4910   -2.9972 H   0  0  0  0  0  0  0  0  0  0  0  0
   -2.4276   -0.1931   -3.1249 H   0  0  0  0  0  0  0  0  0  0  0  0
   -4.1510    0.1855   -3.3287 H   0  0  0  0  0  0  0  0  0  0  0  0
   -4.5968   -2.9187    0.4114 H   0  0  0  0  0  0  0  0  0  0  0  0
   -5.2365   -3.2099    2.7928 H   0  0  0  0  0  0  0  0  0  0  0  0
   -5.8597   -1.2307    4.1622 H   0  0  0  0  0  0  0  0  0  0  0  0
   -5.8346    1.0412    3.1594 H   0  0  0  0  0  0  0  0  0  0  0  0
   -5.1912    1.3414    0.7932 H   0  0  0  0  0  0  0  0  0  0  0  0
   -1.0050    1.5928   -1.8912 H   0  0  0  0  0  0  0  0  0  0  0  0
   -2.0479    2.6722   -1.0113 H   0  0  0  0  0  0  0  0  0  0  0  0
   -0.4916    3.0598    0.5145 H   0  0  0  0  0  0  0  0  0  0  0  0
   -1.9672    0.1065    2.6239 H   0  0  0  0  0  0  0  0  0  0  0  0
   -1.5670   -1.5845    2.4212 H   0  0  0  0  0  0  0  0  0  0  0  0
   -0.4427   -0.4856    3.2468 H   0  0  0  0  0  0  0  0  0  0  0  0
   -0.4882   -3.2254    1.8761 H   0  0  0  0  0  0  0  0  0  0  0  0
    0.7454   -5.2630    2.4265 H   0  0  0  0  0  0  0  0  0  0  0  0
    3.1953   -5.3792    2.1360 H   0  0  0  0  0  0  0  0  0  0  0  0
    4.4393   -3.4434    1.2457 H   0  0  0  0  0  0  0  0  0  0  0  0
    4.7231    3.8951   -2.1644 H   0  0  0  0  0  0  0  0  0  0  0  0
    3.6304    5.9610   -2.9273 H   0  0  0  0  0  0  0  0  0  0  0  0
    1.2106    6.3086   -2.5665 H   0  0  0  0  0  0  0  0  0  0  0  0
   -0.1545    4.5960   -1.4190 H   0  0  0  0  0  0  0  0  0  0  0  0
    7.4437   -0.0215   -0.8585 H   0  0  0  0  0  0  0  0  0  0  0  0
    6.0493   -1.1911    0.9642 H   0  0  0  0  0  0  0  0  0  0  0  0
    5.7016   -1.8965   -0.6590 H   0  0  0  0  0  0  0  0  0  0  0  0
  1  2  1  0
  2  3  1  0
  3  4  1  0
  4  5  1  0
  5  6  1  0
  5  7  1  0
  7  8  2  0
  7  9  1  0
  9 10  2  0
 10 11  1  0
 11 12  2  0
 12 13  1  0
 13 14  2  0
  4 15  1  0
 15 16  1  0
 16 17  1  0
 17 18  1  0
 18 19  1  1
 18 20  1  0
 20 21  1  0
 21 22  2  0
 22 23  1  0
 23 24  2  0
 24 25  1  0
 25 26  2  0
 26 27  1  0
 27 28  2  0
 28 29  1  0
 29 30  2  0
 30 31  1  0
 31 32  2  0
 32 33  1  0
 33 34  2  0
 34 35  1  0
 35 36  2  0
 36 37  1  0
 37 38  1  0
 38 39  2  0
 29 40  1  0
 40 41  2  0
 40 42  1  0
 42 43  1  0
 18  3  1  0
 39 20  1  0
 14  9  1  0
 37 16  1  0
 26 21  1  0
 39 27  1  0
 43 28  1  0
 38 30  1  0
 36 31  1  0
  1 44  1  0
  1 45  1  0
  1 46  1  0
  3 47  1  1
  4 48  1  1
  6 49  1  0
  6 50  1  0
  6 51  1  0
 10 52  1  0
 11 53  1  0
 12 54  1  0
 13 55  1  0
 14 56  1  0
 15 57  1  0
 15 58  1  0
 16 59  1  1
 19 60  1  0
 19 61  1  0
 19 62  1  0
 22 63  1  0
 23 64  1  0
 24 65  1  0
 25 66  1  0
 32 67  1  0
 33 68  1  0
 34 69  1  0
 35 70  1  0
 42 71  1  0
 43 72  1  0
 43 73  1  0
M  END
$$$$
