
     RDKit          3D

 27 29  0  0  0  0  0  0  0  0999 V2000
   -5.4296    0.8225   -0.7870 C   0  0  0  0  0  0  0  0  0  0  0  0
   -4.2345    0.1429   -0.4072 O   0  0  0  0  0  0  0  0  0  0  0  0
   -3.0998    0.8677   -0.5886 C   0  0  0  0  0  0  0  0  0  0  0  0
   -3.0475    2.0060   -1.0340 O   0  0  0  0  0  0  0  0  0  0  0  0
   -1.8951    0.0863   -0.1678 C   0  0  0  0  0  0  0  0  0  0  0  0
   -0.6484    0.6927   -0.2919 C   0  0  0  0  0  0  0  0  0  0  0  0
    0.4634   -0.0625    0.1100 C   0  0  0  0  0  0  0  0  0  0  0  0
    0.2486   -1.3490    0.5989 C   0  0  0  0  0  0  0  0  0  0  0  0
   -1.0202   -1.9025    0.7001 C   0  0  0  0  0  0  0  0  0  0  0  0
   -2.0880   -1.1725    0.3123 N   0  0  0  0  0  0  0  0  0  0  0  0
    1.4787   -1.8719    0.9199 N   0  0  0  0  0  0  0  0  0  0  0  0
    2.4806   -0.9676    0.6552 C   0  0  0  0  0  0  0  0  0  0  0  0
    3.8653   -1.0789    0.8277 C   0  0  0  0  0  0  0  0  0  0  0  0
    4.6525    0.0185    0.4667 C   0  0  0  0  0  0  0  0  0  0  0  0
    4.0760    1.1784   -0.0456 C   0  0  0  0  0  0  0  0  0  0  0  0
    2.6895    1.2725   -0.2115 C   0  0  0  0  0  0  0  0  0  0  0  0
    1.8731    0.1794    0.1451 C   0  0  0  0  0  0  0  0  0  0  0  0
   -5.5648    1.7266   -0.1850 H   0  0  0  0  0  0  0  0  0  0  0  0
   -5.4099    1.0665   -1.8538 H   0  0  0  0  0  0  0  0  0  0  0  0
   -6.2744    0.1536   -0.6008 H   0  0  0  0  0  0  0  0  0  0  0  0
   -0.5422    1.6992   -0.6802 H   0  0  0  0  0  0  0  0  0  0  0  0
   -1.2144   -2.8996    1.0765 H   0  0  0  0  0  0  0  0  0  0  0  0
    1.6316   -2.7952    1.2993 H   0  0  0  0  0  0  0  0  0  0  0  0
    4.3198   -1.9802    1.2264 H   0  0  0  0  0  0  0  0  0  0  0  0
    5.7323   -0.0348    0.5880 H   0  0  0  0  0  0  0  0  0  0  0  0
    4.7073    2.0202   -0.3199 H   0  0  0  0  0  0  0  0  0  0  0  0
    2.2502    2.1817   -0.6118 H   0  0  0  0  0  0  0  0  0  0  0  0
  1  2  1  0
  2  3  1  0
  3  4  2  0
  3  5  1  0
  5  6  2  0
  6  7  1  0
  7  8  2  0
  8  9  1  0
  9 10  2  0
  8 11  1  0
 11 12  1  0
 12 13  2  0
 13 14  1  0
 14 15  2  0
 15 16  1  0
 16 17  2  0
 10  5  1  0
 17 12  1  0
 17  7  1  0
  1 18  1  0
  1 19  1  0
  1 20  1  0
  6 21  1  0
  9 22  1  0
 11 23  1  0
 13 24  1  0
 14 25  1  0
 15 26  1  0
 16 27  1  0
M  END
$$$$
