
     RDKit          3D

 51 53  0  0  0  0  0  0  0  0999 V2000
   -4.8902    3.8342   -2.0384 C   0  0  0  0  0  0  0  0  0  0  0  0
   -4.4491    2.6204   -1.3248 C   0  0  0  0  0  0  0  0  0  0  0  0
   -5.2215    1.5365   -1.1927 N   0  0  0  0  0  0  0  0  0  0  0  0
   -4.4083    0.7069   -0.5195 N   0  0  0  0  0  0  0  0  0  0  0  0
   -3.1989    1.2923   -0.2581 C   0  0  0  0  0  0  0  0  0  0  0  0
   -2.1268    0.5988    0.5156 C   0  0  2  0  0  0  0  0  0  0  0  0
   -0.9428    1.5291    0.8095 C   0  0  0  0  0  0  0  0  0  0  0  0
    0.2276    0.5632    0.9203 C   0  0  2  0  0  0  0  0  0  0  0  0
    1.5132    1.2124    0.7639 N   0  0  0  0  0  0  0  0  0  0  0  0
    2.6780    0.5387    1.0708 C   0  0  0  0  0  0  0  0  0  0  0  0
    2.6825   -0.5863    1.5548 O   0  0  0  0  0  0  0  0  0  0  0  0
    3.9298    1.3151    0.7010 C   0  0  0  0  0  0  0  0  0  0  0  0
    5.2046    0.7664    1.3596 C   0  0  0  0  0  0  0  0  0  0  0  0
    6.4427    1.3310    0.6598 C   0  0  0  0  0  0  0  0  0  0  0  0
    5.2461    1.1148    2.8512 C   0  0  0  0  0  0  0  0  0  0  0  0
   -0.0843   -0.4629   -0.1769 C   0  0  0  0  0  0  0  0  0  0  0  0
   -1.5436   -0.5149   -0.2382 N   0  0  0  0  0  0  0  0  0  0  0  0
   -2.2714   -1.6760   -0.4637 C   0  0  0  0  0  0  0  0  0  0  0  0
   -3.4165   -1.7819   -0.0194 O   0  0  0  0  0  0  0  0  0  0  0  0
   -1.6624   -2.7319   -1.2377 C   0  0  0  0  0  0  0  0  0  0  0  0
   -0.7516   -2.6846   -2.2804 C   0  0  0  0  0  0  0  0  0  0  0  0
   -0.4554   -3.9350   -2.7566 N   0  0  0  0  0  0  0  0  0  0  0  0
   -1.1925   -4.7529   -2.0437 C   0  0  0  0  0  0  0  0  0  0  0  0
   -1.9457   -4.0779   -1.1249 N   0  0  0  0  0  0  0  0  0  0  0  0
   -2.8483   -4.6995   -0.1858 C   0  0  0  0  0  0  0  0  0  0  0  0
   -3.2044    2.5122   -0.7609 N   0  0  0  0  0  0  0  0  0  0  0  0
   -4.3247    4.7077   -1.7006 H   0  0  0  0  0  0  0  0  0  0  0  0
   -4.7328    3.7162   -3.1151 H   0  0  0  0  0  0  0  0  0  0  0  0
   -5.9518    4.0318   -1.8621 H   0  0  0  0  0  0  0  0  0  0  0  0
   -4.7089   -0.2368   -0.2868 H   0  0  0  0  0  0  0  0  0  0  0  0
   -2.5318    0.2005    1.4547 H   0  0  0  0  0  0  0  0  0  0  0  0
   -1.0933    2.1181    1.7212 H   0  0  0  0  0  0  0  0  0  0  0  0
   -0.7641    2.2386   -0.0097 H   0  0  0  0  0  0  0  0  0  0  0  0
    0.2015    0.0661    1.8988 H   0  0  0  0  0  0  0  0  0  0  0  0
    1.5772    2.0378    0.1797 H   0  0  0  0  0  0  0  0  0  0  0  0
    3.7920    2.3705    0.9632 H   0  0  0  0  0  0  0  0  0  0  0  0
    4.0182    1.2552   -0.3923 H   0  0  0  0  0  0  0  0  0  0  0  0
    5.2327   -0.3265    1.2628 H   0  0  0  0  0  0  0  0  0  0  0  0
    7.3584    0.9539    1.1249 H   0  0  0  0  0  0  0  0  0  0  0  0
    6.4649    2.4268    0.7084 H   0  0  0  0  0  0  0  0  0  0  0  0
    6.4603    1.0368   -0.3941 H   0  0  0  0  0  0  0  0  0  0  0  0
    6.1563    0.7224    3.3163 H   0  0  0  0  0  0  0  0  0  0  0  0
    5.2302    2.2006    3.0054 H   0  0  0  0  0  0  0  0  0  0  0  0
    4.3912    0.6842    3.3843 H   0  0  0  0  0  0  0  0  0  0  0  0
    0.2795   -0.1203   -1.1522 H   0  0  0  0  0  0  0  0  0  0  0  0
    0.3513   -1.4407    0.0526 H   0  0  0  0  0  0  0  0  0  0  0  0
   -0.2978   -1.8085   -2.7284 H   0  0  0  0  0  0  0  0  0  0  0  0
   -1.2193   -5.8310   -2.1524 H   0  0  0  0  0  0  0  0  0  0  0  0
   -3.8676   -4.5790   -0.5550 H   0  0  0  0  0  0  0  0  0  0  0  0
   -2.7289   -4.2310    0.7931 H   0  0  0  0  0  0  0  0  0  0  0  0
   -2.6036   -5.7615   -0.1014 H   0  0  0  0  0  0  0  0  0  0  0  0
  1  2  1  0
  2  3  2  0
  3  4  1  0
  4  5  1  0
  5  6  1  0
  6  7  1  0
  7  8  1  0
  8  9  1  0
  9 10  1  0
 10 11  2  0
 10 12  1  0
 12 13  1  0
 13 14  1  0
 13 15  1  0
  8 16  1  0
 16 17  1  0
 17 18  1  0
 18 19  2  0
 18 20  1  0
 20 21  2  0
 21 22  1  0
 22 23  2  0
 23 24  1  0
 24 25  1  0
  5 26  2  0
 26  2  1  0
 17  6  1  0
 24 20  1  0
  1 27  1  0
  1 28  1  0
  1 29  1  0
  4 30  1  0
  6 31  1  1
  7 32  1  0
  7 33  1  0
  8 34  1  1
  9 35  1  0
 12 36  1  0
 12 37  1  0
 13 38  1  0
 14 39  1  0
 14 40  1  0
 14 41  1  0
 15 42  1  0
 15 43  1  0
 15 44  1  0
 16 45  1  0
 16 46  1  0
 21 47  1  0
 23 48  1  0
 25 49  1  0
 25 50  1  0
 25 51  1  0
M  END
$$$$
