
     RDKit          3D

 50 54  0  0  0  0  0  0  0  0999 V2000
    2.7595    2.1629   -1.0492 O   0  0  0  0  0  0  0  0  0  0  0  0
    3.5008    0.9319   -1.2235 S   0  0  0  0  0  6  0  0  0  0  0  0
    4.3057    0.7052   -2.4051 O   0  0  0  0  0  0  0  0  0  0  0  0
    4.5503    0.6939    0.1868 C   0  0  0  0  0  0  0  0  0  0  0  0
    4.5161    1.6020    1.2485 C   0  0  0  0  0  0  0  0  0  0  0  0
    5.3488    1.3984    2.3487 C   0  0  0  0  0  0  0  0  0  0  0  0
    6.2103    0.2996    2.3803 C   0  0  0  0  0  0  0  0  0  0  0  0
    6.2468   -0.5986    1.3118 C   0  0  0  0  0  0  0  0  0  0  0  0
    5.4176   -0.4028    0.2082 C   0  0  0  0  0  0  0  0  0  0  0  0
    2.3874   -0.3555   -1.0898 N   0  0  0  0  0  0  0  0  0  0  0  0
    1.5729   -0.3621    0.1747 C   0  0  0  0  0  0  0  0  0  0  0  0
    0.4168   -1.3778    0.0966 C   0  0  0  0  0  0  0  0  0  0  0  0
   -0.5001   -1.1099   -1.0391 N   0  0  0  0  0  0  0  0  0  0  0  0
   -1.7899   -0.7378   -0.5950 C   0  0  0  0  0  0  0  0  0  0  0  0
   -2.1118    0.5651   -0.5988 N   0  0  0  0  0  0  0  0  0  0  0  0
   -3.3216    0.9010   -0.1323 C   0  0  0  0  0  0  0  0  0  0  0  0
   -3.6938    2.3207   -0.1205 C   0  0  0  0  0  0  0  0  0  0  0  0
   -4.8852    2.8958    0.2961 C   0  0  0  0  0  0  0  0  0  0  0  0
   -4.8981    4.3148    0.1657 C   0  0  0  0  0  0  0  0  0  0  0  0
   -3.7146    4.7909   -0.3479 C   0  0  0  0  0  0  0  0  0  0  0  0
   -2.6021    3.5340   -0.6669 S   0  0  0  0  0  0  0  0  0  0  0  0
   -4.2399    0.0466    0.3444 N   0  0  0  0  0  0  0  0  0  0  0  0
   -3.9207   -1.2490    0.3311 C   0  0  0  0  0  0  0  0  0  0  0  0
   -4.8526   -2.1669    0.8016 C   0  0  0  0  0  0  0  0  0  0  0  0
   -4.6000   -3.5415    0.8079 C   0  0  0  0  0  0  0  0  0  0  0  0
   -3.3894   -4.0207    0.3284 C   0  0  0  0  0  0  0  0  0  0  0  0
   -2.4395   -3.1193   -0.1457 C   0  0  0  0  0  0  0  0  0  0  0  0
   -2.6892   -1.7229   -0.1393 C   0  0  0  0  0  0  0  0  0  0  0  0
    0.0576   -0.1914   -2.0593 C   0  0  0  0  0  0  0  0  0  0  0  0
    1.5342   -0.5311   -2.3227 C   0  0  0  0  0  0  0  0  0  0  0  0
    3.8531    2.4641    1.2255 H   0  0  0  0  0  0  0  0  0  0  0  0
    5.3322    2.0992    3.1801 H   0  0  0  0  0  0  0  0  0  0  0  0
    6.8617    0.1472    3.2379 H   0  0  0  0  0  0  0  0  0  0  0  0
    6.9264   -1.4471    1.3379 H   0  0  0  0  0  0  0  0  0  0  0  0
    5.4494   -1.0973   -0.6285 H   0  0  0  0  0  0  0  0  0  0  0  0
    1.1687    0.6369    0.3742 H   0  0  0  0  0  0  0  0  0  0  0  0
    2.2218   -0.6459    1.0095 H   0  0  0  0  0  0  0  0  0  0  0  0
   -0.1048   -1.3941    1.0623 H   0  0  0  0  0  0  0  0  0  0  0  0
    0.8365   -2.3806   -0.0519 H   0  0  0  0  0  0  0  0  0  0  0  0
   -5.7147    2.3122    0.6790 H   0  0  0  0  0  0  0  0  0  0  0  0
   -5.7327    4.9507    0.4342 H   0  0  0  0  0  0  0  0  0  0  0  0
   -3.4456    5.8181   -0.5528 H   0  0  0  0  0  0  0  0  0  0  0  0
   -5.8090   -1.8022    1.1707 H   0  0  0  0  0  0  0  0  0  0  0  0
   -5.3545   -4.2304    1.1793 H   0  0  0  0  0  0  0  0  0  0  0  0
   -3.1862   -5.0884    0.3159 H   0  0  0  0  0  0  0  0  0  0  0  0
   -1.4998   -3.5012   -0.5390 H   0  0  0  0  0  0  0  0  0  0  0  0
   -0.5092   -0.3054   -2.9910 H   0  0  0  0  0  0  0  0  0  0  0  0
   -0.0045    0.8602   -1.7505 H   0  0  0  0  0  0  0  0  0  0  0  0
    1.6336   -1.5772   -2.6373 H   0  0  0  0  0  0  0  0  0  0  0  0
    1.9008    0.0843   -3.1509 H   0  0  0  0  0  0  0  0  0  0  0  0
  1  2  2  0
  2  3  2  0
  2  4  1  0
  4  5  2  0
  5  6  1  0
  6  7  2  0
  7  8  1  0
  8  9  2  0
  2 10  1  0
 10 11  1  0
 11 12  1  0
 12 13  1  0
 13 14  1  0
 14 15  2  0
 15 16  1  0
 16 17  1  0
 17 18  2  0
 18 19  1  0
 19 20  2  0
 20 21  1  0
 16 22  2  0
 22 23  1  0
 23 24  2  0
 24 25  1  0
 25 26  2  0
 26 27  1  0
 27 28  2  0
 13 29  1  0
 29 30  1  0
  9  4  1  0
 30 10  1  0
 28 14  1  0
 21 17  1  0
 28 23  1  0
  5 31  1  0
  6 32  1  0
  7 33  1  0
  8 34  1  0
  9 35  1  0
 11 36  1  0
 11 37  1  0
 12 38  1  0
 12 39  1  0
 18 40  1  0
 19 41  1  0
 20 42  1  0
 24 43  1  0
 25 44  1  0
 26 45  1  0
 27 46  1  0
 29 47  1  0
 29 48  1  0
 30 49  1  0
 30 50  1  0
M  END
$$$$
