
     RDKit          3D

 61 62  0  0  0  0  0  0  0  0999 V2000
   -9.6801    0.0022    2.4189 C   0  0  0  0  0  0  0  0  0  0  0  0
   -8.2742    0.3404    1.9623 C   0  0  0  0  0  0  0  0  0  0  0  0
   -8.2305    0.2467    0.5404 O   0  0  0  0  0  0  0  0  0  0  0  0
   -6.9371    0.5639    0.0274 C   0  0  0  0  0  0  0  0  0  0  0  0
   -6.9997    0.4667   -1.4942 C   0  0  0  0  0  0  0  0  0  0  0  0
   -5.6587    0.7465   -2.1512 C   0  0  0  0  0  0  0  0  0  0  0  0
   -4.7079   -0.3249   -1.9141 N   0  0  0  0  0  0  0  0  0  0  0  0
   -3.3461   -0.0887   -1.9248 C   0  0  0  0  0  0  0  0  0  0  0  0
   -2.8549    1.0298   -1.9908 O   0  0  0  0  0  0  0  0  0  0  0  0
   -2.5321   -1.3647   -1.8270 C   0  0  0  0  0  0  0  0  0  0  0  0
   -1.0228   -1.1287   -1.7548 C   0  0  0  0  0  0  0  0  0  0  0  0
   -0.5979   -0.4275   -0.4565 C   0  0  0  0  0  0  0  0  0  0  0  0
    0.7946   -0.7042   -0.1157 N   0  0  0  0  0  0  0  0  0  0  0  0
    1.0641   -1.8708    0.5839 C   0  0  0  0  0  0  0  0  0  0  0  0
    0.2127   -2.6983    0.9062 O   0  0  0  0  0  0  0  0  0  0  0  0
    2.3659   -2.0976    0.9258 N   0  0  0  0  0  0  0  0  0  0  0  0
    3.4113   -1.2369    0.6051 C   0  0  0  0  0  0  0  0  0  0  0  0
    4.7040   -1.5221    1.0307 C   0  0  0  0  0  0  0  0  0  0  0  0
    5.7353   -0.6307    0.7156 C   0  0  0  0  0  0  0  0  0  0  0  0
    7.0049   -0.9573    1.1128 O   0  0  0  0  0  0  0  0  0  0  0  0
    7.2918   -0.4064    2.4059 C   0  0  0  0  0  0  0  0  0  0  0  0
    8.1584   -1.4141    3.1434 C   0  0  0  0  0  0  0  0  0  0  0  0
    5.5023    0.5166   -0.0587 C   0  0  0  0  0  0  0  0  0  0  0  0
    6.5745    1.3348   -0.2939 O   0  0  0  0  0  0  0  0  0  0  0  0
    6.6020    2.0129   -1.5532 C   0  0  0  0  0  0  0  0  0  0  0  0
    6.2867    3.4881   -1.3647 C   0  0  0  0  0  0  0  0  0  0  0  0
    4.2011    0.7883   -0.4835 C   0  0  0  0  0  0  0  0  0  0  0  0
    3.1602   -0.0919   -0.1460 C   0  0  0  0  0  0  0  0  0  0  0  0
    1.7727    0.1762   -0.5750 C   0  0  0  0  0  0  0  0  0  0  0  0
    1.5530    1.1413   -1.3025 O   0  0  0  0  0  0  0  0  0  0  0  0
   -9.9498   -1.0190    2.1220 H   0  0  0  0  0  0  0  0  0  0  0  0
  -10.4093    0.6711    1.9474 H   0  0  0  0  0  0  0  0  0  0  0  0
   -9.7669    0.0895    3.5079 H   0  0  0  0  0  0  0  0  0  0  0  0
   -7.5643   -0.3644    2.4118 H   0  0  0  0  0  0  0  0  0  0  0  0
   -8.0121    1.3615    2.2758 H   0  0  0  0  0  0  0  0  0  0  0  0
   -6.2066   -0.1441    0.4379 H   0  0  0  0  0  0  0  0  0  0  0  0
   -6.6612    1.5841    0.3304 H   0  0  0  0  0  0  0  0  0  0  0  0
   -7.3743   -0.5256   -1.7893 H   0  0  0  0  0  0  0  0  0  0  0  0
   -7.7382    1.1901   -1.8662 H   0  0  0  0  0  0  0  0  0  0  0  0
   -5.2470    1.7047   -1.8085 H   0  0  0  0  0  0  0  0  0  0  0  0
   -5.7898    0.8130   -3.2378 H   0  0  0  0  0  0  0  0  0  0  0  0
   -5.0226   -1.2749   -2.0810 H   0  0  0  0  0  0  0  0  0  0  0  0
   -2.7582   -1.9687   -2.7158 H   0  0  0  0  0  0  0  0  0  0  0  0
   -2.8642   -1.9313   -0.9486 H   0  0  0  0  0  0  0  0  0  0  0  0
   -0.6872   -0.5391   -2.6155 H   0  0  0  0  0  0  0  0  0  0  0  0
   -0.5291   -2.1027   -1.8352 H   0  0  0  0  0  0  0  0  0  0  0  0
   -0.7403    0.6562   -0.5489 H   0  0  0  0  0  0  0  0  0  0  0  0
   -1.2247   -0.7603    0.3823 H   0  0  0  0  0  0  0  0  0  0  0  0
    2.5378   -2.9451    1.4539 H   0  0  0  0  0  0  0  0  0  0  0  0
    4.9313   -2.4184    1.6018 H   0  0  0  0  0  0  0  0  0  0  0  0
    7.8392    0.5375    2.2729 H   0  0  0  0  0  0  0  0  0  0  0  0
    6.3848   -0.2139    2.9922 H   0  0  0  0  0  0  0  0  0  0  0  0
    7.6107   -2.3547    3.2794 H   0  0  0  0  0  0  0  0  0  0  0  0
    9.0573   -1.6465    2.5604 H   0  0  0  0  0  0  0  0  0  0  0  0
    8.4661   -1.0382    4.1242 H   0  0  0  0  0  0  0  0  0  0  0  0
    5.9492    1.5490   -2.3026 H   0  0  0  0  0  0  0  0  0  0  0  0
    7.6236    1.9213   -1.9372 H   0  0  0  0  0  0  0  0  0  0  0  0
    7.0114    3.9533   -0.6874 H   0  0  0  0  0  0  0  0  0  0  0  0
    5.2996    3.6277   -0.9136 H   0  0  0  0  0  0  0  0  0  0  0  0
    6.3142    4.0175   -2.3246 H   0  0  0  0  0  0  0  0  0  0  0  0
    3.9669    1.6810   -1.0595 H   0  0  0  0  0  0  0  0  0  0  0  0
  1  2  1  0
  2  3  1  0
  3  4  1  0
  4  5  1  0
  5  6  1  0
  6  7  1  0
  7  8  1  0
  8  9  2  0
  8 10  1  0
 10 11  1  0
 11 12  1  0
 12 13  1  0
 13 14  1  0
 14 15  2  0
 14 16  1  0
 16 17  1  0
 17 18  2  0
 18 19  1  0
 19 20  1  0
 20 21  1  0
 21 22  1  0
 19 23  2  0
 23 24  1  0
 24 25  1  0
 25 26  1  0
 23 27  1  0
 27 28  2  0
 28 29  1  0
 29 30  2  0
 29 13  1  0
 28 17  1  0
  1 31  1  0
  1 32  1  0
  1 33  1  0
  2 34  1  0
  2 35  1  0
  4 36  1  0
  4 37  1  0
  5 38  1  0
  5 39  1  0
  6 40  1  0
  6 41  1  0
  7 42  1  0
 10 43  1  0
 10 44  1  0
 11 45  1  0
 11 46  1  0
 12 47  1  0
 12 48  1  0
 16 49  1  0
 18 50  1  0
 21 51  1  0
 21 52  1  0
 22 53  1  0
 22 54  1  0
 22 55  1  0
 25 56  1  0
 25 57  1  0
 26 58  1  0
 26 59  1  0
 26 60  1  0
 27 61  1  0
M  END
$$$$
