
     RDKit          3D

 53 56  0  0  0  0  0  0  0  0999 V2000
    4.3973   -0.6126    1.3458 O   0  0  0  0  0  0  0  0  0  0  0  0
    4.3574    0.5580    1.7038 C   0  0  0  0  0  0  0  0  0  0  0  0
    3.8547    1.5875    0.9349 N   0  0  0  0  0  0  0  0  0  0  0  0
    3.2168    1.3683   -0.3417 C   0  0  0  0  0  0  0  0  0  0  0  0
    1.7288    1.0775   -0.1770 C   0  0  0  0  0  0  0  0  0  0  0  0
    1.0635    0.8218   -1.5283 C   0  0  0  0  0  0  0  0  0  0  0  0
   -0.4297    0.5597   -1.3838 C   0  0  0  0  0  0  0  0  0  0  0  0
   -1.0460    0.9504   -0.3910 O   0  0  0  0  0  0  0  0  0  0  0  0
   -1.0397   -0.1390   -2.4289 N   0  0  0  0  0  0  0  0  0  0  0  0
   -0.6283    0.1256   -3.8121 C   0  0  0  0  0  0  0  0  0  0  0  0
   -1.7281    0.8741   -4.5947 C   0  0  0  0  0  0  0  0  0  0  0  0
   -2.7011    1.6288   -3.6795 C   0  0  0  0  0  0  0  0  0  0  0  0
   -3.3349    0.7172   -2.6103 C   0  0  0  0  0  0  0  0  0  0  0  0
   -2.4612   -0.5142   -2.3512 C   0  0  0  0  0  0  0  0  0  0  0  0
   -2.8657   -1.3331   -1.1600 C   0  0  0  0  0  0  0  0  0  0  0  0
   -3.4266   -2.5299   -1.1996 N   0  0  0  0  0  0  0  0  0  0  0  0
   -3.6603   -2.8780    0.1086 C   0  0  0  0  0  0  0  0  0  0  0  0
   -4.2292   -4.0446    0.6397 C   0  0  0  0  0  0  0  0  0  0  0  0
   -4.3569   -4.1559    2.0305 C   0  0  0  0  0  0  0  0  0  0  0  0
   -3.9286   -3.1262    2.8732 C   0  0  0  0  0  0  0  0  0  0  0  0
   -3.3572   -1.9560    2.3600 C   0  0  0  0  0  0  0  0  0  0  0  0
   -3.2444   -1.8728    0.9711 C   0  0  0  0  0  0  0  0  0  0  0  0
   -2.7494   -0.9044    0.1408 N   0  0  0  0  0  0  0  0  0  0  0  0
    4.8581    0.9767    3.0427 C   0  0  0  0  0  0  0  0  0  0  0  0
    5.4166    0.0415    3.9006 C   0  0  0  0  0  0  0  0  0  0  0  0
    5.8843    0.3781    5.1309 N   0  0  0  0  0  0  0  0  0  0  0  0
    5.7630    1.6854    5.4576 C   0  0  0  0  0  0  0  0  0  0  0  0
    5.2038    2.6208    4.5991 C   0  0  0  0  0  0  0  0  0  0  0  0
    4.7364    2.2980    3.3706 N   0  0  0  0  0  0  0  0  0  0  0  0
    3.8109    2.5012    1.3800 H   0  0  0  0  0  0  0  0  0  0  0  0
    3.3679    2.2748   -0.9368 H   0  0  0  0  0  0  0  0  0  0  0  0
    3.7153    0.5365   -0.8515 H   0  0  0  0  0  0  0  0  0  0  0  0
    1.2470    1.9236    0.3291 H   0  0  0  0  0  0  0  0  0  0  0  0
    1.5832    0.2077    0.4760 H   0  0  0  0  0  0  0  0  0  0  0  0
    1.1947    1.7041   -2.1644 H   0  0  0  0  0  0  0  0  0  0  0  0
    1.5371   -0.0413   -2.0093 H   0  0  0  0  0  0  0  0  0  0  0  0
    0.2945    0.7065   -3.8599 H   0  0  0  0  0  0  0  0  0  0  0  0
   -0.4275   -0.8399   -4.2902 H   0  0  0  0  0  0  0  0  0  0  0  0
   -1.2681    1.5607   -5.3142 H   0  0  0  0  0  0  0  0  0  0  0  0
   -2.2985    0.1486   -5.1887 H   0  0  0  0  0  0  0  0  0  0  0  0
   -2.1549    2.4382   -3.1787 H   0  0  0  0  0  0  0  0  0  0  0  0
   -3.4886    2.1065   -4.2727 H   0  0  0  0  0  0  0  0  0  0  0  0
   -4.3295    0.3920   -2.9403 H   0  0  0  0  0  0  0  0  0  0  0  0
   -3.4938    1.3024   -1.6961 H   0  0  0  0  0  0  0  0  0  0  0  0
   -2.6178   -1.2035   -3.1961 H   0  0  0  0  0  0  0  0  0  0  0  0
   -4.5588   -4.8379   -0.0210 H   0  0  0  0  0  0  0  0  0  0  0  0
   -4.7958   -5.0547    2.4561 H   0  0  0  0  0  0  0  0  0  0  0  0
   -4.0387   -3.2370    3.9501 H   0  0  0  0  0  0  0  0  0  0  0  0
   -3.0203   -1.1577    3.0118 H   0  0  0  0  0  0  0  0  0  0  0  0
   -2.3096   -0.0325    0.4156 H   0  0  0  0  0  0  0  0  0  0  0  0
    5.5076   -1.0038    3.6273 H   0  0  0  0  0  0  0  0  0  0  0  0
    6.1318    1.9651    6.4386 H   0  0  0  0  0  0  0  0  0  0  0  0
    5.1190    3.6642    4.8834 H   0  0  0  0  0  0  0  0  0  0  0  0
  1  2  2  0
  2  3  1  0
  3  4  1  0
  4  5  1  0
  5  6  1  0
  6  7  1  0
  7  8  2  0
  7  9  1  0
  9 10  1  0
 10 11  1  0
 11 12  1  0
 12 13  1  0
 13 14  1  0
 14 15  1  0
 15 16  2  0
 16 17  1  0
 17 18  2  0
 18 19  1  0
 19 20  2  0
 20 21  1  0
 21 22  2  0
 22 23  1  0
  2 24  1  0
 24 25  2  0
 25 26  1  0
 26 27  2  0
 27 28  1  0
 28 29  2  0
 14  9  1  0
 23 15  1  0
 29 24  1  0
 22 17  1  0
  3 30  1  0
  4 31  1  0
  4 32  1  0
  5 33  1  0
  5 34  1  0
  6 35  1  0
  6 36  1  0
 10 37  1  0
 10 38  1  0
 11 39  1  0
 11 40  1  0
 12 41  1  0
 12 42  1  0
 13 43  1  0
 13 44  1  0
 14 45  1  0
 18 46  1  0
 19 47  1  0
 20 48  1  0
 21 49  1  0
 23 50  1  0
 25 51  1  0
 27 52  1  0
 28 53  1  0
M  END
$$$$
