
     RDKit          3D

 43 45  0  0  0  0  0  0  0  0999 V2000
   -0.3559    0.1147    2.3488 C   0  0  0  0  0  0  0  0  0  0  0  0
    0.1194   -0.8270    1.2333 C   0  0  2  0  0  0  0  0  0  0  0  0
    1.4285   -1.5283    1.6214 C   0  0  0  0  0  0  0  0  0  0  0  0
    2.6192   -0.5789    1.6639 C   0  0  0  0  0  0  0  0  0  0  0  0
    2.7578    0.1968    0.4324 N   0  0  0  0  0  0  0  0  0  0  0  0
    3.9717    0.7826    0.0387 C   0  0  0  0  0  0  0  0  0  0  0  0
    4.0053    1.6907   -0.7922 O   0  0  0  0  0  0  0  0  0  0  0  0
    5.2345    0.2302    0.6710 C   0  0  0  0  0  0  0  0  0  0  0  0
    6.4502    0.8347    0.1181 C   0  0  0  0  0  0  0  0  0  0  0  0
    7.4547    1.2680   -0.2713 N   0  0  0  0  0  0  0  0  0  0  0  0
    1.5303    0.8249   -0.0812 C   0  0  0  0  0  0  0  0  0  0  0  0
    0.3036   -0.1239   -0.1446 C   0  0  2  0  0  0  0  0  0  0  0  0
   -0.9429    0.5921   -0.5481 N   0  0  0  0  0  0  0  0  0  0  0  0
   -0.8284    1.4520   -1.7350 C   0  0  0  0  0  0  0  0  0  0  0  0
   -2.0242   -0.2944   -0.7894 C   0  0  0  0  0  0  0  0  0  0  0  0
   -1.8075   -1.5363   -1.2971 N   0  0  0  0  0  0  0  0  0  0  0  0
   -2.8648   -2.3433   -1.5198 C   0  0  0  0  0  0  0  0  0  0  0  0
   -4.1657   -2.0913   -1.3005 N   0  0  0  0  0  0  0  0  0  0  0  0
   -4.3398   -0.8627   -0.7946 C   0  0  0  0  0  0  0  0  0  0  0  0
   -5.5520   -0.3217   -0.4628 N   0  0  0  0  0  0  0  0  0  0  0  0
   -5.3750    0.9456    0.0323 C   0  0  0  0  0  0  0  0  0  0  0  0
   -4.0225    1.2164    0.0140 C   0  0  0  0  0  0  0  0  0  0  0  0
   -3.3570    0.0732   -0.5158 C   0  0  0  0  0  0  0  0  0  0  0  0
    0.3227    0.9578    2.5047 H   0  0  0  0  0  0  0  0  0  0  0  0
   -1.3470    0.5223    2.1272 H   0  0  0  0  0  0  0  0  0  0  0  0
   -0.4350   -0.4275    3.2975 H   0  0  0  0  0  0  0  0  0  0  0  0
   -0.6422   -1.6114    1.1410 H   0  0  0  0  0  0  0  0  0  0  0  0
    1.6325   -2.3186    0.8869 H   0  0  0  0  0  0  0  0  0  0  0  0
    1.3206   -2.0253    2.5927 H   0  0  0  0  0  0  0  0  0  0  0  0
    3.5219   -1.1662    1.8504 H   0  0  0  0  0  0  0  0  0  0  0  0
    2.5285    0.1343    2.4910 H   0  0  0  0  0  0  0  0  0  0  0  0
    5.1998    0.4211    1.7488 H   0  0  0  0  0  0  0  0  0  0  0  0
    5.2678   -0.8512    0.5007 H   0  0  0  0  0  0  0  0  0  0  0  0
    1.3224    1.7004    0.5462 H   0  0  0  0  0  0  0  0  0  0  0  0
    1.7360    1.2038   -1.0884 H   0  0  0  0  0  0  0  0  0  0  0  0
    0.5526   -0.8898   -0.8940 H   0  0  0  0  0  0  0  0  0  0  0  0
   -0.1798    2.3074   -1.5196 H   0  0  0  0  0  0  0  0  0  0  0  0
   -0.4117    0.9050   -2.5894 H   0  0  0  0  0  0  0  0  0  0  0  0
   -1.7932    1.8809   -2.0325 H   0  0  0  0  0  0  0  0  0  0  0  0
   -2.6332   -3.3219   -1.9294 H   0  0  0  0  0  0  0  0  0  0  0  0
   -6.4311   -0.8061   -0.5718 H   0  0  0  0  0  0  0  0  0  0  0  0
   -6.2202    1.5388    0.3553 H   0  0  0  0  0  0  0  0  0  0  0  0
   -3.5508    2.1322    0.3460 H   0  0  0  0  0  0  0  0  0  0  0  0
  1  2  1  0
  2  3  1  0
  3  4  1  0
  4  5  1  0
  5  6  1  0
  6  7  2  0
  6  8  1  0
  8  9  1  0
  9 10  3  0
  5 11  1  0
 11 12  1  0
 12 13  1  0
 13 14  1  0
 13 15  1  0
 15 16  2  0
 16 17  1  0
 17 18  2  0
 18 19  1  0
 19 20  1  0
 20 21  1  0
 21 22  2  0
 22 23  1  0
 12  2  1  0
 23 15  1  0
 23 19  2  0
  1 24  1  0
  1 25  1  0
  1 26  1  0
  2 27  1  6
  3 28  1  0
  3 29  1  0
  4 30  1  0
  4 31  1  0
  8 32  1  0
  8 33  1  0
 11 34  1  0
 11 35  1  0
 12 36  1  6
 14 37  1  0
 14 38  1  0
 14 39  1  0
 17 40  1  0
 20 41  1  0
 21 42  1  0
 22 43  1  0
M  END
$$$$
