
     RDKit          3D

 48 51  0  0  0  0  0  0  0  0999 V2000
    4.8023    2.4948   -0.1223 C   0  0  0  0  0  0  0  0  0  0  0  0
    4.5150    1.1510    0.3038 N   0  0  0  0  0  0  0  0  0  0  0  0
    4.2845    0.1465   -0.6126 C   0  0  0  0  0  0  0  0  0  0  0  0
    4.4652    0.2643   -1.8223 O   0  0  0  0  0  0  0  0  0  0  0  0
    3.8451   -1.1734    0.0273 C   0  0  1  0  0  0  0  0  0  0  0  0
    3.1760   -0.9703    1.2836 O   0  0  0  0  0  0  0  0  0  0  0  0
    2.0442   -1.8646    1.3329 C   0  0  1  0  0  0  0  0  0  0  0  0
    0.8366   -1.0907    1.5418 N   0  0  0  0  0  0  0  0  0  0  0  0
   -0.0974   -1.3422    2.5146 C   0  0  0  0  0  0  0  0  0  0  0  0
   -1.0988   -0.4894    2.4700 N   0  0  0  0  0  0  0  0  0  0  0  0
   -0.7930    0.3575    1.4232 C   0  0  0  0  0  0  0  0  0  0  0  0
   -1.4735    1.4634    0.8760 C   0  0  0  0  0  0  0  0  0  0  0  0
   -2.6864    1.9074    1.4125 N   0  0  0  0  0  0  0  0  0  0  0  0
   -3.6623    2.4023    0.4576 C   0  0  0  0  0  0  0  0  0  0  0  0
   -4.3832    1.2590   -0.2212 C   0  0  0  0  0  0  0  0  0  0  0  0
   -5.4765    0.6350    0.3984 C   0  0  0  0  0  0  0  0  0  0  0  0
   -6.1205   -0.4402   -0.2164 C   0  0  0  0  0  0  0  0  0  0  0  0
   -5.6748   -0.9098   -1.4520 C   0  0  0  0  0  0  0  0  0  0  0  0
   -4.5829   -0.3012   -2.0689 C   0  0  0  0  0  0  0  0  0  0  0  0
   -3.9010   -1.0107   -3.8996 I   0  0  0  0  0  0  0  0  0  0  0  0
   -3.9384    0.7771   -1.4620 C   0  0  0  0  0  0  0  0  0  0  0  0
   -0.9035    2.0901   -0.1879 N   0  0  0  0  0  0  0  0  0  0  0  0
    0.2721    1.6278   -0.6626 C   0  0  0  0  0  0  0  0  0  0  0  0
    0.9957    0.5803   -0.2227 N   0  0  0  0  0  0  0  0  0  0  0  0
    0.4036   -0.0070    0.8283 C   0  0  0  0  0  0  0  0  0  0  0  0
    2.0420   -2.7136    0.0621 C   0  0  2  0  0  0  0  0  0  0  0  0
    2.6864   -3.9758    0.3139 O   0  0  0  0  0  0  0  0  0  0  0  0
    2.8854   -1.9055   -0.9050 C   0  0  2  0  0  0  0  0  0  0  0  0
    3.5467   -2.7716   -1.8317 O   0  0  0  0  0  0  0  0  0  0  0  0
    5.1826    3.0577    0.7330 H   0  0  0  0  0  0  0  0  0  0  0  0
    3.8789    2.9522   -0.4877 H   0  0  0  0  0  0  0  0  0  0  0  0
    5.5446    2.4850   -0.9250 H   0  0  0  0  0  0  0  0  0  0  0  0
    4.0807    1.0107    1.2125 H   0  0  0  0  0  0  0  0  0  0  0  0
    4.7515   -1.7618    0.2147 H   0  0  0  0  0  0  0  0  0  0  0  0
    2.1806   -2.4926    2.2214 H   0  0  0  0  0  0  0  0  0  0  0  0
    0.0006   -2.1546    3.2248 H   0  0  0  0  0  0  0  0  0  0  0  0
   -3.0491    1.1972    2.0466 H   0  0  0  0  0  0  0  0  0  0  0  0
   -4.4005    3.0037    1.0026 H   0  0  0  0  0  0  0  0  0  0  0  0
   -3.2260    3.0874   -0.2802 H   0  0  0  0  0  0  0  0  0  0  0  0
   -5.8299    0.9832    1.3668 H   0  0  0  0  0  0  0  0  0  0  0  0
   -6.9676   -0.9164    0.2714 H   0  0  0  0  0  0  0  0  0  0  0  0
   -6.1833   -1.7506   -1.9162 H   0  0  0  0  0  0  0  0  0  0  0  0
   -3.0800    1.2455   -1.9394 H   0  0  0  0  0  0  0  0  0  0  0  0
    0.6850    2.1689   -1.5098 H   0  0  0  0  0  0  0  0  0  0  0  0
    1.0442   -2.9393   -0.3263 H   0  0  0  0  0  0  0  0  0  0  0  0
    3.0921   -4.2258   -0.5453 H   0  0  0  0  0  0  0  0  0  0  0  0
    2.2536   -1.2182   -1.4755 H   0  0  0  0  0  0  0  0  0  0  0  0
    4.0333   -2.1847   -2.4474 H   0  0  0  0  0  0  0  0  0  0  0  0
  1  2  1  0
  2  3  1  0
  3  4  2  0
  3  5  1  0
  5  6  1  0
  6  7  1  0
  7  8  1  0
  8  9  1  0
  9 10  2  0
 10 11  1  0
 11 12  2  0
 12 13  1  0
 13 14  1  0
 14 15  1  0
 15 16  2  0
 16 17  1  0
 17 18  2  0
 18 19  1  0
 19 20  1  0
 19 21  2  0
 12 22  1  0
 22 23  2  0
 23 24  1  0
 24 25  2  0
  7 26  1  0
 26 27  1  0
 26 28  1  0
 28 29  1  0
 28  5  1  0
 25  8  1  0
 25 11  1  0
 21 15  1  0
  1 30  1  0
  1 31  1  0
  1 32  1  0
  2 33  1  0
  5 34  1  1
  7 35  1  1
  9 36  1  0
 13 37  1  0
 14 38  1  0
 14 39  1  0
 16 40  1  0
 17 41  1  0
 18 42  1  0
 21 43  1  0
 23 44  1  0
 26 45  1  6
 27 46  1  0
 28 47  1  6
 29 48  1  0
M  END
$$$$
