
     RDKit          3D

 50 49  0  0  0  0  0  0  0  0999 V2000
    4.7186    2.4885    0.1524 C   0  0  0  0  0  0  0  0  0  0  0  0
    4.3196    1.3687    0.3916 C   0  0  0  0  0  0  0  0  0  0  0  0
    3.8377   -0.0236    0.7107 C   0  0  0  0  0  0  0  0  0  0  0  0
    4.4962   -0.3965    2.0209 C   0  0  0  0  0  0  0  0  0  0  0  0
    4.4426   -0.8746   -0.3677 C   0  0  0  0  0  0  0  0  0  0  0  0
    4.1631   -2.3288   -0.3078 C   0  0  0  0  0  0  0  0  0  0  0  0
    2.4911    0.0618    0.7675 O   0  0  0  0  0  0  0  0  0  0  0  0
    1.7428   -1.0314    1.0533 C   0  0  0  0  0  0  0  0  0  0  0  0
    0.2421   -0.6460    1.1068 C   0  0  0  0  0  0  0  0  0  0  0  0
   -0.4205   -1.8094    1.4039 O   0  0  0  0  0  0  0  0  0  0  0  0
   -0.1406   -0.0266   -0.2092 C   0  0  0  0  0  0  0  0  0  0  0  0
   -1.4957    0.3255   -0.3380 N   0  0  0  0  0  0  0  0  0  0  0  0
   -2.4505   -0.7365   -0.3950 C   0  0  0  0  0  0  0  0  0  0  0  0
   -3.7579   -0.2650   -0.9919 C   0  0  0  0  0  0  0  0  0  0  0  0
   -4.0878   -1.0632   -2.2567 C   0  0  0  0  0  0  0  0  0  0  0  0
   -3.7202    1.1886   -1.4048 C   0  0  0  0  0  0  0  0  0  0  0  0
   -3.1628    2.0834   -0.3227 C   0  0  0  0  0  0  0  0  0  0  0  0
   -4.2601    2.4296    0.6448 C   0  0  0  0  0  0  0  0  0  0  0  0
   -1.9435    1.4965    0.3365 C   0  0  0  0  0  0  0  0  0  0  0  0
    0.6880    0.0000    0.0000 Cl  0  0  0  0  0  0  0  0  0  0  0  0
    5.0613    3.4650   -0.0386 H   0  0  0  0  0  0  0  0  0  0  0  0
    4.5099    0.5248    2.6387 H   0  0  0  0  0  0  0  0  0  0  0  0
    5.5256   -0.7374    1.9011 H   0  0  0  0  0  0  0  0  0  0  0  0
    3.8772   -1.1282    2.5977 H   0  0  0  0  0  0  0  0  0  0  0  0
    5.5619   -0.7081   -0.2792 H   0  0  0  0  0  0  0  0  0  0  0  0
    4.1515   -0.4927   -1.3866 H   0  0  0  0  0  0  0  0  0  0  0  0
    3.4643   -2.7026   -1.1076 H   0  0  0  0  0  0  0  0  0  0  0  0
    3.9016   -2.7449    0.6699 H   0  0  0  0  0  0  0  0  0  0  0  0
    5.1355   -2.8547   -0.5941 H   0  0  0  0  0  0  0  0  0  0  0  0
    1.7794   -1.8348    0.2638 H   0  0  0  0  0  0  0  0  0  0  0  0
    1.9486   -1.4826    2.0456 H   0  0  0  0  0  0  0  0  0  0  0  0
    0.1245    0.0617    1.9493 H   0  0  0  0  0  0  0  0  0  0  0  0
   -0.8587   -1.7266    2.2857 H   0  0  0  0  0  0  0  0  0  0  0  0
    0.1536   -0.7036   -1.0370 H   0  0  0  0  0  0  0  0  0  0  0  0
    0.4797    0.8836   -0.3293 H   0  0  0  0  0  0  0  0  0  0  0  0
   -2.0323   -1.5195   -1.0715 H   0  0  0  0  0  0  0  0  0  0  0  0
   -2.6665   -1.2106    0.5630 H   0  0  0  0  0  0  0  0  0  0  0  0
   -4.5927   -0.4621   -0.2893 H   0  0  0  0  0  0  0  0  0  0  0  0
   -3.5155   -0.6883   -3.1201 H   0  0  0  0  0  0  0  0  0  0  0  0
   -3.9134   -2.1395   -2.0963 H   0  0  0  0  0  0  0  0  0  0  0  0
   -5.1694   -0.9150   -2.4446 H   0  0  0  0  0  0  0  0  0  0  0  0
   -4.7677    1.5009   -1.5874 H   0  0  0  0  0  0  0  0  0  0  0  0
   -3.1604    1.3481   -2.3368 H   0  0  0  0  0  0  0  0  0  0  0  0
   -2.8561    3.0296   -0.8156 H   0  0  0  0  0  0  0  0  0  0  0  0
   -4.1899    3.4586    1.0546 H   0  0  0  0  0  0  0  0  0  0  0  0
   -4.4227    1.6619    1.4233 H   0  0  0  0  0  0  0  0  0  0  0  0
   -5.2127    2.4350    0.0369 H   0  0  0  0  0  0  0  0  0  0  0  0
   -1.1114    2.2265    0.3727 H   0  0  0  0  0  0  0  0  0  0  0  0
   -2.2195    1.2144    1.3717 H   0  0  0  0  0  0  0  0  0  0  0  0
   -0.6880    0.0000    0.0000 H   0  0  0  0  0  0  0  0  0  0  0  0
  1  2  3  0
  2  3  1  0
  3  4  1  0
  3  5  1  0
  5  6  1  0
  3  7  1  0
  7  8  1  0
  8  9  1  0
  9 10  1  0
  9 11  1  0
 11 12  1  0
 12 13  1  0
 13 14  1  0
 14 15  1  0
 14 16  1  0
 16 17  1  0
 17 18  1  0
 17 19  1  0
 19 12  1  0
  1 21  1  0
  4 22  1  0
  4 23  1  0
  4 24  1  0
  5 25  1  0
  5 26  1  0
  6 27  1  0
  6 28  1  0
  6 29  1  0
  8 30  1  0
  8 31  1  0
  9 32  1  0
 10 33  1  0
 11 34  1  0
 11 35  1  0
 13 36  1  0
 13 37  1  0
 14 38  1  0
 15 39  1  0
 15 40  1  0
 15 41  1  0
 16 42  1  0
 16 43  1  0
 17 44  1  0
 18 45  1  0
 18 46  1  0
 18 47  1  0
 19 48  1  0
 19 49  1  0
 20 50  1  0
M  END
$$$$
