
     RDKit          3D

 29 30  0  0  0  0  0  0  0  0999 V2000
   -4.6374   -1.9810   -1.5492 N   0  0  0  0  0  0  0  0  0  0  0  0
   -3.2836   -1.8078   -1.4545 C   0  0  0  0  0  0  0  0  0  0  0  0
   -2.5441   -2.5967   -2.0232 O   0  0  0  0  0  0  0  0  0  0  0  0
   -2.9714   -0.7077   -0.7028 N   0  0  0  0  0  0  0  0  0  0  0  0
   -1.7129   -0.2485   -0.3483 C   0  0  0  0  0  0  0  0  0  0  0  0
   -0.3156   -1.1423   -0.6978 S   0  0  0  0  0  0  0  0  0  0  0  0
    0.7127    0.0073    0.0379 C   0  0  0  0  0  0  0  0  0  0  0  0
    2.1679   -0.1912    0.0607 C   0  0  0  0  0  0  0  0  0  0  0  0
    2.7353   -1.4232    0.4195 C   0  0  0  0  0  0  0  0  0  0  0  0
    4.1227   -1.5887    0.4511 C   0  0  0  0  0  0  0  0  0  0  0  0
    4.9606   -0.5244    0.1267 C   0  0  0  0  0  0  0  0  0  0  0  0
    4.4133    0.7059   -0.2293 C   0  0  0  0  0  0  0  0  0  0  0  0
    3.0260    0.8719   -0.2602 C   0  0  0  0  0  0  0  0  0  0  0  0
   -0.0212    1.0671    0.5379 C   0  0  0  0  0  0  0  0  0  0  0  0
   -1.4394    0.9340    0.3257 C   0  0  0  0  0  0  0  0  0  0  0  0
   -2.4949    1.8587    0.7372 C   0  0  0  0  0  0  0  0  0  0  0  0
   -2.0964    3.0357    1.3012 N   0  0  0  0  0  0  0  0  0  0  0  0
   -3.6915    1.6226    0.5857 O   0  0  0  0  0  0  0  0  0  0  0  0
   -4.8782   -2.8514   -2.0080 H   0  0  0  0  0  0  0  0  0  0  0  0
   -5.1780   -1.7877   -0.7184 H   0  0  0  0  0  0  0  0  0  0  0  0
   -3.7418   -0.0901   -0.4623 H   0  0  0  0  0  0  0  0  0  0  0  0
    2.1026   -2.2677    0.6844 H   0  0  0  0  0  0  0  0  0  0  0  0
    4.5463   -2.5507    0.7282 H   0  0  0  0  0  0  0  0  0  0  0  0
    6.0394   -0.6556    0.1481 H   0  0  0  0  0  0  0  0  0  0  0  0
    5.0656    1.5357   -0.4888 H   0  0  0  0  0  0  0  0  0  0  0  0
    2.6210    1.8370   -0.5549 H   0  0  0  0  0  0  0  0  0  0  0  0
    0.4507    1.8935    1.0534 H   0  0  0  0  0  0  0  0  0  0  0  0
   -1.1369    3.3405    1.3388 H   0  0  0  0  0  0  0  0  0  0  0  0
   -2.8206    3.7049    1.5246 H   0  0  0  0  0  0  0  0  0  0  0  0
  1  2  1  0
  2  3  2  0
  2  4  1  0
  4  5  1  0
  5  6  1  0
  6  7  1  0
  7  8  1  0
  8  9  2  0
  9 10  1  0
 10 11  2  0
 11 12  1  0
 12 13  2  0
  7 14  2  0
 14 15  1  0
 15 16  1  0
 16 17  1  0
 16 18  2  0
 15  5  2  0
 13  8  1  0
  1 19  1  0
  1 20  1  0
  4 21  1  0
  9 22  1  0
 10 23  1  0
 11 24  1  0
 12 25  1  0
 13 26  1  0
 14 27  1  0
 17 28  1  0
 17 29  1  0
M  END
$$$$
