
     RDKit          3D

 47 50  0  0  0  0  0  0  0  0999 V2000
   -2.5592   -0.8044    1.9776 C   0  0  0  0  0  0  0  0  0  0  0  0
   -3.8323   -0.5281    1.1659 C   0  0  0  0  0  0  0  0  0  0  0  0
   -4.8469    0.2036    2.0624 C   0  0  0  0  0  0  0  0  0  0  0  0
   -4.4469   -1.8546    0.6990 C   0  0  0  0  0  0  0  0  0  0  0  0
   -3.4672    0.5508   -0.2576 S   0  0  0  0  0  6  0  0  0  0  0  0
   -4.6675    0.6823   -1.0631 O   0  0  0  0  0  0  0  0  0  0  0  0
   -2.7871    1.7401    0.2251 O   0  0  0  0  0  0  0  0  0  0  0  0
   -2.2818   -0.3306   -1.2543 C   0  0  0  0  0  0  0  0  0  0  0  0
   -2.7162   -1.1676   -2.2737 C   0  0  0  0  0  0  0  0  0  0  0  0
   -1.7677   -1.8361   -3.0492 C   0  0  0  0  0  0  0  0  0  0  0  0
   -0.4020   -1.6698   -2.8533 C   0  0  0  0  0  0  0  0  0  0  0  0
    0.4256   -2.3802   -3.6290 N   0  0  0  0  0  0  0  0  0  0  0  0
    1.7500   -2.2371   -3.4338 C   0  0  0  0  0  0  0  0  0  0  0  0
    2.3035   -1.3842   -2.5008 C   0  0  0  0  0  0  0  0  0  0  0  0
    1.4601   -0.6037   -1.7091 C   0  0  0  0  0  0  0  0  0  0  0  0
    1.9804    0.2875   -0.7306 N   0  0  0  0  0  0  0  0  0  0  0  0
    3.2104    0.3630   -0.1595 C   0  0  0  0  0  0  0  0  0  0  0  0
    4.1911   -0.5422   -0.2299 N   0  0  0  0  0  0  0  0  0  0  0  0
    5.1804   -0.0275    0.5123 N   0  0  0  0  0  0  0  0  0  0  0  0
    4.8908    1.1827    1.0776 C   0  0  0  0  0  0  0  0  0  0  0  0
    5.6422    2.0249    1.9053 C   0  0  0  0  0  0  0  0  0  0  0  0
    5.0324    3.2126    2.3185 C   0  0  0  0  0  0  0  0  0  0  0  0
    3.7384    3.5229    1.9145 C   0  0  0  0  0  0  0  0  0  0  0  0
    3.1837    4.6696    2.3300 F   0  0  0  0  0  0  0  0  0  0  0  0
    2.9996    2.6746    1.0886 C   0  0  0  0  0  0  0  0  0  0  0  0
    3.5955    1.4723    0.6591 C   0  0  0  0  0  0  0  0  0  0  0  0
    0.0521   -0.7730   -1.8551 C   0  0  0  0  0  0  0  0  0  0  0  0
   -0.9153   -0.1125   -1.0569 C   0  0  0  0  0  0  0  0  0  0  0  0
   -2.0739    0.1253    2.2939 H   0  0  0  0  0  0  0  0  0  0  0  0
   -2.7872   -1.3830    2.8801 H   0  0  0  0  0  0  0  0  0  0  0  0
   -1.8283   -1.3803    1.4014 H   0  0  0  0  0  0  0  0  0  0  0  0
   -5.7735    0.4208    1.5193 H   0  0  0  0  0  0  0  0  0  0  0  0
   -4.4460    1.1585    2.4202 H   0  0  0  0  0  0  0  0  0  0  0  0
   -5.1079   -0.3982    2.9401 H   0  0  0  0  0  0  0  0  0  0  0  0
   -5.3364   -1.6906    0.0814 H   0  0  0  0  0  0  0  0  0  0  0  0
   -3.7381   -2.4444    0.1098 H   0  0  0  0  0  0  0  0  0  0  0  0
   -4.7464   -2.4707    1.5546 H   0  0  0  0  0  0  0  0  0  0  0  0
   -3.7751   -1.3139   -2.4743 H   0  0  0  0  0  0  0  0  0  0  0  0
   -2.1029   -2.5098   -3.8361 H   0  0  0  0  0  0  0  0  0  0  0  0
    2.3821   -2.8451   -4.0748 H   0  0  0  0  0  0  0  0  0  0  0  0
    3.3823   -1.3203   -2.4241 H   0  0  0  0  0  0  0  0  0  0  0  0
    1.3624    1.0754   -0.5815 H   0  0  0  0  0  0  0  0  0  0  0  0
    6.0388   -0.5592    0.5991 H   0  0  0  0  0  0  0  0  0  0  0  0
    6.6510    1.7743    2.2170 H   0  0  0  0  0  0  0  0  0  0  0  0
    5.5663    3.9064    2.9620 H   0  0  0  0  0  0  0  0  0  0  0  0
    1.9940    2.9549    0.7962 H   0  0  0  0  0  0  0  0  0  0  0  0
   -0.6074    0.5646   -0.2647 H   0  0  0  0  0  0  0  0  0  0  0  0
  1  2  1  0
  2  3  1  0
  2  4  1  0
  2  5  1  0
  5  6  2  0
  5  7  2  0
  5  8  1  0
  8  9  2  0
  9 10  1  0
 10 11  2  0
 11 12  1  0
 12 13  2  0
 13 14  1  0
 14 15  2  0
 15 16  1  0
 16 17  1  0
 17 18  2  0
 18 19  1  0
 19 20  1  0
 20 21  2  0
 21 22  1  0
 22 23  2  0
 23 24  1  0
 23 25  1  0
 25 26  2  0
 15 27  1  0
 27 28  2  0
 28  8  1  0
 27 11  1  0
 26 17  1  0
 26 20  1  0
  1 29  1  0
  1 30  1  0
  1 31  1  0
  3 32  1  0
  3 33  1  0
  3 34  1  0
  4 35  1  0
  4 36  1  0
  4 37  1  0
  9 38  1  0
 10 39  1  0
 13 40  1  0
 14 41  1  0
 16 42  1  0
 19 43  1  0
 21 44  1  0
 22 45  1  0
 25 46  1  0
 28 47  1  0
M  END
$$$$
