
     RDKit          3D

 55 57  0  0  0  0  0  0  0  0999 V2000
   -7.0678   -0.1951    0.8649 C   0  0  0  0  0  0  0  0  0  0  0  0
   -5.5563   -0.1181    0.6937 C   0  0  0  0  0  0  0  0  0  0  0  0
   -5.0722   -0.6076   -0.6872 C   0  0  0  0  0  0  0  0  0  0  0  0
   -5.2779   -2.1207   -0.9088 C   0  0  0  0  0  0  0  0  0  0  0  0
   -4.8943   -2.5820   -2.3103 C   0  0  0  0  0  0  0  0  0  0  0  0
   -3.6934   -0.1672   -0.9469 N   0  0  0  0  0  0  0  0  0  0  0  0
   -3.3782    0.7217   -1.9465 C   0  0  0  0  0  0  0  0  0  0  0  0
   -2.0206    0.9238   -1.9300 C   0  0  0  0  0  0  0  0  0  0  0  0
   -1.4697    0.1384   -0.8789 C   0  0  0  0  0  0  0  0  0  0  0  0
   -0.1609   -0.0542   -0.3730 C   0  0  0  0  0  0  0  0  0  0  0  0
    0.9906    0.6492   -0.9973 C   0  0  0  0  0  0  0  0  0  0  0  0
    1.0291    0.8510   -2.2041 O   0  0  0  0  0  0  0  0  0  0  0  0
    1.9788    1.0538   -0.1252 N   0  0  0  0  0  0  0  0  0  0  0  0
    3.0637    1.9042   -0.5649 C   0  0  0  0  0  0  0  0  0  0  0  0
    4.2976    1.5651    0.2162 C   0  0  0  0  0  0  0  0  0  0  0  0
    5.3774    0.8894   -0.2374 C   0  0  0  0  0  0  0  0  0  0  0  0
    5.5039    0.2795   -1.6064 C   0  0  0  0  0  0  0  0  0  0  0  0
    6.5355    0.6979    0.6249 C   0  0  0  0  0  0  0  0  0  0  0  0
    6.5575    1.1826    1.8750 C   0  0  0  0  0  0  0  0  0  0  0  0
    7.7165    1.0254    2.8092 C   0  0  0  0  0  0  0  0  0  0  0  0
    5.4608    1.8604    2.3456 N   0  0  0  0  0  0  0  0  0  0  0  0
    4.3155    2.0794    1.6243 C   0  0  0  0  0  0  0  0  0  0  0  0
    3.3468    2.6493    2.1188 O   0  0  0  0  0  0  0  0  0  0  0  0
    0.0459   -0.9297    0.7070 C   0  0  0  0  0  0  0  0  0  0  0  0
   -1.0293   -1.5927    1.2942 C   0  0  0  0  0  0  0  0  0  0  0  0
   -0.8017   -2.4843    2.3948 C   0  0  0  0  0  0  0  0  0  0  0  0
   -0.6188   -3.2046    3.2861 N   0  0  0  0  0  0  0  0  0  0  0  0
   -2.3344   -1.4019    0.8194 C   0  0  0  0  0  0  0  0  0  0  0  0
   -2.5413   -0.5360   -0.2705 C   0  0  0  0  0  0  0  0  0  0  0  0
   -7.5829    0.3486    0.0667 H   0  0  0  0  0  0  0  0  0  0  0  0
   -7.4209   -1.2301    0.8651 H   0  0  0  0  0  0  0  0  0  0  0  0
   -7.3594    0.2527    1.8206 H   0  0  0  0  0  0  0  0  0  0  0  0
   -5.0844   -0.6914    1.4985 H   0  0  0  0  0  0  0  0  0  0  0  0
   -5.2519    0.9270    0.8365 H   0  0  0  0  0  0  0  0  0  0  0  0
   -5.6853   -0.0906   -1.4395 H   0  0  0  0  0  0  0  0  0  0  0  0
   -6.3341   -2.3705   -0.7577 H   0  0  0  0  0  0  0  0  0  0  0  0
   -4.7152   -2.7075   -0.1762 H   0  0  0  0  0  0  0  0  0  0  0  0
   -5.4365   -2.0140   -3.0727 H   0  0  0  0  0  0  0  0  0  0  0  0
   -3.8211   -2.4707   -2.4917 H   0  0  0  0  0  0  0  0  0  0  0  0
   -5.1432   -3.6406   -2.4372 H   0  0  0  0  0  0  0  0  0  0  0  0
   -4.1393    1.1363   -2.5950 H   0  0  0  0  0  0  0  0  0  0  0  0
   -1.4724    1.5687   -2.6065 H   0  0  0  0  0  0  0  0  0  0  0  0
    1.7505    1.1189    0.8605 H   0  0  0  0  0  0  0  0  0  0  0  0
    3.2112    1.8086   -1.6440 H   0  0  0  0  0  0  0  0  0  0  0  0
    2.7615    2.9440   -0.3939 H   0  0  0  0  0  0  0  0  0  0  0  0
    6.2270    0.8423   -2.2068 H   0  0  0  0  0  0  0  0  0  0  0  0
    5.8498   -0.7583   -1.5351 H   0  0  0  0  0  0  0  0  0  0  0  0
    4.5591    0.2511   -2.1549 H   0  0  0  0  0  0  0  0  0  0  0  0
    7.3886    0.1550    0.2270 H   0  0  0  0  0  0  0  0  0  0  0  0
    7.4130    0.4736    3.7050 H   0  0  0  0  0  0  0  0  0  0  0  0
    8.0940    2.0061    3.1176 H   0  0  0  0  0  0  0  0  0  0  0  0
    8.5444    0.4798    2.3443 H   0  0  0  0  0  0  0  0  0  0  0  0
    5.4525    2.2179    3.2929 H   0  0  0  0  0  0  0  0  0  0  0  0
    1.0549   -1.1093    1.0745 H   0  0  0  0  0  0  0  0  0  0  0  0
   -3.1626   -1.9245    1.2887 H   0  0  0  0  0  0  0  0  0  0  0  0
  1  2  1  0
  2  3  1  0
  3  4  1  0
  4  5  1  0
  3  6  1  0
  6  7  1  0
  7  8  2  0
  8  9  1  0
  9 10  2  0
 10 11  1  0
 11 12  2  0
 11 13  1  0
 13 14  1  0
 14 15  1  0
 15 16  2  0
 16 17  1  0
 16 18  1  0
 18 19  2  0
 19 20  1  0
 19 21  1  0
 21 22  1  0
 22 23  2  0
 10 24  1  0
 24 25  2  0
 25 26  1  0
 26 27  3  0
 25 28  1  0
 28 29  2  0
 29  6  1  0
 29  9  1  0
 22 15  1  0
  1 30  1  0
  1 31  1  0
  1 32  1  0
  2 33  1  0
  2 34  1  0
  3 35  1  0
  4 36  1  0
  4 37  1  0
  5 38  1  0
  5 39  1  0
  5 40  1  0
  7 41  1  0
  8 42  1  0
 13 43  1  0
 14 44  1  0
 14 45  1  0
 17 46  1  0
 17 47  1  0
 17 48  1  0
 18 49  1  0
 20 50  1  0
 20 51  1  0
 20 52  1  0
 21 53  1  0
 24 54  1  0
 28 55  1  0
M  END
$$$$
