
     RDKit          3D

 43 45  0  0  0  0  0  0  0  0999 V2000
   -5.5184    2.0834   -1.7012 C   0  0  0  0  0  0  0  0  0  0  0  0
   -4.9317    0.7880   -1.7445 O   0  0  0  0  0  0  0  0  0  0  0  0
   -3.9509    0.5211   -0.8320 C   0  0  0  0  0  0  0  0  0  0  0  0
   -3.4028    1.4254    0.0723 C   0  0  0  0  0  0  0  0  0  0  0  0
   -2.3908    1.0200    0.9536 C   0  0  0  0  0  0  0  0  0  0  0  0
   -1.9056   -0.2934    0.9446 C   0  0  0  0  0  0  0  0  0  0  0  0
   -0.9035   -0.7325    1.7571 O   0  0  0  0  0  0  0  0  0  0  0  0
   -0.3621    0.1616    2.7201 C   0  0  0  0  0  0  0  0  0  0  0  0
   -2.4590   -1.1971    0.0286 C   0  0  0  0  0  0  0  0  0  0  0  0
   -1.9467   -2.9025   -0.0622 S   0  0  0  0  0  6  0  0  0  0  0  0
   -3.0385   -3.6450   -0.6638 O   0  0  0  0  0  0  0  0  0  0  0  0
   -1.3893   -3.3361    1.1993 O   0  0  0  0  0  0  0  0  0  0  0  0
   -0.7351   -2.8834   -1.2454 N   0  0  0  0  0  0  0  0  0  0  0  0
    0.3815   -2.0170   -1.1011 C   0  0  0  0  0  0  0  0  0  0  0  0
    0.5615   -1.0019   -2.0370 C   0  0  0  0  0  0  0  0  0  0  0  0
    1.6270   -0.1033   -1.9114 C   0  0  0  0  0  0  0  0  0  0  0  0
    2.5218   -0.2247   -0.8297 C   0  0  0  0  0  0  0  0  0  0  0  0
    3.6040    0.6016   -0.5789 N   0  0  0  0  0  0  0  0  0  0  0  0
    4.2038    0.1958    0.5225 C   0  0  0  0  0  0  0  0  0  0  0  0
    5.6192    0.9554    1.2613 S   0  0  0  0  0  6  0  0  0  0  0  0
    6.0876    2.1873    0.0770 C   0  0  0  0  0  0  0  0  0  0  0  0
    5.1385    1.6205    2.4577 O   0  0  0  0  0  0  0  0  0  0  0  0
    6.6542   -0.0593    1.3073 O   0  0  0  0  0  0  0  0  0  0  0  0
    3.5434   -1.1650    1.3070 S   0  0  0  0  0  0  0  0  0  0  0  0
    2.3250   -1.2569    0.0920 C   0  0  0  0  0  0  0  0  0  0  0  0
    1.2663   -2.1716   -0.0308 C   0  0  0  0  0  0  0  0  0  0  0  0
   -3.4803   -0.7904   -0.8470 C   0  0  0  0  0  0  0  0  0  0  0  0
   -6.3082    2.1182   -2.4576 H   0  0  0  0  0  0  0  0  0  0  0  0
   -4.7837    2.8564   -1.9491 H   0  0  0  0  0  0  0  0  0  0  0  0
   -5.9817    2.2758   -0.7274 H   0  0  0  0  0  0  0  0  0  0  0  0
   -3.7360    2.4574    0.1213 H   0  0  0  0  0  0  0  0  0  0  0  0
   -1.9969    1.7672    1.6365 H   0  0  0  0  0  0  0  0  0  0  0  0
   -1.1297    0.4959    3.4257 H   0  0  0  0  0  0  0  0  0  0  0  0
    0.3990   -0.3813    3.2887 H   0  0  0  0  0  0  0  0  0  0  0  0
    0.1292    1.0115    2.2346 H   0  0  0  0  0  0  0  0  0  0  0  0
   -1.1194   -3.0340   -2.1766 H   0  0  0  0  0  0  0  0  0  0  0  0
   -0.1288   -0.8837   -2.8685 H   0  0  0  0  0  0  0  0  0  0  0  0
    1.7646    0.6941   -2.6352 H   0  0  0  0  0  0  0  0  0  0  0  0
    6.9717    2.7025    0.4593 H   0  0  0  0  0  0  0  0  0  0  0  0
    5.2688    2.8993   -0.0418 H   0  0  0  0  0  0  0  0  0  0  0  0
    6.3248    1.7010   -0.8711 H   0  0  0  0  0  0  0  0  0  0  0  0
    1.1333   -2.9636    0.7009 H   0  0  0  0  0  0  0  0  0  0  0  0
   -3.9257   -1.4968   -1.5449 H   0  0  0  0  0  0  0  0  0  0  0  0
  1  2  1  0
  2  3  1  0
  3  4  2  0
  4  5  1  0
  5  6  2  0
  6  7  1  0
  7  8  1  0
  6  9  1  0
  9 10  1  0
 10 11  2  0
 10 12  2  0
 10 13  1  0
 13 14  1  0
 14 15  2  0
 15 16  1  0
 16 17  2  0
 17 18  1  0
 18 19  2  0
 19 20  1  0
 20 21  1  0
 20 22  2  0
 20 23  2  0
 19 24  1  0
 24 25  1  0
 25 26  2  0
  9 27  2  0
 27  3  1  0
 26 14  1  0
 25 17  1  0
  1 28  1  0
  1 29  1  0
  1 30  1  0
  4 31  1  0
  5 32  1  0
  8 33  1  0
  8 34  1  0
  8 35  1  0
 13 36  1  0
 15 37  1  0
 16 38  1  0
 21 39  1  0
 21 40  1  0
 21 41  1  0
 26 42  1  0
 27 43  1  0
M  END
$$$$
