
     RDKit          3D

 57 60  0  0  0  0  0  0  0  0999 V2000
   -9.4725    0.0099    1.2653 O   0  0  0  0  0  0  0  0  0  0  0  0
   -8.3592    0.3295    0.8547 C   0  0  0  0  0  0  0  0  0  0  0  0
   -8.0962    1.6576    0.1833 C   0  0  0  0  0  0  0  0  0  0  0  0
   -6.6911    2.1679    0.4580 C   0  0  0  0  0  0  0  0  0  0  0  0
   -5.6677    1.0900    0.2368 C   0  0  0  0  0  0  0  0  0  0  0  0
   -4.3531    1.3977   -0.1238 C   0  0  0  0  0  0  0  0  0  0  0  0
   -3.3950    0.3835   -0.2348 C   0  0  0  0  0  0  0  0  0  0  0  0
   -3.7397   -0.9433    0.0277 C   0  0  0  0  0  0  0  0  0  0  0  0
   -2.9035   -2.0232   -0.0282 O   0  0  0  0  0  0  0  0  0  0  0  0
   -1.5967   -1.8557   -0.5801 C   0  0  0  0  0  0  0  0  0  0  0  0
   -0.5962   -1.5102    0.5222 C   0  0  0  0  0  0  0  0  0  0  0  0
    0.8177   -1.2254    0.0054 C   0  0  0  0  0  0  0  0  0  0  0  0
    1.4726   -2.4440   -0.6521 C   0  0  0  0  0  0  0  0  0  0  0  0
    2.8677   -2.3289   -1.0648 N   0  0  0  0  0  0  0  0  0  0  0  0
    3.8659   -2.3607    0.0183 C   0  0  0  0  0  0  0  0  0  0  0  0
    4.3235   -0.9961    0.5865 C   0  0  0  0  0  0  0  0  0  0  0  0
    4.6854   -0.0745   -0.5116 N   0  0  0  0  0  0  0  0  0  0  0  0
    5.3278    1.0920   -0.0490 C   0  0  0  0  0  0  0  0  0  0  0  0
    4.6025    2.2628    0.2370 C   0  0  0  0  0  0  0  0  0  0  0  0
    5.2337    3.4132    0.7148 C   0  0  0  0  0  0  0  0  0  0  0  0
    6.6094    3.4177    0.9206 C   0  0  0  0  0  0  0  0  0  0  0  0
    7.3598    2.2717    0.6494 C   0  0  0  0  0  0  0  0  0  0  0  0
    9.0651    2.3616    0.9339 Cl  0  0  0  0  0  0  0  0  0  0  0  0
    6.7307    1.1114    0.1682 C   0  0  0  0  0  0  0  0  0  0  0  0
    7.6759   -0.3059   -0.1977 Cl  0  0  0  0  0  0  0  0  0  0  0  0
    3.6011    0.0903   -1.4956 C   0  0  0  0  0  0  0  0  0  0  0  0
    3.1739   -1.2874   -2.0590 C   0  0  0  0  0  0  0  0  0  0  0  0
   -5.0496   -1.2475    0.4098 C   0  0  0  0  0  0  0  0  0  0  0  0
   -6.0075   -0.2388    0.5012 C   0  0  0  0  0  0  0  0  0  0  0  0
   -7.3138   -0.5546    0.8873 N   0  0  0  0  0  0  0  0  0  0  0  0
   -8.2521    1.5166   -0.8930 H   0  0  0  0  0  0  0  0  0  0  0  0
   -8.8299    2.3890    0.5388 H   0  0  0  0  0  0  0  0  0  0  0  0
   -6.6119    2.5070    1.4982 H   0  0  0  0  0  0  0  0  0  0  0  0
   -6.4884    3.0282   -0.1899 H   0  0  0  0  0  0  0  0  0  0  0  0
   -4.0613    2.4293   -0.3076 H   0  0  0  0  0  0  0  0  0  0  0  0
   -2.3853    0.6702   -0.5076 H   0  0  0  0  0  0  0  0  0  0  0  0
   -1.5816   -1.1394   -1.4093 H   0  0  0  0  0  0  0  0  0  0  0  0
   -1.3324   -2.8251   -1.0167 H   0  0  0  0  0  0  0  0  0  0  0  0
   -0.5719   -2.3249    1.2570 H   0  0  0  0  0  0  0  0  0  0  0  0
   -0.9478   -0.6323    1.0772 H   0  0  0  0  0  0  0  0  0  0  0  0
    1.4154   -0.8940    0.8589 H   0  0  0  0  0  0  0  0  0  0  0  0
    0.7675   -0.3928   -0.7043 H   0  0  0  0  0  0  0  0  0  0  0  0
    0.8953   -2.7138   -1.5450 H   0  0  0  0  0  0  0  0  0  0  0  0
    1.3742   -3.3095    0.0162 H   0  0  0  0  0  0  0  0  0  0  0  0
    4.7553   -2.8569   -0.3927 H   0  0  0  0  0  0  0  0  0  0  0  0
    3.5298   -3.0046    0.8400 H   0  0  0  0  0  0  0  0  0  0  0  0
    3.5312   -0.5536    1.2003 H   0  0  0  0  0  0  0  0  0  0  0  0
    5.1803   -1.1739    1.2478 H   0  0  0  0  0  0  0  0  0  0  0  0
    3.5239    2.2911    0.1107 H   0  0  0  0  0  0  0  0  0  0  0  0
    4.6485    4.3041    0.9308 H   0  0  0  0  0  0  0  0  0  0  0  0
    7.0928    4.3171    1.2941 H   0  0  0  0  0  0  0  0  0  0  0  0
    3.9470    0.7133   -2.3298 H   0  0  0  0  0  0  0  0  0  0  0  0
    2.7355    0.5853   -1.0445 H   0  0  0  0  0  0  0  0  0  0  0  0
    4.0046   -1.6667   -2.6695 H   0  0  0  0  0  0  0  0  0  0  0  0
    2.3361   -1.1574   -2.7549 H   0  0  0  0  0  0  0  0  0  0  0  0
   -5.3113   -2.2806    0.6223 H   0  0  0  0  0  0  0  0  0  0  0  0
   -7.5343   -1.4864    1.2152 H   0  0  0  0  0  0  0  0  0  0  0  0
  1  2  2  0
  2  3  1  0
  3  4  1  0
  4  5  1  0
  5  6  2  0
  6  7  1  0
  7  8  2  0
  8  9  1  0
  9 10  1  0
 10 11  1  0
 11 12  1  0
 12 13  1  0
 13 14  1  0
 14 15  1  0
 15 16  1  0
 16 17  1  0
 17 18  1  0
 18 19  2  0
 19 20  1  0
 20 21  2  0
 21 22  1  0
 22 23  1  0
 22 24  2  0
 24 25  1  0
 17 26  1  0
 26 27  1  0
  8 28  1  0
 28 29  2  0
 29 30  1  0
 30  2  1  0
 29  5  1  0
 27 14  1  0
 24 18  1  0
  3 31  1  0
  3 32  1  0
  4 33  1  0
  4 34  1  0
  6 35  1  0
  7 36  1  0
 10 37  1  0
 10 38  1  0
 11 39  1  0
 11 40  1  0
 12 41  1  0
 12 42  1  0
 13 43  1  0
 13 44  1  0
 15 45  1  0
 15 46  1  0
 16 47  1  0
 16 48  1  0
 19 49  1  0
 20 50  1  0
 21 51  1  0
 26 52  1  0
 26 53  1  0
 27 54  1  0
 27 55  1  0
 28 56  1  0
 30 57  1  0
M  END
$$$$
