
     RDKit          3D

 38 42  0  0  0  0  0  0  0  0999 V2000
   -2.4086   -2.9361    2.4272 O   0  0  0  0  0  0  0  0  0  0  0  0
   -1.3108   -2.4789    2.1637 C   0  0  0  0  0  0  0  0  0  0  0  0
   -0.1957   -2.6536    2.8982 N   0  0  0  0  0  0  0  0  0  0  0  0
    0.8705   -2.1065    2.2831 C   0  0  0  0  0  0  0  0  0  0  0  0
    2.0210   -2.1835    2.6740 O   0  0  0  0  0  0  0  0  0  0  0  0
    0.3821   -1.4347    1.0535 C   0  0  0  0  0  0  0  0  0  0  0  0
    1.2378   -0.7482    0.1464 C   0  0  0  0  0  0  0  0  0  0  0  0
    1.2074   -0.9038   -1.2245 C   0  0  0  0  0  0  0  0  0  0  0  0
    2.1422   -0.0641   -1.7672 N   0  0  0  0  0  0  0  0  0  0  0  0
    2.7874    0.6364   -0.7747 C   0  0  0  0  0  0  0  0  0  0  0  0
    3.7987    1.6004   -0.8695 C   0  0  0  0  0  0  0  0  0  0  0  0
    4.2751    2.1612    0.3182 C   0  0  0  0  0  0  0  0  0  0  0  0
    3.7582    1.7724    1.5504 C   0  0  0  0  0  0  0  0  0  0  0  0
    2.7456    0.8088    1.6275 C   0  0  0  0  0  0  0  0  0  0  0  0
    2.2469    0.2205    0.4451 C   0  0  0  0  0  0  0  0  0  0  0  0
   -0.9441   -1.6530    0.9864 C   0  0  0  0  0  0  0  0  0  0  0  0
   -1.8970   -1.2259    0.0191 C   0  0  0  0  0  0  0  0  0  0  0  0
   -2.8184   -2.0606   -0.5778 C   0  0  0  0  0  0  0  0  0  0  0  0
   -3.5680   -1.3139   -1.4460 N   0  0  0  0  0  0  0  0  0  0  0  0
   -3.1546   -0.0018   -1.4258 C   0  0  0  0  0  0  0  0  0  0  0  0
   -3.6341    1.1010   -2.1436 C   0  0  0  0  0  0  0  0  0  0  0  0
   -3.0309    2.3397   -1.9116 C   0  0  0  0  0  0  0  0  0  0  0  0
   -1.9935    2.4692   -0.9931 C   0  0  0  0  0  0  0  0  0  0  0  0
   -1.5280    1.3575   -0.2814 C   0  0  0  0  0  0  0  0  0  0  0  0
   -2.1085    0.0895   -0.5035 C   0  0  0  0  0  0  0  0  0  0  0  0
   -0.1460   -3.2113    3.7334 H   0  0  0  0  0  0  0  0  0  0  0  0
    0.5952   -1.5254   -1.8650 H   0  0  0  0  0  0  0  0  0  0  0  0
    2.3287    0.0395   -2.7550 H   0  0  0  0  0  0  0  0  0  0  0  0
    4.2040    1.9056   -1.8286 H   0  0  0  0  0  0  0  0  0  0  0  0
    5.0629    2.9099    0.2785 H   0  0  0  0  0  0  0  0  0  0  0  0
    4.1454    2.2159    2.4644 H   0  0  0  0  0  0  0  0  0  0  0  0
    2.3605    0.5133    2.5991 H   0  0  0  0  0  0  0  0  0  0  0  0
   -3.0148   -3.1181   -0.4534 H   0  0  0  0  0  0  0  0  0  0  0  0
   -4.3272   -1.6666   -2.0123 H   0  0  0  0  0  0  0  0  0  0  0  0
   -4.4489    1.0054   -2.8539 H   0  0  0  0  0  0  0  0  0  0  0  0
   -3.3813    3.2157   -2.4527 H   0  0  0  0  0  0  0  0  0  0  0  0
   -1.5387    3.4419   -0.8222 H   0  0  0  0  0  0  0  0  0  0  0  0
   -0.7202    1.4823    0.4338 H   0  0  0  0  0  0  0  0  0  0  0  0
  1  2  2  0
  2  3  1  0
  3  4  1  0
  4  5  2  0
  4  6  1  0
  6  7  1  0
  7  8  2  0
  8  9  1  0
  9 10  1  0
 10 11  2  0
 11 12  1  0
 12 13  2  0
 13 14  1  0
 14 15  2  0
  6 16  2  0
 16 17  1  0
 17 18  2  0
 18 19  1  0
 19 20  1  0
 20 21  2  0
 21 22  1  0
 22 23  2  0
 23 24  1  0
 24 25  2  0
 16  2  1  0
 25 17  1  0
 15  7  1  0
 25 20  1  0
 15 10  1  0
  3 26  1  0
  8 27  1  0
  9 28  1  0
 11 29  1  0
 12 30  1  0
 13 31  1  0
 14 32  1  0
 18 33  1  0
 19 34  1  0
 21 35  1  0
 22 36  1  0
 23 37  1  0
 24 38  1  0
M  END
$$$$
