
     RDKit          3D

 32 33  0  0  0  0  0  0  0  0999 V2000
    5.9670    1.9572   -0.3605 C   0  0  0  0  0  0  0  0  0  0  0  0
    4.8923    1.0498   -0.0408 N   0  0  0  0  0  0  0  0  0  0  0  0
    4.9402   -0.0078    0.8151 C   0  0  0  0  0  0  0  0  0  0  0  0
    3.6826   -0.5644    0.7881 C   0  0  0  0  0  0  0  0  0  0  0  0
    2.9446    0.2298   -0.1158 C   0  0  0  0  0  0  0  0  0  0  0  0
    1.6373    0.1223   -0.5181 N   0  0  0  0  0  0  0  0  0  0  0  0
    0.7411   -0.8320   -0.0912 C   0  0  0  0  0  0  0  0  0  0  0  0
    0.9754   -1.7333    0.7079 O   0  0  0  0  0  0  0  0  0  0  0  0
   -0.6122   -0.6587   -0.7480 C   0  0  0  0  0  0  0  0  0  0  0  0
   -1.6205   -1.6655   -0.2058 C   0  0  0  0  0  0  0  0  0  0  0  0
   -2.9020   -1.5383   -0.8894 N   0  0  0  0  0  0  0  0  0  0  0  0
   -3.8096   -0.6725   -0.2930 C   0  0  0  0  0  0  0  0  0  0  0  0
   -5.0933   -1.0480   -0.3661 N   0  0  0  0  0  0  0  0  0  0  0  0
   -6.0023   -0.2288    0.1958 C   0  0  0  0  0  0  0  0  0  0  0  0
   -5.6772    0.9436    0.8294 C   0  0  0  0  0  0  0  0  0  0  0  0
   -4.3376    1.2378    0.8557 C   0  0  0  0  0  0  0  0  0  0  0  0
   -3.3927    0.4514    0.3072 N   0  0  0  0  0  0  0  0  0  0  0  0
    3.6899    1.2171   -0.6206 N   0  0  0  0  0  0  0  0  0  0  0  0
    6.1618    1.8962   -1.4341 H   0  0  0  0  0  0  0  0  0  0  0  0
    5.6589    2.9681   -0.0819 H   0  0  0  0  0  0  0  0  0  0  0  0
    6.8622    1.6727    0.1980 H   0  0  0  0  0  0  0  0  0  0  0  0
    5.8351   -0.2743    1.3592 H   0  0  0  0  0  0  0  0  0  0  0  0
    3.3479   -1.4268    1.3469 H   0  0  0  0  0  0  0  0  0  0  0  0
    1.3616    0.8349   -1.1791 H   0  0  0  0  0  0  0  0  0  0  0  0
   -0.4918   -0.7947   -1.8297 H   0  0  0  0  0  0  0  0  0  0  0  0
   -0.9500    0.3689   -0.5764 H   0  0  0  0  0  0  0  0  0  0  0  0
   -1.7269   -1.5868    0.8845 H   0  0  0  0  0  0  0  0  0  0  0  0
   -1.2449   -2.6788   -0.3971 H   0  0  0  0  0  0  0  0  0  0  0  0
   -3.4128   -2.4100   -0.9930 H   0  0  0  0  0  0  0  0  0  0  0  0
   -7.0338   -0.5584    0.1158 H   0  0  0  0  0  0  0  0  0  0  0  0
   -6.4212    1.5880    1.2743 H   0  0  0  0  0  0  0  0  0  0  0  0
   -3.9687    2.1413    1.3316 H   0  0  0  0  0  0  0  0  0  0  0  0
  1  2  1  0
  2  3  1  0
  3  4  2  0
  4  5  1  0
  5  6  1  0
  6  7  1  0
  7  8  2  0
  7  9  1  0
  9 10  1  0
 10 11  1  0
 11 12  1  0
 12 13  2  0
 13 14  1  0
 14 15  2  0
 15 16  1  0
 16 17  2  0
  5 18  2  0
 18  2  1  0
 17 12  1  0
  1 19  1  0
  1 20  1  0
  1 21  1  0
  3 22  1  0
  4 23  1  0
  6 24  1  0
  9 25  1  0
  9 26  1  0
 10 27  1  0
 10 28  1  0
 11 29  1  0
 14 30  1  0
 15 31  1  0
 16 32  1  0
M  END
$$$$
