
     RDKit          3D

 44 47  0  0  0  0  0  0  0  0999 V2000
   -1.8851    2.4097   -1.7870 C   0  0  0  0  0  0  0  0  0  0  0  0
   -1.5588    1.7833   -0.5445 O   0  0  0  0  0  0  0  0  0  0  0  0
   -2.5787    0.9518   -0.1525 C   0  0  0  0  0  0  0  0  0  0  0  0
   -3.5608    1.4893    0.6863 C   0  0  0  0  0  0  0  0  0  0  0  0
   -4.6208    0.6925    1.1386 C   0  0  0  0  0  0  0  0  0  0  0  0
   -5.6746    1.2660    2.0523 C   0  0  0  0  0  0  0  0  0  0  0  0
   -6.8934    0.6770    1.8972 F   0  0  0  0  0  0  0  0  0  0  0  0
   -5.3528    1.1215    3.3669 F   0  0  0  0  0  0  0  0  0  0  0  0
   -5.8807    2.5992    1.8612 F   0  0  0  0  0  0  0  0  0  0  0  0
   -4.6621   -0.6548    0.7546 C   0  0  0  0  0  0  0  0  0  0  0  0
   -3.6633   -1.1922   -0.0651 C   0  0  0  0  0  0  0  0  0  0  0  0
   -2.5913   -0.4046   -0.5200 C   0  0  0  0  0  0  0  0  0  0  0  0
   -1.5488   -1.0102   -1.3659 C   0  0  0  0  0  0  0  0  0  0  0  0
   -2.0060   -1.4067   -2.5773 N   0  0  0  0  0  0  0  0  0  0  0  0
   -1.1050   -1.9534   -3.3964 C   0  0  0  0  0  0  0  0  0  0  0  0
    0.1908   -2.1487   -3.1271 N   0  0  0  0  0  0  0  0  0  0  0  0
    0.6244   -1.7686   -1.9215 C   0  0  0  0  0  0  0  0  0  0  0  0
    1.9613   -1.9736   -1.6156 C   0  0  0  0  0  0  0  0  0  0  0  0
    2.4859   -1.5984   -0.3753 C   0  0  0  0  0  0  0  0  0  0  0  0
    4.1949   -1.9015   -0.0168 S   0  0  0  0  0  6  0  0  0  0  0  0
    4.3528   -2.0631    1.4121 O   0  0  0  0  0  0  0  0  0  0  0  0
    4.6524   -2.9371   -0.9221 O   0  0  0  0  0  0  0  0  0  0  0  0
    4.9216   -0.4889   -0.5568 N   0  0  0  0  0  0  0  0  0  0  0  0
    5.2180    0.4424    0.5018 C   0  0  0  0  0  0  0  0  0  0  0  0
    4.2606    1.0517    1.1549 N   0  0  0  0  0  0  0  0  0  0  0  0
    4.8229    1.9115    2.0788 C   0  0  0  0  0  0  0  0  0  0  0  0
    6.2014    1.9619    2.0837 C   0  0  0  0  0  0  0  0  0  0  0  0
    6.8176    0.8995    0.8850 S   0  0  0  0  0  0  0  0  0  0  0  0
    1.6679   -1.0337    0.5976 C   0  0  0  0  0  0  0  0  0  0  0  0
    0.3230   -0.8227    0.3057 C   0  0  0  0  0  0  0  0  0  0  0  0
   -0.2123   -1.1795   -0.9604 C   0  0  0  0  0  0  0  0  0  0  0  0
   -2.7826    3.0306   -1.6935 H   0  0  0  0  0  0  0  0  0  0  0  0
   -1.0498    3.0606   -2.0617 H   0  0  0  0  0  0  0  0  0  0  0  0
   -2.0162    1.6727   -2.5864 H   0  0  0  0  0  0  0  0  0  0  0  0
   -3.4955    2.5353    0.9820 H   0  0  0  0  0  0  0  0  0  0  0  0
   -5.4735   -1.2976    1.0940 H   0  0  0  0  0  0  0  0  0  0  0  0
   -3.7197   -2.2421   -0.3512 H   0  0  0  0  0  0  0  0  0  0  0  0
   -1.4553   -2.2674   -4.3741 H   0  0  0  0  0  0  0  0  0  0  0  0
    2.6020   -2.4352   -2.3646 H   0  0  0  0  0  0  0  0  0  0  0  0
    5.7019   -0.7034   -1.1717 H   0  0  0  0  0  0  0  0  0  0  0  0
    4.1753    2.4879    2.7288 H   0  0  0  0  0  0  0  0  0  0  0  0
    6.8531    2.5567    2.7074 H   0  0  0  0  0  0  0  0  0  0  0  0
    2.0677   -0.7458    1.5680 H   0  0  0  0  0  0  0  0  0  0  0  0
   -0.3084   -0.3716    1.0684 H   0  0  0  0  0  0  0  0  0  0  0  0
  1  2  1  0
  2  3  1  0
  3  4  2  0
  4  5  1  0
  5  6  1  0
  6  7  1  0
  6  8  1  0
  6  9  1  0
  5 10  2  0
 10 11  1  0
 11 12  2  0
 12 13  1  0
 13 14  2  0
 14 15  1  0
 15 16  2  0
 16 17  1  0
 17 18  2  0
 18 19  1  0
 19 20  1  0
 20 21  2  0
 20 22  2  0
 20 23  1  0
 23 24  1  0
 24 25  2  0
 25 26  1  0
 26 27  2  0
 27 28  1  0
 19 29  2  0
 29 30  1  0
 30 31  2  0
 12  3  1  0
 31 13  1  0
 31 17  1  0
 28 24  1  0
  1 32  1  0
  1 33  1  0
  1 34  1  0
  4 35  1  0
 10 36  1  0
 11 37  1  0
 15 38  1  0
 18 39  1  0
 23 40  1  0
 26 41  1  0
 27 42  1  0
 29 43  1  0
 30 44  1  0
M  END
$$$$
