
     RDKit          3D

 57 61  0  0  0  0  0  0  0  0999 V2000
   -6.2509   -1.9954   -1.1743 O   0  0  0  0  0  0  0  0  0  0  0  0
   -6.7091   -1.0847   -0.5087 C   0  0  0  0  0  0  0  0  0  0  0  0
   -7.9767   -0.5446   -0.6646 N   0  0  0  0  0  0  0  0  0  0  0  0
   -8.2591    0.4041    0.3777 C   0  0  0  0  0  0  0  0  0  0  0  0
   -6.8779    0.7511    0.9191 C   0  0  0  0  0  0  0  0  0  0  0  0
   -6.0807   -0.3885    0.5200 N   0  0  0  0  0  0  0  0  0  0  0  0
   -4.6565   -0.4904    0.7889 C   0  0  0  0  0  0  0  0  0  0  0  0
   -3.7996    0.2614   -0.2490 C   0  0  0  0  0  0  0  0  0  0  0  0
   -2.3672    0.3342    0.0987 N   0  0  0  0  0  0  0  0  0  0  0  0
   -1.6906    1.3332   -0.7504 C   0  0  0  0  0  0  0  0  0  0  0  0
   -0.1744    1.1301   -0.8696 C   0  0  0  0  0  0  0  0  0  0  0  0
    0.3921    0.4773    0.3938 C   0  0  0  0  0  0  0  0  0  0  0  0
    1.8947    0.3452    0.3648 C   0  0  0  0  0  0  0  0  0  0  0  0
    2.6602   -0.1819   -0.6558 C   0  0  0  0  0  0  0  0  0  0  0  0
    4.0020   -0.0804   -0.3421 N   0  0  0  0  0  0  0  0  0  0  0  0
    5.0611   -0.4181   -1.2410 C   0  0  0  0  0  0  0  0  0  0  0  0
    4.8612   -1.4075   -2.2189 C   0  0  0  0  0  0  0  0  0  0  0  0
    5.8880   -1.7348   -3.1085 C   0  0  0  0  0  0  0  0  0  0  0  0
    7.1032   -1.0674   -3.0314 C   0  0  0  0  0  0  0  0  0  0  0  0
    8.0844   -1.3801   -3.8875 F   0  0  0  0  0  0  0  0  0  0  0  0
    7.3112   -0.0729   -2.0847 C   0  0  0  0  0  0  0  0  0  0  0  0
    6.2893    0.2569   -1.1898 C   0  0  0  0  0  0  0  0  0  0  0  0
    4.1044    0.4084    0.9633 C   0  0  0  0  0  0  0  0  0  0  0  0
    5.2086    0.5616    1.8288 C   0  0  0  0  0  0  0  0  0  0  0  0
    5.0032    1.0978    3.1039 C   0  0  0  0  0  0  0  0  0  0  0  0
    3.7292    1.4527    3.5218 C   0  0  0  0  0  0  0  0  0  0  0  0
    3.5014    2.1111    5.0967 Cl  0  0  0  0  0  0  0  0  0  0  0  0
    2.6257    1.2608    2.6909 C   0  0  0  0  0  0  0  0  0  0  0  0
    2.8062    0.7143    1.4001 C   0  0  0  0  0  0  0  0  0  0  0  0
   -0.2981   -0.8754    0.6489 C   0  0  0  0  0  0  0  0  0  0  0  0
   -1.6942   -0.9641    0.0195 C   0  0  0  0  0  0  0  0  0  0  0  0
   -8.6562   -1.0289   -1.2354 H   0  0  0  0  0  0  0  0  0  0  0  0
   -8.8721   -0.0992    1.1325 H   0  0  0  0  0  0  0  0  0  0  0  0
   -8.7978    1.2668   -0.0214 H   0  0  0  0  0  0  0  0  0  0  0  0
   -6.4781    1.6460    0.4310 H   0  0  0  0  0  0  0  0  0  0  0  0
   -6.8644    0.8782    2.0044 H   0  0  0  0  0  0  0  0  0  0  0  0
   -4.4064   -1.5562    0.7769 H   0  0  0  0  0  0  0  0  0  0  0  0
   -4.4763   -0.1101    1.8002 H   0  0  0  0  0  0  0  0  0  0  0  0
   -4.1916    1.2849   -0.3164 H   0  0  0  0  0  0  0  0  0  0  0  0
   -3.9350   -0.1868   -1.2421 H   0  0  0  0  0  0  0  0  0  0  0  0
   -2.1049    1.3411   -1.7673 H   0  0  0  0  0  0  0  0  0  0  0  0
   -1.8837    2.3241   -0.3215 H   0  0  0  0  0  0  0  0  0  0  0  0
    0.0343    0.4980   -1.7432 H   0  0  0  0  0  0  0  0  0  0  0  0
    0.3103    2.0953   -1.0612 H   0  0  0  0  0  0  0  0  0  0  0  0
    0.1324    1.1411    1.2306 H   0  0  0  0  0  0  0  0  0  0  0  0
    2.3426   -0.5584   -1.6183 H   0  0  0  0  0  0  0  0  0  0  0  0
    3.9304   -1.9650   -2.2855 H   0  0  0  0  0  0  0  0  0  0  0  0
    5.7476   -2.5084   -3.8568 H   0  0  0  0  0  0  0  0  0  0  0  0
    8.2617    0.4507   -2.0578 H   0  0  0  0  0  0  0  0  0  0  0  0
    6.4601    1.0822   -0.5050 H   0  0  0  0  0  0  0  0  0  0  0  0
    6.2082    0.2516    1.5413 H   0  0  0  0  0  0  0  0  0  0  0  0
    5.8525    1.2245    3.7706 H   0  0  0  0  0  0  0  0  0  0  0  0
    1.6294    1.5124    3.0424 H   0  0  0  0  0  0  0  0  0  0  0  0
   -0.3720   -1.0263    1.7344 H   0  0  0  0  0  0  0  0  0  0  0  0
    0.3024   -1.7115    0.2684 H   0  0  0  0  0  0  0  0  0  0  0  0
   -1.6218   -1.3011   -1.0229 H   0  0  0  0  0  0  0  0  0  0  0  0
   -2.2430   -1.7407    0.5621 H   0  0  0  0  0  0  0  0  0  0  0  0
  1  2  2  0
  2  3  1  0
  3  4  1  0
  4  5  1  0
  5  6  1  0
  6  7  1  0
  7  8  1  0
  8  9  1  0
  9 10  1  0
 10 11  1  0
 11 12  1  0
 12 13  1  0
 13 14  2  0
 14 15  1  0
 15 16  1  0
 16 17  2  0
 17 18  1  0
 18 19  2  0
 19 20  1  0
 19 21  1  0
 21 22  2  0
 15 23  1  0
 23 24  2  0
 24 25  1  0
 25 26  2  0
 26 27  1  0
 26 28  1  0
 28 29  2  0
 12 30  1  0
 30 31  1  0
  6  2  1  0
 31  9  1  0
 29 13  1  0
 22 16  1  0
 29 23  1  0
  3 32  1  0
  4 33  1  0
  4 34  1  0
  5 35  1  0
  5 36  1  0
  7 37  1  0
  7 38  1  0
  8 39  1  0
  8 40  1  0
 10 41  1  0
 10 42  1  0
 11 43  1  0
 11 44  1  0
 12 45  1  0
 14 46  1  0
 17 47  1  0
 18 48  1  0
 21 49  1  0
 22 50  1  0
 24 51  1  0
 25 52  1  0
 28 53  1  0
 30 54  1  0
 30 55  1  0
 31 56  1  0
 31 57  1  0
M  END
$$$$
