
     RDKit          3D

 46 47  0  0  0  0  0  0  0  0999 V2000
   -4.4359   -1.4329    2.9310 C   0  0  0  0  0  0  0  0  0  0  0  0
   -4.3799   -0.5506    1.7456 C   0  0  0  0  0  0  0  0  0  0  0  0
   -3.1237   -0.3278    1.1520 C   0  0  0  0  0  0  0  0  0  0  0  0
   -2.9692    0.4729    0.0517 C   0  0  0  0  0  0  0  0  0  0  0  0
   -1.7396    0.7353   -0.5885 N   0  0  0  0  0  0  0  0  0  0  0  0
   -0.4803    0.2181   -0.1985 C   0  0  0  0  0  0  0  0  0  0  0  0
   -0.3912   -0.5312    0.7774 O   0  0  0  0  0  0  0  0  0  0  0  0
    0.7227    0.5510   -0.9261 N   0  0  0  0  0  0  0  0  0  0  0  0
    2.0090    0.1072   -0.6358 C   0  0  0  0  0  0  0  0  0  0  0  0
    3.0249    0.4470   -1.5283 C   0  0  0  0  0  0  0  0  0  0  0  0
    4.3288    0.0575   -1.3187 C   0  0  0  0  0  0  0  0  0  0  0  0
    4.6812   -0.6836   -0.2183 C   0  0  0  0  0  0  0  0  0  0  0  0
    6.0370   -1.0918    0.0049 N   0  0  0  0  0  0  0  0  0  0  0  0
    6.3425   -1.8747    1.1881 C   0  0  0  0  0  0  0  0  0  0  0  0
    7.1047   -0.7591   -0.8921 C   0  0  0  0  0  0  0  0  0  0  0  0
    3.6913   -1.0227    0.6646 C   0  0  0  0  0  0  0  0  0  0  0  0
    2.3537   -0.6210    0.4463 C   0  0  0  0  0  0  0  0  0  0  0  0
   -4.1465    1.0548   -0.4424 C   0  0  0  0  0  0  0  0  0  0  0  0
   -4.0978    1.8706   -1.5380 C   0  0  0  0  0  0  0  0  0  0  0  0
   -5.2859    2.4450   -2.0197 C   0  0  0  0  0  0  0  0  0  0  0  0
   -5.1847    3.2445   -3.1063 F   0  0  0  0  0  0  0  0  0  0  0  0
   -6.4588    2.1783   -1.3875 C   0  0  0  0  0  0  0  0  0  0  0  0
   -6.5467    1.3619   -0.2818 C   0  0  0  0  0  0  0  0  0  0  0  0
   -7.7556    1.1577    0.2760 F   0  0  0  0  0  0  0  0  0  0  0  0
   -5.3737    0.8097    0.1740 C   0  0  0  0  0  0  0  0  0  0  0  0
   -5.4744    0.0192    1.2481 N   0  0  0  0  0  0  0  0  0  0  0  0
    0.6875    0.0000    0.0000 Cl  0  0  0  0  0  0  0  0  0  0  0  0
   -5.3408   -1.2606    3.5389 H   0  0  0  0  0  0  0  0  0  0  0  0
   -4.4071   -2.4967    2.5829 H   0  0  0  0  0  0  0  0  0  0  0  0
   -3.4896   -1.2904    3.5187 H   0  0  0  0  0  0  0  0  0  0  0  0
   -2.2644   -0.8076    1.5856 H   0  0  0  0  0  0  0  0  0  0  0  0
   -1.6948    1.3698   -1.4431 H   0  0  0  0  0  0  0  0  0  0  0  0
    0.5430    1.2087   -1.7601 H   0  0  0  0  0  0  0  0  0  0  0  0
    2.8078    1.0325   -2.4180 H   0  0  0  0  0  0  0  0  0  0  0  0
    5.0767    0.3461   -2.0390 H   0  0  0  0  0  0  0  0  0  0  0  0
    6.0608   -1.2426    2.0672 H   0  0  0  0  0  0  0  0  0  0  0  0
    5.6255   -2.7208    1.1933 H   0  0  0  0  0  0  0  0  0  0  0  0
    7.3829   -2.2018    1.1962 H   0  0  0  0  0  0  0  0  0  0  0  0
    7.9711   -1.4103   -0.7223 H   0  0  0  0  0  0  0  0  0  0  0  0
    7.4319    0.2960   -0.7282 H   0  0  0  0  0  0  0  0  0  0  0  0
    6.7907   -0.8513   -1.9692 H   0  0  0  0  0  0  0  0  0  0  0  0
    3.9463   -1.6097    1.5442 H   0  0  0  0  0  0  0  0  0  0  0  0
    1.6716   -0.9353    1.1957 H   0  0  0  0  0  0  0  0  0  0  0  0
   -3.1966    2.1037   -2.0612 H   0  0  0  0  0  0  0  0  0  0  0  0
   -7.3667    2.6347   -1.7789 H   0  0  0  0  0  0  0  0  0  0  0  0
   -0.6875    0.0000    0.0000 H   0  0  0  0  0  0  0  0  0  0  0  0
  1  2  1  0
  2  3  2  0
  3  4  1  0
  4  5  1  0
  5  6  1  0
  6  7  2  0
  6  8  1  0
  8  9  1  0
  9 10  2  0
 10 11  1  0
 11 12  2  0
 12 13  1  0
 13 14  1  0
 13 15  1  0
 12 16  1  0
 16 17  2  0
  4 18  2  0
 18 19  1  0
 19 20  2  0
 20 21  1  0
 20 22  1  0
 22 23  2  0
 23 24  1  0
 23 25  1  0
 25 26  2  0
 26  2  1  0
 17  9  1  0
 25 18  1  0
  1 28  1  0
  1 29  1  0
  1 30  1  0
  3 31  1  0
  5 32  1  0
  8 33  1  0
 10 34  1  0
 11 35  1  0
 14 36  1  0
 14 37  1  0
 14 38  1  0
 15 39  1  0
 15 40  1  0
 15 41  1  0
 16 42  1  0
 17 43  1  0
 19 44  1  0
 22 45  1  0
 27 46  1  0
M  END
$$$$
