
     RDKit          3D

 43 46  0  0  0  0  0  0  0  0999 V2000
   -0.4840    1.4864    0.3776 O   0  0  0  0  0  0  0  0  0  0  0  0
   -0.1539    0.3413    0.1076 C   0  0  0  0  0  0  0  0  0  0  0  0
    1.1399   -0.1222    0.0141 N   0  0  0  0  0  0  0  0  0  0  0  0
    2.3560    0.5777    0.1941 C   0  0  0  0  0  0  0  0  0  0  0  0
    2.4184    1.9377    0.5140 C   0  0  0  0  0  0  0  0  0  0  0  0
    3.6525    2.5630    0.6767 C   0  0  0  0  0  0  0  0  0  0  0  0
    4.8265    1.8326    0.5203 C   0  0  0  0  0  0  0  0  0  0  0  0
    4.7730    0.4673    0.1989 C   0  0  0  0  0  0  0  0  0  0  0  0
    5.9421   -0.2878    0.0363 C   0  0  0  0  0  0  0  0  0  0  0  0
    5.8576   -1.6370   -0.2818 C   0  0  0  0  0  0  0  0  0  0  0  0
    4.6011   -2.1903   -0.4280 C   0  0  0  0  0  0  0  0  0  0  0  0
    3.4501   -1.4979   -0.2801 N   0  0  0  0  0  0  0  0  0  0  0  0
    3.5290   -0.1797    0.0309 C   0  0  0  0  0  0  0  0  0  0  0  0
   -1.1539   -0.7695   -0.1707 C   0  0  0  0  0  0  0  0  0  0  0  0
   -2.4782   -0.5236   -0.1258 C   0  0  0  0  0  0  0  0  0  0  0  0
   -3.1940    0.7317    0.1184 C   0  0  0  0  0  0  0  0  0  0  0  0
   -3.5695    1.5508   -0.9560 C   0  0  0  0  0  0  0  0  0  0  0  0
   -4.2486    2.7489   -0.7265 C   0  0  0  0  0  0  0  0  0  0  0  0
   -4.5525    3.1407    0.5760 C   0  0  0  0  0  0  0  0  0  0  0  0
   -4.1768    2.3373    1.6512 C   0  0  0  0  0  0  0  0  0  0  0  0
   -3.4976    1.1384    1.4253 C   0  0  0  0  0  0  0  0  0  0  0  0
   -3.6244   -1.7902   -0.3872 S   0  0  0  0  0  6  0  0  0  0  0  0
   -4.1385   -1.7019   -1.7437 O   0  0  0  0  0  0  0  0  0  0  0  0
   -4.5381   -1.8967    0.7369 O   0  0  0  0  0  0  0  0  0  0  0  0
   -2.6260   -3.2433   -0.3321 C   0  0  0  0  0  0  0  0  0  0  0  0
   -1.3855   -2.9605   -1.1266 C   0  0  0  0  0  0  0  0  0  0  0  0
   -0.5758   -2.0039   -0.4481 O   0  0  0  0  0  0  0  0  0  0  0  0
    1.2705   -1.1075   -0.2150 H   0  0  0  0  0  0  0  0  0  0  0  0
    1.5207    2.5346    0.6423 H   0  0  0  0  0  0  0  0  0  0  0  0
    3.6940    3.6207    0.9254 H   0  0  0  0  0  0  0  0  0  0  0  0
    5.7825    2.3348    0.6504 H   0  0  0  0  0  0  0  0  0  0  0  0
    6.9204    0.1709    0.1566 H   0  0  0  0  0  0  0  0  0  0  0  0
    6.7494   -2.2395   -0.4120 H   0  0  0  0  0  0  0  0  0  0  0  0
    4.4801   -3.2410   -0.6765 H   0  0  0  0  0  0  0  0  0  0  0  0
   -3.3411    1.2623   -1.9799 H   0  0  0  0  0  0  0  0  0  0  0  0
   -4.5383    3.3771   -1.5646 H   0  0  0  0  0  0  0  0  0  0  0  0
   -5.0793    4.0745    0.7537 H   0  0  0  0  0  0  0  0  0  0  0  0
   -4.4099    2.6448    2.6671 H   0  0  0  0  0  0  0  0  0  0  0  0
   -3.2115    0.5261    2.2772 H   0  0  0  0  0  0  0  0  0  0  0  0
   -2.3980   -3.4538    0.7177 H   0  0  0  0  0  0  0  0  0  0  0  0
   -3.2063   -4.0679   -0.7544 H   0  0  0  0  0  0  0  0  0  0  0  0
   -0.7899   -3.8751   -1.2147 H   0  0  0  0  0  0  0  0  0  0  0  0
   -1.5923   -2.6101   -2.1451 H   0  0  0  0  0  0  0  0  0  0  0  0
  1  2  2  0
  2  3  1  0
  3  4  1  0
  4  5  2  0
  5  6  1  0
  6  7  2  0
  7  8  1  0
  8  9  2  0
  9 10  1  0
 10 11  2  0
 11 12  1  0
 12 13  2  0
  2 14  1  0
 14 15  2  0
 15 16  1  0
 16 17  2  0
 17 18  1  0
 18 19  2  0
 19 20  1  0
 20 21  2  0
 15 22  1  0
 22 23  2  0
 22 24  2  0
 22 25  1  0
 25 26  1  0
 26 27  1  0
 13  4  1  0
 27 14  1  0
 13  8  1  0
 21 16  1  0
  3 28  1  0
  5 29  1  0
  6 30  1  0
  7 31  1  0
  9 32  1  0
 10 33  1  0
 11 34  1  0
 17 35  1  0
 18 36  1  0
 19 37  1  0
 20 38  1  0
 21 39  1  0
 25 40  1  0
 25 41  1  0
 26 42  1  0
 26 43  1  0
M  END
$$$$
