
     RDKit          3D

 60 64  0  0  0  0  0  0  0  0999 V2000
    9.0703    0.0781   -2.3390 C   0  0  0  0  0  0  0  0  0  0  0  0
    7.6600   -0.0496   -1.7814 C   0  0  0  0  0  0  0  0  0  0  0  0
    7.6204    0.0458   -0.2699 C   0  0  0  0  0  0  0  0  0  0  0  0
    8.6678    0.1734    0.3739 O   0  0  0  0  0  0  0  0  0  0  0  0
    6.4017   -0.0077    0.3795 N   0  0  0  0  0  0  0  0  0  0  0  0
    6.3818    0.0914    1.8466 C   0  0  0  0  0  0  0  0  0  0  0  0
    4.9231    0.0756    2.2990 C   0  0  0  0  0  0  0  0  0  0  0  0
    4.2018   -0.1276    1.0053 C   0  0  0  0  0  0  0  0  0  0  0  0
    2.8228   -0.2553    0.8477 C   0  0  0  0  0  0  0  0  0  0  0  0
    2.2824   -0.4310   -0.4338 C   0  0  0  0  0  0  0  0  0  0  0  0
    0.8773   -0.5548   -0.6173 N   0  0  0  0  0  0  0  0  0  0  0  0
   -0.0644   -0.4412    0.4733 C   0  0  0  0  0  0  0  0  0  0  0  0
   -1.4153   -0.2390   -0.2021 C   0  0  0  0  0  0  0  0  0  0  0  0
   -2.5578   -0.7472    0.6592 C   0  0  0  0  0  0  0  0  0  0  0  0
   -2.3243   -1.3393    1.7140 O   0  0  0  0  0  0  0  0  0  0  0  0
   -3.8568   -0.5272    0.2211 N   0  0  0  0  0  0  0  0  0  0  0  0
   -4.2619    0.2727   -0.9373 C   0  0  0  0  0  0  0  0  0  0  0  0
   -5.2200    1.3823   -0.5194 C   0  0  0  0  0  0  0  0  0  0  0  0
   -6.4081    0.8230    0.2639 C   0  0  0  0  0  0  0  0  0  0  0  0
   -5.9346   -0.0301    1.4410 C   0  0  0  0  0  0  0  0  0  0  0  0
   -4.9702   -1.1111    0.9721 C   0  0  0  0  0  0  0  0  0  0  0  0
   -7.2206    0.0293   -0.6205 O   0  0  0  0  0  0  0  0  0  0  0  0
   -8.5568    0.4769   -0.3909 C   0  0  0  0  0  0  0  0  0  0  0  0
   -8.3766    1.9233   -0.0249 C   0  0  0  0  0  0  0  0  0  0  0  0
   -7.1932    1.9157    0.7730 O   0  0  0  0  0  0  0  0  0  0  0  0
   -1.2579   -1.0250   -1.4947 C   0  0  0  0  0  0  0  0  0  0  0  0
    0.2187   -0.9340   -1.7927 C   0  0  0  0  0  0  0  0  0  0  0  0
    0.6805   -1.1921   -2.8935 O   0  0  0  0  0  0  0  0  0  0  0  0
    3.1772   -0.4704   -1.5176 C   0  0  0  0  0  0  0  0  0  0  0  0
    4.5682   -0.3384   -1.3480 C   0  0  0  0  0  0  0  0  0  0  0  0
    5.0801   -0.1643   -0.0779 C   0  0  0  0  0  0  0  0  0  0  0  0
    9.7248   -0.7039   -1.9413 H   0  0  0  0  0  0  0  0  0  0  0  0
    9.5087    1.0478   -2.0807 H   0  0  0  0  0  0  0  0  0  0  0  0
    9.0568   -0.0116   -3.4296 H   0  0  0  0  0  0  0  0  0  0  0  0
    7.0533    0.7577   -2.2017 H   0  0  0  0  0  0  0  0  0  0  0  0
    7.2615   -1.0238   -2.0811 H   0  0  0  0  0  0  0  0  0  0  0  0
    6.8908    1.0112    2.1586 H   0  0  0  0  0  0  0  0  0  0  0  0
    6.9379   -0.7580    2.2623 H   0  0  0  0  0  0  0  0  0  0  0  0
    4.7328   -0.7412    3.0015 H   0  0  0  0  0  0  0  0  0  0  0  0
    4.6420    1.0289    2.7574 H   0  0  0  0  0  0  0  0  0  0  0  0
    2.2007   -0.2276    1.7359 H   0  0  0  0  0  0  0  0  0  0  0  0
   -0.0037   -1.3608    1.0667 H   0  0  0  0  0  0  0  0  0  0  0  0
    0.1652    0.4214    1.1079 H   0  0  0  0  0  0  0  0  0  0  0  0
   -1.5430    0.8315   -0.4020 H   0  0  0  0  0  0  0  0  0  0  0  0
   -3.4064    0.7262   -1.4376 H   0  0  0  0  0  0  0  0  0  0  0  0
   -4.7375   -0.4065   -1.6547 H   0  0  0  0  0  0  0  0  0  0  0  0
   -5.5690    1.9139   -1.4127 H   0  0  0  0  0  0  0  0  0  0  0  0
   -4.6893    2.1194    0.0971 H   0  0  0  0  0  0  0  0  0  0  0  0
   -5.4464    0.6095    2.1881 H   0  0  0  0  0  0  0  0  0  0  0  0
   -6.7909   -0.4983    1.9408 H   0  0  0  0  0  0  0  0  0  0  0  0
   -5.4750   -1.8215    0.3070 H   0  0  0  0  0  0  0  0  0  0  0  0
   -4.6151   -1.6830    1.8347 H   0  0  0  0  0  0  0  0  0  0  0  0
   -9.1735    0.3266   -1.2805 H   0  0  0  0  0  0  0  0  0  0  0  0
   -8.9722   -0.1015    0.4410 H   0  0  0  0  0  0  0  0  0  0  0  0
   -9.2189    2.3382    0.5340 H   0  0  0  0  0  0  0  0  0  0  0  0
   -8.1873    2.5419   -0.9086 H   0  0  0  0  0  0  0  0  0  0  0  0
   -1.5373   -2.0782   -1.3850 H   0  0  0  0  0  0  0  0  0  0  0  0
   -1.8243   -0.5827   -2.3183 H   0  0  0  0  0  0  0  0  0  0  0  0
    2.8208   -0.5944   -2.5366 H   0  0  0  0  0  0  0  0  0  0  0  0
    5.1790   -0.3834   -2.2377 H   0  0  0  0  0  0  0  0  0  0  0  0
  1  2  1  0
  2  3  1  0
  3  4  2  0
  3  5  1  0
  5  6  1  0
  6  7  1  0
  7  8  1  0
  8  9  2  0
  9 10  1  0
 10 11  1  0
 11 12  1  0
 12 13  1  0
 13 14  1  0
 14 15  2  0
 14 16  1  0
 16 17  1  0
 17 18  1  0
 18 19  1  0
 19 20  1  0
 20 21  1  0
 19 22  1  0
 22 23  1  0
 23 24  1  0
 24 25  1  0
 13 26  1  0
 26 27  1  0
 27 28  2  0
 10 29  2  0
 29 30  1  0
 30 31  2  0
 31  5  1  0
 31  8  1  0
 27 11  1  0
 21 16  1  0
 25 19  1  0
  1 32  1  0
  1 33  1  0
  1 34  1  0
  2 35  1  0
  2 36  1  0
  6 37  1  0
  6 38  1  0
  7 39  1  0
  7 40  1  0
  9 41  1  0
 12 42  1  0
 12 43  1  0
 13 44  1  0
 17 45  1  0
 17 46  1  0
 18 47  1  0
 18 48  1  0
 20 49  1  0
 20 50  1  0
 21 51  1  0
 21 52  1  0
 23 53  1  0
 23 54  1  0
 24 55  1  0
 24 56  1  0
 26 57  1  0
 26 58  1  0
 29 59  1  0
 30 60  1  0
M  END
$$$$
