
     RDKit          3D

 51 53  0  0  0  0  0  0  0  0999 V2000
    2.3734   -2.3489    1.7092 C   0  0  0  0  0  0  0  0  0  0  0  0
    1.9004   -1.2394    0.9862 O   0  0  0  0  0  0  0  0  0  0  0  0
    2.7584   -0.3030    0.4419 C   0  0  0  0  0  0  0  0  0  0  0  0
    4.1321   -0.5103    0.6444 C   0  0  0  0  0  0  0  0  0  0  0  0
    5.0141    0.3917    0.1231 C   0  0  0  0  0  0  0  0  0  0  0  0
    6.4616    0.2125    0.3119 C   0  0  0  0  0  0  0  0  0  0  0  0
    7.4176    1.1962    0.4113 C   0  0  0  0  0  0  0  0  0  0  0  0
    8.5910    0.5580    0.5757 N   0  0  0  0  0  0  0  0  0  0  0  0
    8.4382   -0.7526    0.5864 N   0  0  0  0  0  0  0  0  0  0  0  0
    7.1272   -0.9869    0.4244 C   0  0  0  0  0  0  0  0  0  0  0  0
    4.5654    1.4822   -0.5866 C   0  0  0  0  0  0  0  0  0  0  0  0
    3.2320    1.6823   -0.7825 C   0  0  0  0  0  0  0  0  0  0  0  0
    2.2862    0.7646   -0.2547 C   0  0  0  0  0  0  0  0  0  0  0  0
    0.8778    1.0361   -0.4998 C   0  0  0  0  0  0  0  0  0  0  0  0
    0.5756    2.0853   -1.1751 O   0  0  0  0  0  0  0  0  0  0  0  0
   -0.1719    0.2410   -0.0554 N   0  0  0  0  0  0  0  0  0  0  0  0
   -1.5592    0.5092   -0.2852 C   0  0  0  0  0  0  0  0  0  0  0  0
   -2.0532    1.7101   -0.6173 C   0  0  0  0  0  0  0  0  0  0  0  0
   -3.4187    1.9344   -0.8604 C   0  0  0  0  0  0  0  0  0  0  0  0
   -4.2884    0.8754   -0.7525 C   0  0  0  0  0  0  0  0  0  0  0  0
   -3.7887   -0.3664   -0.4099 C   0  0  0  0  0  0  0  0  0  0  0  0
   -2.4382   -0.5681   -0.1742 C   0  0  0  0  0  0  0  0  0  0  0  0
   -4.5767   -1.6195   -0.2464 C   0  0  0  0  0  0  0  0  0  0  0  0
   -5.8962   -1.4694   -0.9730 C   0  0  0  0  0  0  0  0  0  0  0  0
   -6.8136   -0.7799   -0.1178 N   0  0  0  0  0  0  0  0  0  0  0  0
   -6.6656    0.6354   -0.0710 C   0  0  0  0  0  0  0  0  0  0  0  0
   -5.6893    1.2252   -1.0284 C   0  0  0  0  0  0  0  0  0  0  0  0
    0.6839    0.0000    0.0000 Cl  0  0  0  0  0  0  0  0  0  0  0  0
    1.4900   -2.9329    2.0309 H   0  0  0  0  0  0  0  0  0  0  0  0
    2.9243   -1.9419    2.6015 H   0  0  0  0  0  0  0  0  0  0  0  0
    3.1038   -2.9549    1.1528 H   0  0  0  0  0  0  0  0  0  0  0  0
    4.4329   -1.3744    1.2038 H   0  0  0  0  0  0  0  0  0  0  0  0
    7.2493    2.2651    0.3653 H   0  0  0  0  0  0  0  0  0  0  0  0
    9.2253   -1.4369    0.7025 H   0  0  0  0  0  0  0  0  0  0  0  0
    6.6522   -1.9506    0.3858 H   0  0  0  0  0  0  0  0  0  0  0  0
    5.3027    2.1960   -0.9970 H   0  0  0  0  0  0  0  0  0  0  0  0
    2.8875    2.5277   -1.3325 H   0  0  0  0  0  0  0  0  0  0  0  0
    0.0387   -0.6465    0.5066 H   0  0  0  0  0  0  0  0  0  0  0  0
   -1.4428    2.5824   -0.7036 H   0  0  0  0  0  0  0  0  0  0  0  0
   -3.7624    2.9187   -1.1246 H   0  0  0  0  0  0  0  0  0  0  0  0
   -2.0815   -1.5556    0.0923 H   0  0  0  0  0  0  0  0  0  0  0  0
   -4.8133   -1.7409    0.8501 H   0  0  0  0  0  0  0  0  0  0  0  0
   -4.0132   -2.5196   -0.5714 H   0  0  0  0  0  0  0  0  0  0  0  0
   -5.7497   -0.9867   -1.9636 H   0  0  0  0  0  0  0  0  0  0  0  0
   -6.2630   -2.5042   -1.1784 H   0  0  0  0  0  0  0  0  0  0  0  0
   -7.7846   -1.0044   -0.4306 H   0  0  0  0  0  0  0  0  0  0  0  0
   -6.3642    0.9320    0.9690 H   0  0  0  0  0  0  0  0  0  0  0  0
   -7.6511    1.1549   -0.2401 H   0  0  0  0  0  0  0  0  0  0  0  0
   -6.0089    1.0314   -2.0681 H   0  0  0  0  0  0  0  0  0  0  0  0
   -5.7634    2.3461   -0.9066 H   0  0  0  0  0  0  0  0  0  0  0  0
   -0.6839    0.0000    0.0000 H   0  0  0  0  0  0  0  0  0  0  0  0
  1  2  1  0
  2  3  1  0
  3  4  2  0
  4  5  1  0
  5  6  1  0
  6  7  1  0
  7  8  2  0
  8  9  1  0
  9 10  1  0
  5 11  2  0
 11 12  1  0
 12 13  2  0
 13 14  1  0
 14 15  2  0
 14 16  1  0
 16 17  1  0
 17 18  2  0
 18 19  1  0
 19 20  2  0
 20 21  1  0
 21 22  2  0
 21 23  1  0
 23 24  1  0
 24 25  1  0
 25 26  1  0
 26 27  1  0
 13  3  1  0
 22 17  1  0
 10  6  2  0
 27 20  1  0
  1 29  1  0
  1 30  1  0
  1 31  1  0
  4 32  1  0
  7 33  1  0
  9 34  1  0
 10 35  1  0
 11 36  1  0
 12 37  1  0
 16 38  1  0
 18 39  1  0
 19 40  1  0
 22 41  1  0
 23 42  1  0
 23 43  1  0
 24 44  1  0
 24 45  1  0
 25 46  1  0
 26 47  1  0
 26 48  1  0
 27 49  1  0
 27 50  1  0
 28 51  1  0
M  END
$$$$
