
     RDKit          3D

 46 49  0  0  0  0  0  0  0  0999 V2000
    3.0830    1.8205    1.7958 O   0  0  0  0  0  0  0  0  0  0  0  0
    2.6413    0.7248    1.4558 C   0  0  0  0  0  0  0  0  0  0  0  0
    3.4111   -0.4261    1.5076 N   0  0  0  0  0  0  0  0  0  0  0  0
    4.8180   -0.3703    1.8324 C   0  0  0  0  0  0  0  0  0  0  0  0
    5.6549   -0.3984    0.5808 C   0  0  0  0  0  0  0  0  0  0  0  0
    6.1160   -1.6141    0.0533 C   0  0  0  0  0  0  0  0  0  0  0  0
    6.8688   -1.6344   -1.1223 C   0  0  0  0  0  0  0  0  0  0  0  0
    7.1648   -0.4410   -1.7824 C   0  0  0  0  0  0  0  0  0  0  0  0
    6.7035    0.7719   -1.2727 C   0  0  0  0  0  0  0  0  0  0  0  0
    5.9460    0.7924   -0.0997 C   0  0  0  0  0  0  0  0  0  0  0  0
    1.2604    0.5239    0.9618 C   0  0  0  0  0  0  0  0  0  0  0  0
    0.5589   -0.7031    0.7505 C   0  0  0  0  0  0  0  0  0  0  0  0
   -0.7006   -0.3511    0.3184 C   0  0  0  0  0  0  0  0  0  0  0  0
   -0.6907    1.0083    0.2797 N   0  0  0  0  0  0  0  0  0  0  0  0
    0.4634    1.5680    0.6545 N   0  0  0  0  0  0  0  0  0  0  0  0
   -1.8283    1.8159   -0.0970 C   0  0  0  0  0  0  0  0  0  0  0  0
   -3.0995    1.0579    0.2575 C   0  0  0  0  0  0  0  0  0  0  0  0
   -3.0875   -0.3177   -0.2687 N   0  0  0  0  0  0  0  0  0  0  0  0
   -4.2108   -0.9953   -0.7413 C   0  0  0  0  0  0  0  0  0  0  0  0
   -4.1705   -2.1380   -1.1899 O   0  0  0  0  0  0  0  0  0  0  0  0
   -5.5241   -0.3266   -0.7102 C   0  0  0  0  0  0  0  0  0  0  0  0
   -6.1252   -0.0179    0.5084 C   0  0  0  0  0  0  0  0  0  0  0  0
   -7.3729    0.5724    0.4668 C   0  0  0  0  0  0  0  0  0  0  0  0
   -8.0291    0.8549   -0.6801 N   0  0  0  0  0  0  0  0  0  0  0  0
   -7.4269    0.5144   -1.8416 C   0  0  0  0  0  0  0  0  0  0  0  0
   -6.1855   -0.0858   -1.9108 C   0  0  0  0  0  0  0  0  0  0  0  0
   -1.8999   -1.1478   -0.0397 C   0  0  0  0  0  0  0  0  0  0  0  0
    3.0979   -1.2294    0.9851 H   0  0  0  0  0  0  0  0  0  0  0  0
    5.0412   -1.2452    2.4536 H   0  0  0  0  0  0  0  0  0  0  0  0
    5.0496    0.5163    2.4327 H   0  0  0  0  0  0  0  0  0  0  0  0
    5.8981   -2.5506    0.5606 H   0  0  0  0  0  0  0  0  0  0  0  0
    7.2267   -2.5794   -1.5230 H   0  0  0  0  0  0  0  0  0  0  0  0
    7.7536   -0.4552   -2.6961 H   0  0  0  0  0  0  0  0  0  0  0  0
    6.9283    1.7019   -1.7885 H   0  0  0  0  0  0  0  0  0  0  0  0
    5.5804    1.7449    0.2836 H   0  0  0  0  0  0  0  0  0  0  0  0
    0.9143   -1.7091    0.9183 H   0  0  0  0  0  0  0  0  0  0  0  0
   -1.7775    2.7748    0.4279 H   0  0  0  0  0  0  0  0  0  0  0  0
   -1.7528    1.9833   -1.1773 H   0  0  0  0  0  0  0  0  0  0  0  0
   -3.2155    0.9803    1.3457 H   0  0  0  0  0  0  0  0  0  0  0  0
   -3.9568    1.6143   -0.1324 H   0  0  0  0  0  0  0  0  0  0  0  0
   -5.6456   -0.2386    1.4546 H   0  0  0  0  0  0  0  0  0  0  0  0
   -7.9017    0.8351    1.3792 H   0  0  0  0  0  0  0  0  0  0  0  0
   -7.9942    0.7417   -2.7408 H   0  0  0  0  0  0  0  0  0  0  0  0
   -5.7473   -0.3578   -2.8639 H   0  0  0  0  0  0  0  0  0  0  0  0
   -1.7006   -1.7394   -0.9428 H   0  0  0  0  0  0  0  0  0  0  0  0
   -2.1369   -1.8455    0.7742 H   0  0  0  0  0  0  0  0  0  0  0  0
  1  2  2  0
  2  3  1  0
  3  4  1  0
  4  5  1  0
  5  6  2  0
  6  7  1  0
  7  8  2  0
  8  9  1  0
  9 10  2  0
  2 11  1  0
 11 12  1  0
 12 13  2  0
 13 14  1  0
 14 15  1  0
 14 16  1  0
 16 17  1  0
 17 18  1  0
 18 19  1  0
 19 20  2  0
 19 21  1  0
 21 22  2  0
 22 23  1  0
 23 24  2  0
 24 25  1  0
 25 26  2  0
 18 27  1  0
 10  5  1  0
 15 11  2  0
 26 21  1  0
 27 13  1  0
  3 28  1  0
  4 29  1  0
  4 30  1  0
  6 31  1  0
  7 32  1  0
  8 33  1  0
  9 34  1  0
 10 35  1  0
 12 36  1  0
 16 37  1  0
 16 38  1  0
 17 39  1  0
 17 40  1  0
 22 41  1  0
 23 42  1  0
 25 43  1  0
 26 44  1  0
 27 45  1  0
 27 46  1  0
M  END
$$$$
