
     RDKit          3D

 44 48  0  0  0  0  0  0  0  0999 V2000
   -2.4322   -1.3171    2.0311 O   0  0  0  0  0  0  0  0  0  0  0  0
   -2.1997   -0.8505    0.9133 C   0  0  0  0  0  0  0  0  0  0  0  0
   -0.7902   -0.8571    0.4339 C   0  0  0  0  0  0  0  0  0  0  0  0
    0.3291   -1.3161    1.2272 C   0  0  0  0  0  0  0  0  0  0  0  0
    1.4153   -1.1653    0.4166 C   0  0  0  0  0  0  0  0  0  0  0  0
    0.9450   -0.6409   -0.7319 N   0  0  0  0  0  0  0  0  0  0  0  0
   -0.3677   -0.4638   -0.7954 N   0  0  0  0  0  0  0  0  0  0  0  0
    1.9404   -0.4374   -1.7664 C   0  0  0  0  0  0  0  0  0  0  0  0
    3.2584   -0.6084   -0.9682 C   0  0  1  0  0  0  0  0  0  0  0  0
    3.7490    0.7073   -0.6618 O   0  0  0  0  0  0  0  0  0  0  0  0
    5.0623    0.8468   -0.3219 C   0  0  0  0  0  0  0  0  0  0  0  0
    5.4864    2.1577   -0.1139 C   0  0  0  0  0  0  0  0  0  0  0  0
    6.8084    2.4157    0.2407 C   0  0  0  0  0  0  0  0  0  0  0  0
    7.6705    1.3417    0.3778 C   0  0  0  0  0  0  0  0  0  0  0  0
    7.2996    0.0576    0.1886 N   0  0  0  0  0  0  0  0  0  0  0  0
    6.0052   -0.1591   -0.1531 C   0  0  0  0  0  0  0  0  0  0  0  0
    2.8724   -1.3725    0.3429 C   0  0  0  0  0  0  0  0  0  0  0  0
   -3.1993   -0.3180    0.0957 N   0  0  0  0  0  0  0  0  0  0  0  0
   -3.0208    0.2866   -1.2374 C   0  0  0  0  0  0  0  0  0  0  0  0
   -4.3888    0.7844   -1.7192 C   0  0  0  0  0  0  0  0  0  0  0  0
   -5.2893    0.3467   -0.6130 C   0  0  0  0  0  0  0  0  0  0  0  0
   -6.6654    0.5143   -0.5423 C   0  0  0  0  0  0  0  0  0  0  0  0
   -7.3331    0.0459    0.5886 C   0  0  0  0  0  0  0  0  0  0  0  0
   -6.6217   -0.5757    1.6234 C   0  0  0  0  0  0  0  0  0  0  0  0
   -5.2341   -0.7373    1.5402 C   0  0  0  0  0  0  0  0  0  0  0  0
   -4.5742   -0.2716    0.4141 C   0  0  0  0  0  0  0  0  0  0  0  0
    0.2892   -1.7016    2.2370 H   0  0  0  0  0  0  0  0  0  0  0  0
    1.7976   -1.2314   -2.5050 H   0  0  0  0  0  0  0  0  0  0  0  0
    1.8052    0.5564   -2.1998 H   0  0  0  0  0  0  0  0  0  0  0  0
    3.9842   -1.1514   -1.5844 H   0  0  0  0  0  0  0  0  0  0  0  0
    4.7855    2.9807   -0.2264 H   0  0  0  0  0  0  0  0  0  0  0  0
    7.1545    3.4295    0.4068 H   0  0  0  0  0  0  0  0  0  0  0  0
    8.7109    1.4893    0.6531 H   0  0  0  0  0  0  0  0  0  0  0  0
    5.7692   -1.2095   -0.2784 H   0  0  0  0  0  0  0  0  0  0  0  0
    3.3820   -0.9809    1.2273 H   0  0  0  0  0  0  0  0  0  0  0  0
    3.0881   -2.4405    0.2337 H   0  0  0  0  0  0  0  0  0  0  0  0
   -2.6325   -0.4729   -1.9250 H   0  0  0  0  0  0  0  0  0  0  0  0
   -2.3122    1.1192   -1.1732 H   0  0  0  0  0  0  0  0  0  0  0  0
   -4.6655    0.3226   -2.6719 H   0  0  0  0  0  0  0  0  0  0  0  0
   -4.3961    1.8740   -1.8236 H   0  0  0  0  0  0  0  0  0  0  0  0
   -7.2127    0.9993   -1.3442 H   0  0  0  0  0  0  0  0  0  0  0  0
   -8.4107    0.1638    0.6706 H   0  0  0  0  0  0  0  0  0  0  0  0
   -7.1513   -0.9371    2.5017 H   0  0  0  0  0  0  0  0  0  0  0  0
   -4.7111   -1.2232    2.3560 H   0  0  0  0  0  0  0  0  0  0  0  0
  1  2  2  0
  2  3  1  0
  3  4  1  0
  4  5  2  0
  5  6  1  0
  6  7  1  0
  6  8  1  0
  8  9  1  0
  9 10  1  0
 10 11  1  0
 11 12  2  0
 12 13  1  0
 13 14  2  0
 14 15  1  0
 15 16  2  0
  9 17  1  0
  2 18  1  0
 18 19  1  0
 19 20  1  0
 20 21  1  0
 21 22  2  0
 22 23  1  0
 23 24  2  0
 24 25  1  0
 25 26  2  0
  7  3  2  0
 16 11  1  0
 26 18  1  0
 17  5  1  0
 26 21  1  0
  4 27  1  0
  8 28  1  0
  8 29  1  0
  9 30  1  6
 12 31  1  0
 13 32  1  0
 14 33  1  0
 16 34  1  0
 17 35  1  0
 17 36  1  0
 19 37  1  0
 19 38  1  0
 20 39  1  0
 20 40  1  0
 22 41  1  0
 23 42  1  0
 24 43  1  0
 25 44  1  0
M  END
$$$$
