
     RDKit          3D

 34 35  0  0  0  0  0  0  0  0999 V2000
   -4.2092   -0.6854   -1.9175 C   0  0  0  0  0  0  0  0  0  0  0  0
   -3.8516   -0.7120   -0.5390 O   0  0  0  0  0  0  0  0  0  0  0  0
   -2.5319   -0.9690   -0.2840 C   0  0  0  0  0  0  0  0  0  0  0  0
   -2.2993   -1.7520    0.8497 C   0  0  0  0  0  0  0  0  0  0  0  0
   -0.9968   -2.0852    1.2330 C   0  0  0  0  0  0  0  0  0  0  0  0
    0.0956   -1.6269    0.4906 C   0  0  0  0  0  0  0  0  0  0  0  0
    1.4532   -1.9967    0.9138 C   0  0  0  0  0  0  0  0  0  0  0  0
    2.4843   -1.1632    1.1723 C   0  0  0  0  0  0  0  0  0  0  0  0
    3.7430   -1.7345    1.5469 C   0  0  0  0  0  0  0  0  0  0  0  0
    4.7620   -2.2064    1.8391 N   0  0  0  0  0  0  0  0  0  0  0  0
    2.3927    0.3079    1.0852 C   0  0  0  0  0  0  0  0  0  0  0  0
    3.2453    1.0362    0.2475 C   0  0  0  0  0  0  0  0  0  0  0  0
    3.1456    2.4252    0.1901 C   0  0  0  0  0  0  0  0  0  0  0  0
    2.1941    3.0493    0.9773 C   0  0  0  0  0  0  0  0  0  0  0  0
    1.3551    2.3872    1.7998 N   0  0  0  0  0  0  0  0  0  0  0  0
    1.4768    1.0381    1.8399 C   0  0  0  0  0  0  0  0  0  0  0  0
   -0.1345   -0.8446   -0.6462 C   0  0  0  0  0  0  0  0  0  0  0  0
   -1.4379   -0.4831   -1.0062 C   0  0  0  0  0  0  0  0  0  0  0  0
   -1.6017    0.3391   -2.0908 O   0  0  0  0  0  0  0  0  0  0  0  0
   -1.3510    1.6961   -1.7115 C   0  0  0  0  0  0  0  0  0  0  0  0
   -5.2700   -0.9476   -1.9880 H   0  0  0  0  0  0  0  0  0  0  0  0
   -4.0959    0.3236   -2.3228 H   0  0  0  0  0  0  0  0  0  0  0  0
   -3.6501   -1.4164   -2.5126 H   0  0  0  0  0  0  0  0  0  0  0  0
   -3.1420   -2.1126    1.4346 H   0  0  0  0  0  0  0  0  0  0  0  0
   -0.8498   -2.7003    2.1185 H   0  0  0  0  0  0  0  0  0  0  0  0
    1.5953   -3.0730    1.0223 H   0  0  0  0  0  0  0  0  0  0  0  0
    3.9891    0.5345   -0.3667 H   0  0  0  0  0  0  0  0  0  0  0  0
    3.7992    3.0067   -0.4509 H   0  0  0  0  0  0  0  0  0  0  0  0
    2.0804    4.1298    0.9696 H   0  0  0  0  0  0  0  0  0  0  0  0
    0.7873    0.5489    2.5238 H   0  0  0  0  0  0  0  0  0  0  0  0
    0.6946   -0.4945   -1.2553 H   0  0  0  0  0  0  0  0  0  0  0  0
   -1.9695    1.9951   -0.8575 H   0  0  0  0  0  0  0  0  0  0  0  0
   -1.6137    2.3346   -2.5602 H   0  0  0  0  0  0  0  0  0  0  0  0
   -0.2887    1.8511   -1.4897 H   0  0  0  0  0  0  0  0  0  0  0  0
  1  2  1  0
  2  3  1  0
  3  4  2  0
  4  5  1  0
  5  6  2  0
  6  7  1  0
  7  8  2  0
  8  9  1  0
  9 10  3  0
  8 11  1  0
 11 12  2  0
 12 13  1  0
 13 14  2  0
 14 15  1  0
 15 16  2  0
  6 17  1  0
 17 18  2  0
 18 19  1  0
 19 20  1  0
 18  3  1  0
 16 11  1  0
  1 21  1  0
  1 22  1  0
  1 23  1  0
  4 24  1  0
  5 25  1  0
  7 26  1  0
 12 27  1  0
 13 28  1  0
 14 29  1  0
 16 30  1  0
 17 31  1  0
 20 32  1  0
 20 33  1  0
 20 34  1  0
M  END
$$$$
