
     RDKit          3D

 25 26  0  0  0  0  0  0  0  0999 V2000
    3.8994    0.2555    0.4568 C   0  0  0  0  0  0  0  0  0  0  0  0
    2.7506    1.0940    0.4110 O   0  0  0  0  0  0  0  0  0  0  0  0
    1.5454    0.4826    0.1954 C   0  0  0  0  0  0  0  0  0  0  0  0
    0.4482    1.3555    0.1594 C   0  0  0  0  0  0  0  0  0  0  0  0
   -0.8536    0.8802   -0.0527 C   0  0  0  0  0  0  0  0  0  0  0  0
   -1.9723    1.6736   -0.1002 O   0  0  0  0  0  0  0  0  0  0  0  0
   -1.7924    3.0732    0.0780 C   0  0  0  0  0  0  0  0  0  0  0  0
   -1.0569   -0.4979   -0.2319 C   0  0  0  0  0  0  0  0  0  0  0  0
   -2.3718   -1.0909   -0.4588 C   0  0  0  0  0  0  0  0  0  0  0  0
   -2.4964   -2.4111   -0.6220 C   0  0  0  0  0  0  0  0  0  0  0  0
   -1.3415   -3.3213   -0.5832 C   0  0  0  0  0  0  0  0  0  0  0  0
   -1.4870   -4.5284   -0.7362 O   0  0  0  0  0  0  0  0  0  0  0  0
   -0.0986   -2.7441   -0.3668 O   0  0  0  0  0  0  0  0  0  0  0  0
    0.0471   -1.3507   -0.1929 C   0  0  0  0  0  0  0  0  0  0  0  0
    1.3432   -0.8817    0.0178 C   0  0  0  0  0  0  0  0  0  0  0  0
    3.8338   -0.4583    1.2846 H   0  0  0  0  0  0  0  0  0  0  0  0
    4.7711    0.8926    0.6345 H   0  0  0  0  0  0  0  0  0  0  0  0
    4.0510   -0.2582   -0.4983 H   0  0  0  0  0  0  0  0  0  0  0  0
    0.6493    2.4128    0.3025 H   0  0  0  0  0  0  0  0  0  0  0  0
   -1.3836    3.2956    1.0691 H   0  0  0  0  0  0  0  0  0  0  0  0
   -1.1660    3.4948   -0.7149 H   0  0  0  0  0  0  0  0  0  0  0  0
   -2.7765    3.5470    0.0109 H   0  0  0  0  0  0  0  0  0  0  0  0
   -3.2401   -0.4412   -0.4919 H   0  0  0  0  0  0  0  0  0  0  0  0
   -3.4596   -2.8762   -0.7916 H   0  0  0  0  0  0  0  0  0  0  0  0
    2.1571   -1.5974    0.0369 H   0  0  0  0  0  0  0  0  0  0  0  0
  1  2  1  0
  2  3  1  0
  3  4  2  0
  4  5  1  0
  5  6  1  0
  6  7  1  0
  5  8  2  0
  8  9  1  0
  9 10  2  0
 10 11  1  0
 11 12  2  0
 11 13  1  0
 13 14  1  0
 14 15  2  0
 15  3  1  0
 14  8  1  0
  1 16  1  0
  1 17  1  0
  1 18  1  0
  4 19  1  0
  7 20  1  0
  7 21  1  0
  7 22  1  0
  9 23  1  0
 10 24  1  0
 15 25  1  0
M  END
$$$$
