
     RDKit          3D

 38 38  0  0  0  0  0  0  0  0999 V2000
   -2.8303   -1.8827    0.5508 C   0  0  0  0  0  0  0  0  0  0  0  0
   -2.1460   -0.6368   -0.0421 C   0  0  2  0  0  0  0  0  0  0  0  0
   -0.6793   -0.7654    0.1470 C   0  0  0  0  0  0  0  0  0  0  0  0
    0.0394   -1.7880    0.6294 N   0  0  0  0  0  0  0  0  0  0  0  0
    1.3601   -1.4776    0.6354 C   0  0  0  0  0  0  0  0  0  0  0  0
    2.4506   -2.2045    1.0430 C   0  0  0  0  0  0  0  0  0  0  0  0
    3.7087   -1.6545    0.9573 C   0  0  0  0  0  0  0  0  0  0  0  0
    3.8228   -0.3710    0.4548 C   0  0  0  0  0  0  0  0  0  0  0  0
    2.7215    0.3524    0.0463 C   0  0  0  0  0  0  0  0  0  0  0  0
    2.9164    1.6937   -0.4531 C   0  0  0  0  0  0  0  0  0  0  0  0
    4.1651    2.3409   -0.3649 N   0  0  0  0  0  0  0  0  0  0  0  0
    1.9256    2.2901   -0.9829 O   0  0  0  0  0  0  0  0  0  0  0  0
    1.4783   -0.2071    0.1369 C   0  0  0  0  0  0  0  0  0  0  0  0
    0.2246    0.1989   -0.1495 N   0  0  0  0  0  0  0  0  0  0  0  0
   -2.7134    0.5519    0.7079 C   0  0  0  0  0  0  0  0  0  0  0  0
   -2.9016    1.6120   -0.3263 C   0  0  0  0  0  0  0  0  0  0  0  0
   -3.0892    0.8229   -1.5864 C   0  0  0  0  0  0  0  0  0  0  0  0
   -2.4782   -0.4535   -1.4168 N   0  0  0  0  0  0  0  0  0  0  0  0
    0.6847    0.0000    0.0000 Cl  0  0  0  0  0  0  0  0  0  0  0  0
    0.6844    0.0000    0.0000 Cl  0  0  0  0  0  0  0  0  0  0  0  0
   -2.5983   -2.7496   -0.0676 H   0  0  0  0  0  0  0  0  0  0  0  0
   -3.9113   -1.7412    0.5916 H   0  0  0  0  0  0  0  0  0  0  0  0
   -2.4553   -2.0022    1.6028 H   0  0  0  0  0  0  0  0  0  0  0  0
    2.3543   -3.2010    1.4288 H   0  0  0  0  0  0  0  0  0  0  0  0
    4.6206   -2.1823    1.2685 H   0  0  0  0  0  0  0  0  0  0  0  0
    4.8166    0.0553    0.3954 H   0  0  0  0  0  0  0  0  0  0  0  0
    4.7951    2.3231    0.4892 H   0  0  0  0  0  0  0  0  0  0  0  0
    4.5763    2.9052   -1.1519 H   0  0  0  0  0  0  0  0  0  0  0  0
    0.0204    1.1267   -0.5460 H   0  0  0  0  0  0  0  0  0  0  0  0
   -3.7083    0.2784    1.1672 H   0  0  0  0  0  0  0  0  0  0  0  0
   -2.0559    0.8851    1.5548 H   0  0  0  0  0  0  0  0  0  0  0  0
   -2.0387    2.3018   -0.3680 H   0  0  0  0  0  0  0  0  0  0  0  0
   -3.8422    2.1655   -0.0507 H   0  0  0  0  0  0  0  0  0  0  0  0
   -4.1920    0.7337   -1.7885 H   0  0  0  0  0  0  0  0  0  0  0  0
   -2.6183    1.3881   -2.4281 H   0  0  0  0  0  0  0  0  0  0  0  0
   -1.7382   -0.7081   -2.0841 H   0  0  0  0  0  0  0  0  0  0  0  0
   -0.6847    0.0000    0.0000 H   0  0  0  0  0  0  0  0  0  0  0  0
   -0.6844    0.0000    0.0000 H   0  0  0  0  0  0  0  0  0  0  0  0
  2  1  1  1
  2  3  1  0
  3  4  2  0
  4  5  1  0
  5  6  2  0
  6  7  1  0
  7  8  2  0
  8  9  1  0
  9 10  1  0
 10 11  1  0
 10 12  2  0
  9 13  2  0
 13 14  1  0
  2 15  1  0
 15 16  1  0
 16 17  1  0
 17 18  1  0
 18  2  1  0
 14  3  1  0
 13  5  1  0
  1 21  1  0
  1 22  1  0
  1 23  1  0
  6 24  1  0
  7 25  1  0
  8 26  1  0
 11 27  1  0
 11 28  1  0
 14 29  1  0
 15 30  1  0
 15 31  1  0
 16 32  1  0
 16 33  1  0
 17 34  1  0
 17 35  1  0
 18 36  1  0
 19 37  1  0
 20 38  1  0
M  END
$$$$
