
     RDKit          3D

 54 55  0  0  0  0  0  0  0  0999 V2000
   -7.2066    1.1675    1.5304 C   0  0  0  0  0  0  0  0  0  0  0  0
   -7.0308    0.7997    0.0558 C   0  0  0  0  0  0  0  0  0  0  0  0
   -7.8735   -0.4292   -0.2928 C   0  0  0  0  0  0  0  0  0  0  0  0
   -5.5521    0.6239   -0.3339 C   0  0  0  0  0  0  0  0  0  0  0  0
   -4.8146   -0.4975    0.4021 C   0  0  0  0  0  0  0  0  0  0  0  0
   -3.4196   -0.5718    0.0065 N   0  0  0  0  0  0  0  0  0  0  0  0
   -3.0467   -1.2112   -1.1503 C   0  0  0  0  0  0  0  0  0  0  0  0
   -3.8627   -1.7582   -1.8865 O   0  0  0  0  0  0  0  0  0  0  0  0
   -1.6849   -1.1972   -1.4124 N   0  0  0  0  0  0  0  0  0  0  0  0
   -1.2217   -1.7879   -2.6604 C   0  0  0  0  0  0  0  0  0  0  0  0
   -0.6475   -0.8093   -0.4491 C   0  0  0  0  0  0  0  0  0  0  0  0
   -0.1457    0.6154   -0.6847 C   0  0  0  0  0  0  0  0  0  0  0  0
    0.8351    1.0305    0.3460 C   0  0  0  0  0  0  0  0  0  0  0  0
    0.6475    2.1094    1.1188 N   0  0  0  0  0  0  0  0  0  0  0  0
    1.7971    2.1379    1.9148 O   0  0  0  0  0  0  0  0  0  0  0  0
    2.5505    1.0640    1.5386 C   0  0  0  0  0  0  0  0  0  0  0  0
    3.8209    0.8127    2.1907 C   0  0  0  0  0  0  0  0  0  0  0  0
    4.3071    1.5326    3.0598 O   0  0  0  0  0  0  0  0  0  0  0  0
    4.4554   -0.3326    1.7411 N   0  0  0  0  0  0  0  0  0  0  0  0
    5.8007   -0.6754    2.1316 C   0  0  0  0  0  0  0  0  0  0  0  0
    6.7861   -0.2545    1.0709 C   0  0  0  0  0  0  0  0  0  0  0  0
    7.1866   -1.1509    0.0687 C   0  0  0  0  0  0  0  0  0  0  0  0
    8.0818   -0.7468   -0.9247 C   0  0  0  0  0  0  0  0  0  0  0  0
    8.5780    0.5567   -0.9310 C   0  0  0  0  0  0  0  0  0  0  0  0
    8.1787    1.4586    0.0544 C   0  0  0  0  0  0  0  0  0  0  0  0
    7.2850    1.0572    1.0491 C   0  0  0  0  0  0  0  0  0  0  0  0
    2.0004    0.3437    0.5756 N   0  0  0  0  0  0  0  0  0  0  0  0
   -8.2507    1.4313    1.7388 H   0  0  0  0  0  0  0  0  0  0  0  0
   -6.5860    2.0335    1.7916 H   0  0  0  0  0  0  0  0  0  0  0  0
   -6.9383    0.3354    2.1926 H   0  0  0  0  0  0  0  0  0  0  0  0
   -7.4167    1.6405   -0.5364 H   0  0  0  0  0  0  0  0  0  0  0  0
   -7.7480   -0.7005   -1.3480 H   0  0  0  0  0  0  0  0  0  0  0  0
   -7.6042   -1.2982    0.3193 H   0  0  0  0  0  0  0  0  0  0  0  0
   -8.9381   -0.2242   -0.1241 H   0  0  0  0  0  0  0  0  0  0  0  0
   -5.0259    1.5732   -0.1563 H   0  0  0  0  0  0  0  0  0  0  0  0
   -5.4915    0.4511   -1.4171 H   0  0  0  0  0  0  0  0  0  0  0  0
   -4.8156   -0.3205    1.4820 H   0  0  0  0  0  0  0  0  0  0  0  0
   -5.2830   -1.4692    0.2117 H   0  0  0  0  0  0  0  0  0  0  0  0
   -2.8424    0.2017    0.2917 H   0  0  0  0  0  0  0  0  0  0  0  0
   -0.8027   -2.7779   -2.4450 H   0  0  0  0  0  0  0  0  0  0  0  0
   -2.0306   -1.8958   -3.3868 H   0  0  0  0  0  0  0  0  0  0  0  0
   -0.4455   -1.1501   -3.0984 H   0  0  0  0  0  0  0  0  0  0  0  0
   -1.0339   -0.9126    0.5721 H   0  0  0  0  0  0  0  0  0  0  0  0
    0.1764   -1.5307   -0.5316 H   0  0  0  0  0  0  0  0  0  0  0  0
   -0.9951    1.3108   -0.6962 H   0  0  0  0  0  0  0  0  0  0  0  0
    0.3244    0.6910   -1.6731 H   0  0  0  0  0  0  0  0  0  0  0  0
    4.0471   -0.8018    0.9397 H   0  0  0  0  0  0  0  0  0  0  0  0
    5.8329   -1.7625    2.2726 H   0  0  0  0  0  0  0  0  0  0  0  0
    6.0555   -0.2156    3.0942 H   0  0  0  0  0  0  0  0  0  0  0  0
    6.8056   -2.1707    0.0564 H   0  0  0  0  0  0  0  0  0  0  0  0
    8.3914   -1.4486   -1.6954 H   0  0  0  0  0  0  0  0  0  0  0  0
    9.2730    0.8726   -1.7058 H   0  0  0  0  0  0  0  0  0  0  0  0
    8.5617    2.4766    0.0480 H   0  0  0  0  0  0  0  0  0  0  0  0
    6.9757    1.7740    1.8096 H   0  0  0  0  0  0  0  0  0  0  0  0
  1  2  1  0
  2  3  1  0
  2  4  1  0
  4  5  1  0
  5  6  1  0
  6  7  1  0
  7  8  2  0
  7  9  1  0
  9 10  1  0
  9 11  1  0
 11 12  1  0
 12 13  1  0
 13 14  2  0
 14 15  1  0
 15 16  1  0
 16 17  1  0
 17 18  2  0
 17 19  1  0
 19 20  1  0
 20 21  1  0
 21 22  2  0
 22 23  1  0
 23 24  2  0
 24 25  1  0
 25 26  2  0
 16 27  2  0
 27 13  1  0
 26 21  1  0
  1 28  1  0
  1 29  1  0
  1 30  1  0
  2 31  1  0
  3 32  1  0
  3 33  1  0
  3 34  1  0
  4 35  1  0
  4 36  1  0
  5 37  1  0
  5 38  1  0
  6 39  1  0
 10 40  1  0
 10 41  1  0
 10 42  1  0
 11 43  1  0
 11 44  1  0
 12 45  1  0
 12 46  1  0
 19 47  1  0
 20 48  1  0
 20 49  1  0
 22 50  1  0
 23 51  1  0
 24 52  1  0
 25 53  1  0
 26 54  1  0
M  END
$$$$
