
     RDKit          3D

 44 46  0  0  0  0  0  0  0  0999 V2000
   -5.7472    1.3586    1.8320 C   0  0  0  0  0  0  0  0  0  0  0  0
   -4.3724    0.9812    1.3375 C   0  0  0  0  0  0  0  0  0  0  0  0
   -3.2654    1.4705    2.0500 C   0  0  0  0  0  0  0  0  0  0  0  0
   -1.9689    1.1694    1.6486 C   0  0  0  0  0  0  0  0  0  0  0  0
   -1.7591    0.3734    0.5196 C   0  0  0  0  0  0  0  0  0  0  0  0
   -0.3662    0.2774    0.0293 C   0  0  0  0  0  0  0  0  0  0  0  0
   -0.0870    0.7406   -1.0683 O   0  0  0  0  0  0  0  0  0  0  0  0
    0.5189   -0.3272    0.8926 N   0  0  0  0  0  0  0  0  0  0  0  0
    1.8771   -0.6227    0.4750 C   0  0  0  0  0  0  0  0  0  0  0  0
    2.7707    0.6200    0.4689 C   0  0  0  0  0  0  0  0  0  0  0  0
    4.1878    0.2853    0.0744 C   0  0  0  0  0  0  0  0  0  0  0  0
    4.5337    0.1705   -1.2802 C   0  0  0  0  0  0  0  0  0  0  0  0
    5.8382   -0.1588   -1.6540 C   0  0  0  0  0  0  0  0  0  0  0  0
    6.7967   -0.3760   -0.6699 C   0  0  0  0  0  0  0  0  0  0  0  0
    8.0820   -0.7004   -0.9898 O   0  0  0  0  0  0  0  0  0  0  0  0
    6.4713   -0.2700    0.6769 C   0  0  0  0  0  0  0  0  0  0  0  0
    5.1674    0.0585    1.0506 C   0  0  0  0  0  0  0  0  0  0  0  0
   -2.8495   -0.1446   -0.2079 C   0  0  0  0  0  0  0  0  0  0  0  0
   -2.5778   -0.9655   -1.3292 N   0  0  0  0  0  0  0  0  0  0  0  0
   -3.2222   -1.0451   -2.5372 C   0  0  0  0  0  0  0  0  0  0  0  0
   -2.7210   -2.0371   -3.2358 N   0  0  0  0  0  0  0  0  0  0  0  0
   -1.7272   -2.5714   -2.4583 N   0  0  0  0  0  0  0  0  0  0  0  0
   -1.6275   -1.9293   -1.3026 N   0  0  0  0  0  0  0  0  0  0  0  0
   -4.1790    0.1280    0.2183 C   0  0  0  0  0  0  0  0  0  0  0  0
   -5.3886   -0.4876   -0.4472 C   0  0  0  0  0  0  0  0  0  0  0  0
   -5.7029    2.1964    2.5364 H   0  0  0  0  0  0  0  0  0  0  0  0
   -6.2097    0.5099    2.3453 H   0  0  0  0  0  0  0  0  0  0  0  0
   -6.3823    1.6797    1.0001 H   0  0  0  0  0  0  0  0  0  0  0  0
   -3.4098    2.1121    2.9183 H   0  0  0  0  0  0  0  0  0  0  0  0
   -1.1269    1.6026    2.1845 H   0  0  0  0  0  0  0  0  0  0  0  0
    0.1482   -0.8296    1.6892 H   0  0  0  0  0  0  0  0  0  0  0  0
    2.2689   -1.3724    1.1717 H   0  0  0  0  0  0  0  0  0  0  0  0
    1.8395   -1.0813   -0.5204 H   0  0  0  0  0  0  0  0  0  0  0  0
    2.7624    1.0895    1.4611 H   0  0  0  0  0  0  0  0  0  0  0  0
    2.3772    1.3809   -0.2164 H   0  0  0  0  0  0  0  0  0  0  0  0
    3.7831    0.3373   -2.0513 H   0  0  0  0  0  0  0  0  0  0  0  0
    6.0819   -0.2411   -2.7082 H   0  0  0  0  0  0  0  0  0  0  0  0
    8.1562   -0.7375   -1.9574 H   0  0  0  0  0  0  0  0  0  0  0  0
    7.2308   -0.4435    1.4337 H   0  0  0  0  0  0  0  0  0  0  0  0
    4.9235    0.1368    2.1073 H   0  0  0  0  0  0  0  0  0  0  0  0
   -4.0005   -0.3693   -2.8520 H   0  0  0  0  0  0  0  0  0  0  0  0
   -5.7145    0.1328   -1.2870 H   0  0  0  0  0  0  0  0  0  0  0  0
   -6.2279   -0.5955    0.2464 H   0  0  0  0  0  0  0  0  0  0  0  0
   -5.1819   -1.5057   -0.7906 H   0  0  0  0  0  0  0  0  0  0  0  0
  1  2  1  0
  2  3  2  0
  3  4  1  0
  4  5  2  0
  5  6  1  0
  6  7  2  0
  6  8  1  0
  8  9  1  0
  9 10  1  0
 10 11  1  0
 11 12  2  0
 12 13  1  0
 13 14  2  0
 14 15  1  0
 14 16  1  0
 16 17  2  0
  5 18  1  0
 18 19  1  0
 19 20  1  0
 20 21  2  0
 21 22  1  0
 22 23  2  0
 18 24  2  0
 24 25  1  0
 24  2  1  0
 17 11  1  0
 23 19  1  0
  1 26  1  0
  1 27  1  0
  1 28  1  0
  3 29  1  0
  4 30  1  0
  8 31  1  0
  9 32  1  0
  9 33  1  0
 10 34  1  0
 10 35  1  0
 12 36  1  0
 13 37  1  0
 15 38  1  0
 16 39  1  0
 17 40  1  0
 20 41  1  0
 25 42  1  0
 25 43  1  0
 25 44  1  0
M  END
$$$$
