
     RDKit          3D

 43 43  0  0  0  0  0  0  0  0999 V2000
   -2.1142   -0.7592   -2.9591 C   0  0  0  0  0  0  0  0  0  0  0  0
   -1.9749   -1.3445   -1.5387 C   0  0  0  0  0  0  0  0  0  0  0  0
   -1.4420   -2.7958   -1.6155 C   0  0  0  0  0  0  0  0  0  0  0  0
   -3.4151   -1.4763   -0.9680 C   0  0  0  0  0  0  0  0  0  0  0  0
   -1.0645   -0.4208   -0.6875 C   0  0  0  0  0  0  0  0  0  0  0  0
   -1.6461    0.4836    0.2224 C   0  0  0  0  0  0  0  0  0  0  0  0
   -0.8745    1.2934    1.0605 C   0  0  0  0  0  0  0  0  0  0  0  0
   -1.5501    2.2133    1.9851 C   0  0  0  0  0  0  0  0  0  0  0  0
   -1.5109    2.1473    3.3312 C   0  0  0  0  0  0  0  0  0  0  0  0
   -0.7882    1.1409    4.0337 C   0  0  0  0  0  0  0  0  0  0  0  0
   -0.1954    0.3314    4.6169 N   0  0  0  0  0  0  0  0  0  0  0  0
   -2.2318    3.1123    4.0906 C   0  0  0  0  0  0  0  0  0  0  0  0
   -2.8280    3.9101    4.6861 N   0  0  0  0  0  0  0  0  0  0  0  0
    0.5186    1.2300    0.9935 C   0  0  0  0  0  0  0  0  0  0  0  0
    1.1742    0.3686    0.0971 C   0  0  0  0  0  0  0  0  0  0  0  0
    2.7228    0.3103    0.0468 C   0  0  0  0  0  0  0  0  0  0  0  0
    3.4154    1.2166    1.0996 C   0  0  0  0  0  0  0  0  0  0  0  0
    3.2236   -1.1241    0.3325 C   0  0  0  0  0  0  0  0  0  0  0  0
    3.2368    0.7854   -1.3304 C   0  0  0  0  0  0  0  0  0  0  0  0
    0.3525   -0.4221   -0.7486 C   0  0  0  0  0  0  0  0  0  0  0  0
    0.9991   -1.2000   -1.6688 O   0  0  0  0  0  0  0  0  0  0  0  0
   -1.1587   -0.6968   -3.4869 H   0  0  0  0  0  0  0  0  0  0  0  0
   -2.7816   -1.3741   -3.5743 H   0  0  0  0  0  0  0  0  0  0  0  0
   -2.5317    0.2544   -2.9286 H   0  0  0  0  0  0  0  0  0  0  0  0
   -2.1869   -3.4688   -2.0576 H   0  0  0  0  0  0  0  0  0  0  0  0
   -1.2006   -3.1805   -0.6178 H   0  0  0  0  0  0  0  0  0  0  0  0
   -0.5527   -2.8974   -2.2418 H   0  0  0  0  0  0  0  0  0  0  0  0
   -3.4027   -1.8155    0.0745 H   0  0  0  0  0  0  0  0  0  0  0  0
   -3.9677   -0.5313   -1.0183 H   0  0  0  0  0  0  0  0  0  0  0  0
   -4.0053   -2.2016   -1.5416 H   0  0  0  0  0  0  0  0  0  0  0  0
   -2.7262    0.5676    0.3059 H   0  0  0  0  0  0  0  0  0  0  0  0
   -2.1373    2.9874    1.4908 H   0  0  0  0  0  0  0  0  0  0  0  0
    1.0884    1.8778    1.6532 H   0  0  0  0  0  0  0  0  0  0  0  0
    3.1740    2.2748    0.9455 H   0  0  0  0  0  0  0  0  0  0  0  0
    3.1287    0.9410    2.1213 H   0  0  0  0  0  0  0  0  0  0  0  0
    4.5073    1.1300    1.0397 H   0  0  0  0  0  0  0  0  0  0  0  0
    2.8290   -1.4947    1.2860 H   0  0  0  0  0  0  0  0  0  0  0  0
    4.3182   -1.1550    0.3914 H   0  0  0  0  0  0  0  0  0  0  0  0
    2.9373   -1.8408   -0.4419 H   0  0  0  0  0  0  0  0  0  0  0  0
    4.3324    0.8283   -1.3485 H   0  0  0  0  0  0  0  0  0  0  0  0
    2.9388    0.1248   -2.1491 H   0  0  0  0  0  0  0  0  0  0  0  0
    2.8611    1.7885   -1.5649 H   0  0  0  0  0  0  0  0  0  0  0  0
    0.5293   -1.1188   -2.5117 H   0  0  0  0  0  0  0  0  0  0  0  0
  1  2  1  0
  2  3  1  0
  2  4  1  0
  2  5  1  0
  5  6  2  0
  6  7  1  0
  7  8  1  0
  8  9  2  3
  9 10  1  0
 10 11  3  0
  9 12  1  0
 12 13  3  0
  7 14  2  0
 14 15  1  0
 15 16  1  0
 16 17  1  0
 16 18  1  0
 16 19  1  0
 15 20  2  0
 20 21  1  0
 20  5  1  0
  1 22  1  0
  1 23  1  0
  1 24  1  0
  3 25  1  0
  3 26  1  0
  3 27  1  0
  4 28  1  0
  4 29  1  0
  4 30  1  0
  6 31  1  0
  8 32  1  0
 14 33  1  0
 17 34  1  0
 17 35  1  0
 17 36  1  0
 18 37  1  0
 18 38  1  0
 18 39  1  0
 19 40  1  0
 19 41  1  0
 19 42  1  0
 21 43  1  0
M  END
$$$$
