
     RDKit          3D

 85 90  0  0  0  0  0  0  0  0999 V2000
   -9.3144    3.1591   -0.9807 C   0  0  0  0  0  0  0  0  0  0  0  0
   -8.5147    1.9092   -0.9043 C   0  0  0  0  0  0  0  0  0  0  0  0
   -7.6799    1.5272    0.1268 C   0  0  0  0  0  0  0  0  0  0  0  0
   -7.1169    0.3187   -0.1953 N   0  0  0  0  0  0  0  0  0  0  0  0
   -6.2201   -0.4272    0.6741 C   0  0  0  0  0  0  0  0  0  0  0  0
   -4.7300   -0.3106    0.2965 C   0  0  0  0  0  0  0  0  0  0  0  0
   -4.1143    1.0136    0.5326 N   0  0  0  0  0  0  0  0  0  0  0  0
   -4.1116    1.3876    1.9688 C   0  0  0  0  0  0  0  0  0  0  0  0
   -2.8208    2.0854    2.4635 C   0  0  0  0  0  0  0  0  0  0  0  0
   -1.6287    1.2382    2.2349 N   0  0  0  0  0  0  0  0  0  0  0  0
   -1.1184    0.4446    3.2864 C   0  0  0  0  0  0  0  0  0  0  0  0
   -1.9337    0.0476    4.3678 C   0  0  0  0  0  0  0  0  0  0  0  0
   -1.4656   -0.7716    5.4010 C   0  0  0  0  0  0  0  0  0  0  0  0
   -0.1535   -1.2152    5.3914 C   0  0  0  0  0  0  0  0  0  0  0  0
    0.6877   -0.8306    4.3513 C   0  0  0  0  0  0  0  0  0  0  0  0
    0.2357   -0.0014    3.2975 C   0  0  0  0  0  0  0  0  0  0  0  0
    1.2356    0.4026    2.2903 C   0  0  0  0  0  0  0  0  0  0  0  0
    1.6667    1.7361    2.1964 C   0  0  0  0  0  0  0  0  0  0  0  0
    2.6484    2.1124    1.2698 C   0  0  0  0  0  0  0  0  0  0  0  0
    3.0644    3.4834    1.1850 C   0  0  0  0  0  0  0  0  0  0  0  0
    3.4024    4.5909    1.1024 N   0  0  0  0  0  0  0  0  0  0  0  0
    3.2177    1.1552    0.4249 C   0  0  0  0  0  0  0  0  0  0  0  0
    2.7841   -0.1726    0.5000 C   0  0  0  0  0  0  0  0  0  0  0  0
    3.3148   -1.2062   -0.4195 C   0  0  0  0  0  0  0  0  0  0  0  0
    2.5634   -2.0449   -0.8987 O   0  0  0  0  0  0  0  0  0  0  0  0
    4.6770   -1.1679   -0.6421 N   0  0  0  0  0  0  0  0  0  0  0  0
    5.3054   -2.2086   -1.4344 C   0  0  0  0  0  0  0  0  0  0  0  0
    6.8177   -2.0328   -1.5526 C   0  0  0  0  0  0  0  0  0  0  0  0
    7.1955   -0.7692   -2.3405 C   0  0  0  0  0  0  0  0  0  0  0  0
    8.6210   -0.4967   -2.5143 N   0  0  0  0  0  0  0  0  0  0  0  0
    9.3396   -1.4406   -3.3631 C   0  0  0  0  0  0  0  0  0  0  0  0
   10.7981   -1.0538   -3.1482 C   0  0  0  0  0  0  0  0  0  0  0  0
   10.8262   -0.2959   -1.8235 C   0  0  0  0  0  0  0  0  0  0  0  0
    9.4052   -0.3816   -1.2892 C   0  0  0  0  0  0  0  0  0  0  0  0
    1.8007   -0.5456    1.4230 C   0  0  0  0  0  0  0  0  0  0  0  0
   -1.6248    0.5488    0.9139 C   0  0  0  0  0  0  0  0  0  0  0  0
   -2.7431    1.0691   -0.0236 C   0  0  0  0  0  0  0  0  0  0  0  0
   -7.5842   -0.1138   -1.4209 C   0  0  0  0  0  0  0  0  0  0  0  0
   -7.3089   -1.2788   -2.1602 C   0  0  0  0  0  0  0  0  0  0  0  0
   -7.9426   -1.4382   -3.3970 C   0  0  0  0  0  0  0  0  0  0  0  0
   -8.8229   -0.4745   -3.8807 C   0  0  0  0  0  0  0  0  0  0  0  0
   -9.0888    0.6843   -3.1392 C   0  0  0  0  0  0  0  0  0  0  0  0
   -8.4623    0.8707   -1.8877 C   0  0  0  0  0  0  0  0  0  0  0  0
   -8.9815    3.7727   -1.8234 H   0  0  0  0  0  0  0  0  0  0  0  0
   -9.2148    3.7500   -0.0671 H   0  0  0  0  0  0  0  0  0  0  0  0
  -10.3755    2.9274   -1.1214 H   0  0  0  0  0  0  0  0  0  0  0  0
   -7.4345    2.0254    1.0559 H   0  0  0  0  0  0  0  0  0  0  0  0
   -6.5256   -1.4798    0.6241 H   0  0  0  0  0  0  0  0  0  0  0  0
   -6.4057   -0.1042    1.7048 H   0  0  0  0  0  0  0  0  0  0  0  0
   -4.6326   -0.5611   -0.7680 H   0  0  0  0  0  0  0  0  0  0  0  0
   -4.1727   -1.0786    0.8534 H   0  0  0  0  0  0  0  0  0  0  0  0
   -4.9628    2.0558    2.1473 H   0  0  0  0  0  0  0  0  0  0  0  0
   -4.2712    0.4996    2.5915 H   0  0  0  0  0  0  0  0  0  0  0  0
   -2.9172    2.3899    3.5132 H   0  0  0  0  0  0  0  0  0  0  0  0
   -2.6805    3.0215    1.9069 H   0  0  0  0  0  0  0  0  0  0  0  0
   -2.9749    0.3486    4.4258 H   0  0  0  0  0  0  0  0  0  0  0  0
   -2.1335   -1.0622    6.2082 H   0  0  0  0  0  0  0  0  0  0  0  0
    0.2195   -1.8464    6.1925 H   0  0  0  0  0  0  0  0  0  0  0  0
    1.7231   -1.1671    4.3733 H   0  0  0  0  0  0  0  0  0  0  0  0
    1.2200    2.4857    2.8496 H   0  0  0  0  0  0  0  0  0  0  0  0
    3.9647    1.4497   -0.3102 H   0  0  0  0  0  0  0  0  0  0  0  0
    5.2517   -0.6658    0.0287 H   0  0  0  0  0  0  0  0  0  0  0  0
    4.8331   -2.2175   -2.4236 H   0  0  0  0  0  0  0  0  0  0  0  0
    5.0821   -3.1684   -0.9547 H   0  0  0  0  0  0  0  0  0  0  0  0
    7.2427   -1.9993   -0.5427 H   0  0  0  0  0  0  0  0  0  0  0  0
    7.2258   -2.9195   -2.0528 H   0  0  0  0  0  0  0  0  0  0  0  0
    6.7266   -0.8156   -3.3316 H   0  0  0  0  0  0  0  0  0  0  0  0
    6.7498    0.1052   -1.8519 H   0  0  0  0  0  0  0  0  0  0  0  0
    9.0525   -1.3503   -4.4170 H   0  0  0  0  0  0  0  0  0  0  0  0
    9.1897   -2.4801   -3.0489 H   0  0  0  0  0  0  0  0  0  0  0  0
   11.4397   -1.9412   -3.1159 H   0  0  0  0  0  0  0  0  0  0  0  0
   11.1594   -0.4048   -3.9555 H   0  0  0  0  0  0  0  0  0  0  0  0
   11.5492   -0.7242   -1.1221 H   0  0  0  0  0  0  0  0  0  0  0  0
   11.1114    0.7485   -2.0041 H   0  0  0  0  0  0  0  0  0  0  0  0
    9.1401    0.5041   -0.7039 H   0  0  0  0  0  0  0  0  0  0  0  0
    9.3133   -1.2667   -0.6461 H   0  0  0  0  0  0  0  0  0  0  0  0
    1.4680   -1.5839    1.4624 H   0  0  0  0  0  0  0  0  0  0  0  0
   -0.6693    0.7286    0.4111 H   0  0  0  0  0  0  0  0  0  0  0  0
   -1.7441   -0.5373    1.0390 H   0  0  0  0  0  0  0  0  0  0  0  0
   -2.5340    2.1210   -0.2676 H   0  0  0  0  0  0  0  0  0  0  0  0
   -2.6900    0.5443   -0.9867 H   0  0  0  0  0  0  0  0  0  0  0  0
   -6.6259   -2.0400   -1.7937 H   0  0  0  0  0  0  0  0  0  0  0  0
   -7.7417   -2.3303   -3.9880 H   0  0  0  0  0  0  0  0  0  0  0  0
   -9.3076   -0.6173   -4.8442 H   0  0  0  0  0  0  0  0  0  0  0  0
   -9.7737    1.4340   -3.5291 H   0  0  0  0  0  0  0  0  0  0  0  0
  1  2  1  0
  2  3  2  0
  3  4  1  0
  4  5  1  0
  5  6  1  0
  6  7  1  0
  7  8  1  0
  8  9  1  0
  9 10  1  0
 10 11  1  0
 11 12  2  0
 12 13  1  0
 13 14  2  0
 14 15  1  0
 15 16  2  0
 16 17  1  0
 17 18  2  0
 18 19  1  0
 19 20  1  0
 20 21  3  0
 19 22  2  0
 22 23  1  0
 23 24  1  0
 24 25  2  0
 24 26  1  0
 26 27  1  0
 27 28  1  0
 28 29  1  0
 29 30  1  0
 30 31  1  0
 31 32  1  0
 32 33  1  0
 33 34  1  0
 23 35  2  0
 10 36  1  0
 36 37  1  0
  4 38  1  0
 38 39  2  0
 39 40  1  0
 40 41  2  0
 41 42  1  0
 42 43  2  0
 43  2  1  0
 37  7  1  0
 43 38  1  0
 16 11  1  0
 35 17  1  0
 34 30  1  0
  1 44  1  0
  1 45  1  0
  1 46  1  0
  3 47  1  0
  5 48  1  0
  5 49  1  0
  6 50  1  0
  6 51  1  0
  8 52  1  0
  8 53  1  0
  9 54  1  0
  9 55  1  0
 12 56  1  0
 13 57  1  0
 14 58  1  0
 15 59  1  0
 18 60  1  0
 22 61  1  0
 26 62  1  0
 27 63  1  0
 27 64  1  0
 28 65  1  0
 28 66  1  0
 29 67  1  0
 29 68  1  0
 31 69  1  0
 31 70  1  0
 32 71  1  0
 32 72  1  0
 33 73  1  0
 33 74  1  0
 34 75  1  0
 34 76  1  0
 35 77  1  0
 36 78  1  0
 36 79  1  0
 37 80  1  0
 37 81  1  0
 39 82  1  0
 40 83  1  0
 41 84  1  0
 42 85  1  0
M  END
$$$$
