
     RDKit          3D

 73 77  0  0  0  0  0  0  0  0999 V2000
    6.6207   -3.7929    0.2225 C   0  0  0  0  0  0  0  0  0  0  0  0
    5.1540   -3.4560    0.1545 C   0  0  0  0  0  0  0  0  0  0  0  0
    4.2362   -4.5116    0.0221 C   0  0  0  0  0  0  0  0  0  0  0  0
    2.8645   -4.2688   -0.0448 C   0  0  0  0  0  0  0  0  0  0  0  0
    2.3855   -2.9661    0.0190 C   0  0  0  0  0  0  0  0  0  0  0  0
    1.0156   -2.6285   -0.0176 N   0  0  0  0  0  0  0  0  0  0  0  0
   -0.0534   -3.4809   -0.2190 C   0  0  0  0  0  0  0  0  0  0  0  0
   -0.0067   -4.6707   -0.5049 O   0  0  0  0  0  0  0  0  0  0  0  0
   -1.3945   -2.8411   -0.1028 C   0  0  0  0  0  0  0  0  0  0  0  0
   -1.6525   -1.8515    0.8473 C   0  0  0  0  0  0  0  0  0  0  0  0
   -2.9295   -1.2972    0.9403 C   0  0  0  0  0  0  0  0  0  0  0  0
   -3.9747   -1.7199    0.0946 C   0  0  0  0  0  0  0  0  0  0  0  0
   -5.3461   -1.0874    0.2797 C   0  0  0  0  0  0  0  0  0  0  0  0
   -5.3224    0.3655    0.1070 N   0  0  0  0  0  0  0  0  0  0  0  0
   -5.0873    0.7956   -1.2758 C   0  0  0  0  0  0  0  0  0  0  0  0
   -5.5375    2.2479   -1.2455 C   0  0  0  0  0  0  0  0  0  0  0  0
   -6.8474    2.1508   -0.4605 C   0  0  2  0  0  0  0  0  0  0  0  0
   -7.4050    3.4234    0.0275 N   0  0  0  0  0  0  0  0  0  0  0  0
   -6.5458    4.1325    0.9752 C   0  0  0  0  0  0  0  0  0  0  0  0
   -8.7362    3.2293    0.6069 C   0  0  0  0  0  0  0  0  0  0  0  0
   -6.5781    1.0043    0.5436 C   0  0  0  0  0  0  0  0  0  0  0  0
   -3.7203   -2.7311   -0.8603 C   0  0  0  0  0  0  0  0  0  0  0  0
   -4.7970   -3.2441   -1.7904 C   0  0  0  0  0  0  0  0  0  0  0  0
   -4.3718   -4.2188   -2.6420 F   0  0  0  0  0  0  0  0  0  0  0  0
   -5.8552   -3.7779   -1.1192 F   0  0  0  0  0  0  0  0  0  0  0  0
   -5.3110   -2.2638   -2.5840 F   0  0  0  0  0  0  0  0  0  0  0  0
   -2.4257   -3.2834   -0.9411 C   0  0  0  0  0  0  0  0  0  0  0  0
    3.3022   -1.9105    0.1479 C   0  0  0  0  0  0  0  0  0  0  0  0
    4.6894   -2.1220    0.2115 C   0  0  0  0  0  0  0  0  0  0  0  0
    5.6071   -1.0670    0.3334 N   0  0  0  0  0  0  0  0  0  0  0  0
    5.5048    0.3196    0.3939 C   0  0  0  0  0  0  0  0  0  0  0  0
    4.3281    0.9559    0.3699 N   0  0  0  0  0  0  0  0  0  0  0  0
    4.3517    2.2970    0.4235 C   0  0  0  0  0  0  0  0  0  0  0  0
    5.5070    3.0336    0.5075 C   0  0  0  0  0  0  0  0  0  0  0  0
    6.6856    2.3166    0.5365 C   0  0  0  0  0  0  0  0  0  0  0  0
    8.0149    2.9383    0.6240 C   0  0  0  0  0  0  0  0  0  0  0  0
    8.2533    4.2257    1.0805 C   0  0  0  0  0  0  0  0  0  0  0  0
    9.4712    4.8105    1.1595 N   0  0  0  0  0  0  0  0  0  0  0  0
   10.5052    4.0546    0.7669 C   0  0  0  0  0  0  0  0  0  0  0  0
   10.4243    2.7979    0.3138 N   0  0  0  0  0  0  0  0  0  0  0  0
    9.1771    2.2737    0.2585 C   0  0  0  0  0  0  0  0  0  0  0  0
    6.6816    0.9646    0.4745 N   0  0  0  0  0  0  0  0  0  0  0  0
    7.1470   -3.3672   -0.6382 H   0  0  0  0  0  0  0  0  0  0  0  0
    6.7880   -4.8751    0.2103 H   0  0  0  0  0  0  0  0  0  0  0  0
    7.0578   -3.4073    1.1490 H   0  0  0  0  0  0  0  0  0  0  0  0
    4.5833   -5.5419   -0.0284 H   0  0  0  0  0  0  0  0  0  0  0  0
    2.1988   -5.1210   -0.1382 H   0  0  0  0  0  0  0  0  0  0  0  0
    0.8111   -1.6401    0.0557 H   0  0  0  0  0  0  0  0  0  0  0  0
   -0.8854   -1.5239    1.5438 H   0  0  0  0  0  0  0  0  0  0  0  0
   -3.1211   -0.5269    1.6870 H   0  0  0  0  0  0  0  0  0  0  0  0
   -6.1000   -1.5353   -0.3748 H   0  0  0  0  0  0  0  0  0  0  0  0
   -5.6588   -1.3290    1.3048 H   0  0  0  0  0  0  0  0  0  0  0  0
   -4.0347    0.7126   -1.5632 H   0  0  0  0  0  0  0  0  0  0  0  0
   -5.6983    0.2288   -1.9890 H   0  0  0  0  0  0  0  0  0  0  0  0
   -5.6860    2.6556   -2.2502 H   0  0  0  0  0  0  0  0  0  0  0  0
   -4.7822    2.8550   -0.7349 H   0  0  0  0  0  0  0  0  0  0  0  0
   -7.5781    1.7585   -1.1864 H   0  0  0  0  0  0  0  0  0  0  0  0
   -5.5816    4.3904    0.5291 H   0  0  0  0  0  0  0  0  0  0  0  0
   -7.0035    5.0876    1.2589 H   0  0  0  0  0  0  0  0  0  0  0  0
   -6.3652    3.5651    1.8942 H   0  0  0  0  0  0  0  0  0  0  0  0
   -8.7130    2.6088    1.5097 H   0  0  0  0  0  0  0  0  0  0  0  0
   -9.1852    4.1938    0.8675 H   0  0  0  0  0  0  0  0  0  0  0  0
   -9.4107    2.7600   -0.1178 H   0  0  0  0  0  0  0  0  0  0  0  0
   -7.4333    0.3165    0.5390 H   0  0  0  0  0  0  0  0  0  0  0  0
   -6.4466    1.3605    1.5691 H   0  0  0  0  0  0  0  0  0  0  0  0
   -2.2140   -4.0734   -1.6640 H   0  0  0  0  0  0  0  0  0  0  0  0
    2.9163   -0.8981    0.1963 H   0  0  0  0  0  0  0  0  0  0  0  0
    6.5853   -1.3118    0.3542 H   0  0  0  0  0  0  0  0  0  0  0  0
    3.3789    2.7796    0.3926 H   0  0  0  0  0  0  0  0  0  0  0  0
    5.4624    4.1135    0.5311 H   0  0  0  0  0  0  0  0  0  0  0  0
    7.4492    4.8685    1.4291 H   0  0  0  0  0  0  0  0  0  0  0  0
   11.4930    4.4987    0.8214 H   0  0  0  0  0  0  0  0  0  0  0  0
    9.1450    1.2514   -0.1130 H   0  0  0  0  0  0  0  0  0  0  0  0
  1  2  1  0
  2  3  2  0
  3  4  1  0
  4  5  2  0
  5  6  1  0
  6  7  1  0
  7  8  2  0
  7  9  1  0
  9 10  2  0
 10 11  1  0
 11 12  2  0
 12 13  1  0
 13 14  1  0
 14 15  1  0
 15 16  1  0
 16 17  1  0
 17 18  1  0
 18 19  1  0
 18 20  1  0
 17 21  1  0
 12 22  1  0
 22 23  1  0
 23 24  1  0
 23 25  1  0
 23 26  1  0
 22 27  2  0
  5 28  1  0
 28 29  2  0
 29 30  1  0
 30 31  1  0
 31 32  2  0
 32 33  1  0
 33 34  2  0
 34 35  1  0
 35 36  1  0
 36 37  2  0
 37 38  1  0
 38 39  2  0
 39 40  1  0
 40 41  2  0
 35 42  2  0
 29  2  1  0
 42 31  1  0
 27  9  1  0
 41 36  1  0
 21 14  1  0
  1 43  1  0
  1 44  1  0
  1 45  1  0
  3 46  1  0
  4 47  1  0
  6 48  1  0
 10 49  1  0
 11 50  1  0
 13 51  1  0
 13 52  1  0
 15 53  1  0
 15 54  1  0
 16 55  1  0
 16 56  1  0
 17 57  1  6
 19 58  1  0
 19 59  1  0
 19 60  1  0
 20 61  1  0
 20 62  1  0
 20 63  1  0
 21 64  1  0
 21 65  1  0
 27 66  1  0
 28 67  1  0
 30 68  1  0
 33 69  1  0
 34 70  1  0
 37 71  1  0
 39 72  1  0
 41 73  1  0
M  END
$$$$
