
     RDKit          3D

 28 29  0  0  0  0  0  0  0  0999 V2000
    4.2713    0.9407   -0.0309 O   0  0  0  0  0  0  0  0  0  0  0  0
    4.5308    0.1401    0.8542 C   0  0  0  0  0  0  0  0  0  0  0  0
    5.7751   -0.3693    0.9678 O   0  0  0  0  0  0  0  0  0  0  0  0
    3.5977   -0.3534    1.9484 C   0  0  0  0  0  0  0  0  0  0  0  0
    2.2211   -0.0068    1.6501 N   0  0  0  0  0  0  0  0  0  0  0  0
    1.4170   -0.8302    0.8939 C   0  0  0  0  0  0  0  0  0  0  0  0
    1.7088   -1.9795    0.5758 O   0  0  0  0  0  0  0  0  0  0  0  0
    0.1248   -0.2204    0.4464 C   0  0  0  0  0  0  0  0  0  0  0  0
   -0.0718    1.0646    0.8339 N   0  0  0  0  0  0  0  0  0  0  0  0
   -1.2320    1.6267    0.4323 C   0  0  0  0  0  0  0  0  0  0  0  0
   -1.3725    3.2562    0.9845 Cl  0  0  0  0  0  0  0  0  0  0  0  0
   -2.2297    0.9959   -0.3385 C   0  0  0  0  0  0  0  0  0  0  0  0
   -3.4418    1.6071   -0.7477 C   0  0  0  0  0  0  0  0  0  0  0  0
   -4.3821    0.9149   -1.5115 C   0  0  0  0  0  0  0  0  0  0  0  0
   -4.1357   -0.3994   -1.8839 C   0  0  0  0  0  0  0  0  0  0  0  0
   -2.9497   -1.0211   -1.4927 C   0  0  0  0  0  0  0  0  0  0  0  0
   -1.9824   -0.3438   -0.7201 C   0  0  0  0  0  0  0  0  0  0  0  0
   -0.7812   -0.9578   -0.3183 C   0  0  0  0  0  0  0  0  0  0  0  0
   -0.5496   -2.2590   -0.6956 O   0  0  0  0  0  0  0  0  0  0  0  0
    6.2610    0.0232    0.2119 H   0  0  0  0  0  0  0  0  0  0  0  0
    3.6911   -1.4394    2.0409 H   0  0  0  0  0  0  0  0  0  0  0  0
    3.8670    0.1343    2.8889 H   0  0  0  0  0  0  0  0  0  0  0  0
    1.9435    0.9728    1.6747 H   0  0  0  0  0  0  0  0  0  0  0  0
   -3.6657    2.6364   -0.4731 H   0  0  0  0  0  0  0  0  0  0  0  0
   -5.3049    1.4037   -1.8144 H   0  0  0  0  0  0  0  0  0  0  0  0
   -4.8632   -0.9454   -2.4794 H   0  0  0  0  0  0  0  0  0  0  0  0
   -2.7779   -2.0533   -1.7972 H   0  0  0  0  0  0  0  0  0  0  0  0
    0.3312   -2.5378   -0.3539 H   0  0  0  0  0  0  0  0  0  0  0  0
  1  2  2  0
  2  3  1  0
  2  4  1  0
  4  5  1  0
  5  6  1  0
  6  7  2  0
  6  8  1  0
  8  9  2  0
  9 10  1  0
 10 11  1  0
 10 12  2  0
 12 13  1  0
 13 14  2  0
 14 15  1  0
 15 16  2  0
 16 17  1  0
 17 18  2  0
 18 19  1  0
 18  8  1  0
 17 12  1  0
  3 20  1  0
  4 21  1  0
  4 22  1  0
  5 23  1  0
 13 24  1  0
 14 25  1  0
 15 26  1  0
 16 27  1  0
 19 28  1  0
M  END
$$$$
