
     RDKit          3D

 19 18  0  0  0  0  0  0  0  0999 V2000
   -3.0307   -0.0775    0.5272 C   0  0  0  0  0  0  0  0  0  0  0  0
   -1.5874    0.1645    0.8782 C   0  0  0  0  0  0  0  0  0  0  0  0
   -1.2529    0.8056    1.8677 O   0  0  0  0  0  0  0  0  0  0  0  0
   -0.6915   -0.3875   -0.0096 N   0  0  0  0  0  0  0  0  0  0  0  0
    0.7423   -0.0635    0.0837 C   0  0  1  0  0  0  0  0  0  0  0  0
    1.5809   -1.2535   -0.3864 C   0  0  0  0  0  0  0  0  0  0  0  0
    3.3586   -1.0911   -0.0224 S   0  0  0  0  0  0  0  0  0  0  0  0
    0.9710    1.1412   -0.8243 C   0  0  0  0  0  0  0  0  0  0  0  0
    0.4229    1.3328   -1.9017 O   0  0  0  0  0  0  0  0  0  0  0  0
    1.8703    2.0200   -0.3444 O   0  0  0  0  0  0  0  0  0  0  0  0
   -3.1352   -0.8750   -0.2139 H   0  0  0  0  0  0  0  0  0  0  0  0
   -3.5731   -0.3760    1.4286 H   0  0  0  0  0  0  0  0  0  0  0  0
   -3.4605    0.8434    0.1249 H   0  0  0  0  0  0  0  0  0  0  0  0
   -1.0424   -0.5570   -0.9469 H   0  0  0  0  0  0  0  0  0  0  0  0
    0.9732    0.2070    1.1201 H   0  0  0  0  0  0  0  0  0  0  0  0
    1.4718   -1.4056   -1.4663 H   0  0  0  0  0  0  0  0  0  0  0  0
    1.2348   -2.1702    0.1042 H   0  0  0  0  0  0  0  0  0  0  0  0
    3.2400   -0.9921    1.3111 H   0  0  0  0  0  0  0  0  0  0  0  0
    1.9081    2.7346   -1.0137 H   0  0  0  0  0  0  0  0  0  0  0  0
  1  2  1  0
  2  3  2  0
  2  4  1  0
  4  5  1  0
  5  6  1  0
  6  7  1  0
  5  8  1  0
  8  9  2  0
  8 10  1  0
  1 11  1  0
  1 12  1  0
  1 13  1  0
  4 14  1  0
  5 15  1  1
  6 16  1  0
  6 17  1  0
  7 18  1  0
 10 19  1  0
M  END
$$$$
