
     RDKit          3D

 47 50  0  0  0  0  0  0  0  0999 V2000
    4.9869    3.6097    1.7122 N   0  0  0  0  0  0  0  0  0  0  0  0
    4.8558    2.4800    1.4791 C   0  0  0  0  0  0  0  0  0  0  0  0
    4.7423    1.0424    1.1638 C   0  0  2  0  0  0  0  0  0  0  0  0
    5.9107    0.6063    0.2720 C   0  0  0  0  0  0  0  0  0  0  0  0
    5.3314   -0.5547   -0.5166 C   0  0  0  0  0  0  0  0  0  0  0  0
    3.8952   -0.1205   -0.7731 C   0  0  0  0  0  0  0  0  0  0  0  0
    3.5499    0.6996    0.3778 N   0  0  0  0  0  0  0  0  0  0  0  0
    2.2894    0.8796    0.9038 C   0  0  0  0  0  0  0  0  0  0  0  0
    2.1379    1.2844    2.0594 O   0  0  0  0  0  0  0  0  0  0  0  0
    1.0705    0.6096    0.0008 C   0  0  0  0  0  0  0  0  0  0  0  0
    0.0722   -0.1339    0.7832 N   0  0  0  0  0  0  0  0  0  0  0  0
   -1.2838   -0.2086    0.2204 C   0  0  0  0  0  0  0  0  0  0  0  0
   -1.9898    1.1732    0.1760 C   0  0  0  0  0  0  0  0  0  0  0  0
   -3.4382    1.0258   -0.3317 C   0  0  0  0  0  0  0  0  0  0  0  0
   -3.4200    0.4103   -1.7392 C   0  0  0  0  0  0  0  0  0  0  0  0
   -2.7513   -0.9744   -1.7065 C   0  0  0  0  0  0  0  0  0  0  0  0
   -3.5324   -1.8934   -0.7545 C   0  0  0  0  0  0  0  0  0  0  0  0
   -3.5524   -1.2828    0.6548 C   0  0  0  0  0  0  0  0  0  0  0  0
   -4.2674   -2.1291    1.5466 O   0  0  0  0  0  0  0  0  0  0  0  0
   -4.2204    0.0998    0.6106 C   0  0  0  0  0  0  0  0  0  0  0  0
   -2.1060   -1.1323    1.1583 C   0  0  0  0  0  0  0  0  0  0  0  0
   -1.3022   -0.8251   -1.2003 C   0  0  0  0  0  0  0  0  0  0  0  0
    4.7234    0.4401    2.0817 H   0  0  0  0  0  0  0  0  0  0  0  0
    6.7946    0.3256    0.8523 H   0  0  0  0  0  0  0  0  0  0  0  0
    6.2044    1.4053   -0.4157 H   0  0  0  0  0  0  0  0  0  0  0  0
    5.8816   -0.7664   -1.4396 H   0  0  0  0  0  0  0  0  0  0  0  0
    5.3453   -1.4607    0.0977 H   0  0  0  0  0  0  0  0  0  0  0  0
    3.2320   -0.9845   -0.8677 H   0  0  0  0  0  0  0  0  0  0  0  0
    3.8186    0.5072   -1.6684 H   0  0  0  0  0  0  0  0  0  0  0  0
    0.7062    1.5928   -0.3170 H   0  0  0  0  0  0  0  0  0  0  0  0
    1.3446    0.0390   -0.8901 H   0  0  0  0  0  0  0  0  0  0  0  0
    0.0326    0.2906    1.7173 H   0  0  0  0  0  0  0  0  0  0  0  0
   -1.9937    1.6373    1.1673 H   0  0  0  0  0  0  0  0  0  0  0  0
   -1.4547    1.8621   -0.4898 H   0  0  0  0  0  0  0  0  0  0  0  0
   -3.9181    2.0104   -0.3653 H   0  0  0  0  0  0  0  0  0  0  0  0
   -4.4454    0.3230   -2.1209 H   0  0  0  0  0  0  0  0  0  0  0  0
   -2.8763    1.0704   -2.4283 H   0  0  0  0  0  0  0  0  0  0  0  0
   -2.7460   -1.4007   -2.7117 H   0  0  0  0  0  0  0  0  0  0  0  0
   -3.0821   -2.8925   -0.7226 H   0  0  0  0  0  0  0  0  0  0  0  0
   -4.5592   -2.0400   -1.1164 H   0  0  0  0  0  0  0  0  0  0  0  0
   -5.1371   -2.3151    1.1561 H   0  0  0  0  0  0  0  0  0  0  0  0
   -5.2633    0.0063    0.2793 H   0  0  0  0  0  0  0  0  0  0  0  0
   -4.2674    0.5338    1.6164 H   0  0  0  0  0  0  0  0  0  0  0  0
   -1.6424   -2.1214    1.2385 H   0  0  0  0  0  0  0  0  0  0  0  0
   -2.1174   -0.7367    2.1844 H   0  0  0  0  0  0  0  0  0  0  0  0
   -0.8099   -1.8033   -1.1981 H   0  0  0  0  0  0  0  0  0  0  0  0
   -0.7488   -0.1884   -1.9015 H   0  0  0  0  0  0  0  0  0  0  0  0
  1  2  3  0
  2  3  1  0
  3  4  1  0
  4  5  1  0
  5  6  1  0
  6  7  1  0
  7  8  1  0
  8  9  2  0
  8 10  1  0
 10 11  1  0
 11 12  1  0
 12 13  1  0
 13 14  1  0
 14 15  1  0
 15 16  1  0
 16 17  1  0
 17 18  1  0
 18 19  1  0
 18 20  1  0
 18 21  1  0
 16 22  1  0
  7  3  1  0
 21 12  1  0
 22 12  1  0
 20 14  1  0
  3 23  1  1
  4 24  1  0
  4 25  1  0
  5 26  1  0
  5 27  1  0
  6 28  1  0
  6 29  1  0
 10 30  1  0
 10 31  1  0
 11 32  1  0
 13 33  1  0
 13 34  1  0
 14 35  1  0
 15 36  1  0
 15 37  1  0
 16 38  1  0
 17 39  1  0
 17 40  1  0
 19 41  1  0
 20 42  1  0
 20 43  1  0
 21 44  1  0
 21 45  1  0
 22 46  1  0
 22 47  1  0
M  END
$$$$
