
     RDKit          3D

 58 61  0  0  0  0  0  0  0  0999 V2000
    1.9376   -2.7580    1.2760 C   0  0  0  0  0  0  0  0  0  0  0  0
    1.8294   -1.7925    0.0982 C   0  0  1  0  0  0  0  0  0  0  0  0
    0.4757   -1.3324    0.0451 O   0  0  0  0  0  0  0  0  0  0  0  0
    0.1153   -0.8033   -1.2377 C   0  0  1  0  0  0  0  0  0  0  0  0
    0.0277   -1.8674   -2.1996 O   0  0  0  0  0  0  0  0  0  0  0  0
   -1.2729   -2.4613   -2.2880 C   0  0  0  0  0  0  0  0  0  0  0  0
   -2.1636   -2.2429   -1.0532 C   0  0  0  0  0  0  0  0  0  0  0  0
   -2.4077   -0.8166   -0.7376 N   0  0  0  0  0  0  0  0  0  0  0  0
   -3.6482   -0.3112   -1.3623 C   0  0  0  0  0  0  0  0  0  0  0  0
   -4.8492   -0.8578   -0.6335 C   0  0  0  0  0  0  0  0  0  0  0  0
   -5.9276   -1.3176   -1.2023 N   0  0  0  0  0  0  0  0  0  0  0  0
   -6.7119   -1.6917   -0.1395 N   0  0  0  0  0  0  0  0  0  0  0  0
   -6.0454   -1.4720    1.0593 C   0  0  0  0  0  0  0  0  0  0  0  0
   -6.4167   -1.7746    2.1783 O   0  0  0  0  0  0  0  0  0  0  0  0
   -4.8717   -0.8796    0.7127 N   0  0  0  0  0  0  0  0  0  0  0  0
   -1.2329    0.0068   -1.1646 C   0  0  1  0  0  0  0  0  0  0  0  0
   -1.0846    1.2525   -0.2967 C   0  0  0  0  0  0  0  0  0  0  0  0
   -1.1649    1.1764    1.1057 C   0  0  0  0  0  0  0  0  0  0  0  0
   -1.0144    2.3202    1.8904 C   0  0  0  0  0  0  0  0  0  0  0  0
   -0.7802    3.5438    1.2774 C   0  0  0  0  0  0  0  0  0  0  0  0
   -0.6358    4.6422    2.0296 F   0  0  0  0  0  0  0  0  0  0  0  0
   -0.6897    3.6446   -0.1054 C   0  0  0  0  0  0  0  0  0  0  0  0
   -0.8404    2.5017   -0.8932 C   0  0  0  0  0  0  0  0  0  0  0  0
    2.7831   -0.6226    0.2755 C   0  0  0  0  0  0  0  0  0  0  0  0
    3.9348   -0.5249   -0.5192 C   0  0  0  0  0  0  0  0  0  0  0  0
    4.8197    0.5574   -0.3840 C   0  0  0  0  0  0  0  0  0  0  0  0
    6.0378    0.6608   -1.2719 C   0  0  0  0  0  0  0  0  0  0  0  0
    5.7495    1.2280   -2.4752 F   0  0  0  0  0  0  0  0  0  0  0  0
    6.5950   -0.5502   -1.5515 F   0  0  0  0  0  0  0  0  0  0  0  0
    7.0343    1.4139   -0.7298 F   0  0  0  0  0  0  0  0  0  0  0  0
    4.5296    1.5590    0.5563 C   0  0  0  0  0  0  0  0  0  0  0  0
    3.3882    1.4794    1.3705 C   0  0  0  0  0  0  0  0  0  0  0  0
    3.0844    2.5774    2.3634 C   0  0  0  0  0  0  0  0  0  0  0  0
    4.1761    2.9278    3.0996 F   0  0  0  0  0  0  0  0  0  0  0  0
    2.1188    2.2474    3.2649 F   0  0  0  0  0  0  0  0  0  0  0  0
    2.6629    3.7191    1.7547 F   0  0  0  0  0  0  0  0  0  0  0  0
    2.5269    0.3831    1.2213 C   0  0  0  0  0  0  0  0  0  0  0  0
    1.2566   -3.6046    1.1331 H   0  0  0  0  0  0  0  0  0  0  0  0
    1.6450   -2.2797    2.2178 H   0  0  0  0  0  0  0  0  0  0  0  0
    2.9559   -3.1450    1.3865 H   0  0  0  0  0  0  0  0  0  0  0  0
    2.0684   -2.3478   -0.8173 H   0  0  0  0  0  0  0  0  0  0  0  0
    0.9029   -0.1244   -1.5860 H   0  0  0  0  0  0  0  0  0  0  0  0
   -1.7604   -2.0620   -3.1847 H   0  0  0  0  0  0  0  0  0  0  0  0
   -1.1275   -3.5337   -2.4543 H   0  0  0  0  0  0  0  0  0  0  0  0
   -1.6709   -2.6895   -0.1812 H   0  0  0  0  0  0  0  0  0  0  0  0
   -3.1022   -2.7960   -1.1744 H   0  0  0  0  0  0  0  0  0  0  0  0
   -3.7071   -0.5651   -2.4269 H   0  0  0  0  0  0  0  0  0  0  0  0
   -3.7137    0.7798   -1.2702 H   0  0  0  0  0  0  0  0  0  0  0  0
   -7.6000   -2.1621   -0.2483 H   0  0  0  0  0  0  0  0  0  0  0  0
   -4.1005   -0.6858    1.3288 H   0  0  0  0  0  0  0  0  0  0  0  0
   -1.4246    0.3322   -2.1989 H   0  0  0  0  0  0  0  0  0  0  0  0
   -1.3339    0.2162    1.5906 H   0  0  0  0  0  0  0  0  0  0  0  0
   -1.0711    2.2637    2.9730 H   0  0  0  0  0  0  0  0  0  0  0  0
   -0.5015    4.6126   -0.5595 H   0  0  0  0  0  0  0  0  0  0  0  0
   -0.7660    2.5959   -1.9746 H   0  0  0  0  0  0  0  0  0  0  0  0
    4.1475   -1.2972   -1.2596 H   0  0  0  0  0  0  0  0  0  0  0  0
    5.2008    2.4136    0.6589 H   0  0  0  0  0  0  0  0  0  0  0  0
    1.6332    0.3138    1.8425 H   0  0  0  0  0  0  0  0  0  0  0  0
  1  2  1  0
  2  3  1  0
  3  4  1  0
  4  5  1  0
  5  6  1  0
  6  7  1  0
  7  8  1  0
  8  9  1  0
  9 10  1  0
 10 11  2  0
 11 12  1  0
 12 13  1  0
 13 14  2  0
 13 15  1  0
  8 16  1  0
 16 17  1  0
 17 18  2  0
 18 19  1  0
 19 20  2  0
 20 21  1  0
 20 22  1  0
 22 23  2  0
  2 24  1  0
 24 25  2  0
 25 26  1  0
 26 27  1  0
 27 28  1  0
 27 29  1  0
 27 30  1  0
 26 31  2  0
 31 32  1  0
 32 33  1  0
 33 34  1  0
 33 35  1  0
 33 36  1  0
 32 37  2  0
 16  4  1  0
 23 17  1  0
 37 24  1  0
 15 10  1  0
  1 38  1  0
  1 39  1  0
  1 40  1  0
  2 41  1  6
  4 42  1  6
  6 43  1  0
  6 44  1  0
  7 45  1  0
  7 46  1  0
  9 47  1  0
  9 48  1  0
 12 49  1  0
 15 50  1  0
 16 51  1  6
 18 52  1  0
 19 53  1  0
 22 54  1  0
 23 55  1  0
 25 56  1  0
 31 57  1  0
 37 58  1  0
M  END
$$$$
