
     RDKit          3D

 65 69  0  0  0  0  0  0  0  0999 V2000
    7.6296   -0.4594    3.0265 C   0  0  0  0  0  0  0  0  0  0  0  0
    6.3758   -0.7146    2.3213 N   0  0  0  0  0  0  0  0  0  0  0  0
    6.6146   -1.5328    1.1113 C   0  0  0  0  0  0  0  0  0  0  0  0
    5.3291   -1.7814    0.2849 C   0  0  0  0  0  0  0  0  0  0  0  0
    4.6792   -0.4947   -0.0665 N   0  0  0  0  0  0  0  0  0  0  0  0
    3.6423   -0.6268   -1.0056 C   0  0  0  0  0  0  0  0  0  0  0  0
    3.9507   -1.0681   -2.3009 C   0  0  0  0  0  0  0  0  0  0  0  0
    2.9690   -1.1989   -3.2839 C   0  0  0  0  0  0  0  0  0  0  0  0
    1.6483   -0.8695   -2.9856 C   0  0  0  0  0  0  0  0  0  0  0  0
    0.6353   -0.9933   -3.9056 O   0  0  0  0  0  0  0  0  0  0  0  0
    0.8941   -0.3077   -5.1250 C   0  0  0  0  0  0  0  0  0  0  0  0
    1.3901    0.9292   -4.9129 F   0  0  0  0  0  0  0  0  0  0  0  0
   -0.2755   -0.1812   -5.7936 F   0  0  0  0  0  0  0  0  0  0  0  0
    1.7436   -1.0116   -5.9032 F   0  0  0  0  0  0  0  0  0  0  0  0
    1.2822   -0.4534   -1.6905 C   0  0  0  0  0  0  0  0  0  0  0  0
   -0.0681   -0.1578   -1.4401 N   0  0  0  0  0  0  0  0  0  0  0  0
   -0.7716    0.3496   -0.3547 C   0  0  0  0  0  0  0  0  0  0  0  0
   -0.1468    0.8102    0.7419 N   0  0  0  0  0  0  0  0  0  0  0  0
   -0.9031    1.3028    1.7415 C   0  0  0  0  0  0  0  0  0  0  0  0
   -2.2706    1.3649    1.6867 C   0  0  0  0  0  0  0  0  0  0  0  0
   -2.8189    0.8502    0.5220 C   0  0  0  0  0  0  0  0  0  0  0  0
   -2.1072    0.3482   -0.4990 N   0  0  0  0  0  0  0  0  0  0  0  0
   -4.2654    0.8778    0.3996 C   0  0  0  0  0  0  0  0  0  0  0  0
   -5.0828    1.5597    1.2811 C   0  0  0  0  0  0  0  0  0  0  0  0
   -6.4048    1.3457    0.8271 C   0  0  0  0  0  0  0  0  0  0  0  0
   -7.6536    1.8638    1.4033 C   0  0  0  0  0  0  0  0  0  0  0  0
   -8.7783    1.4750    0.7316 N   0  0  0  0  0  0  0  0  0  0  0  0
   -7.7108    2.5777    2.3994 O   0  0  0  0  0  0  0  0  0  0  0  0
   -6.4068    0.5678   -0.2771 N   0  0  0  0  0  0  0  0  0  0  0  0
   -5.1008    0.2816   -0.5035 N   0  0  0  0  0  0  0  0  0  0  0  0
   -4.7477   -0.5288   -1.6583 C   0  0  0  0  0  0  0  0  0  0  0  0
   -4.2645   -1.9257   -1.2814 C   0  0  0  0  0  0  0  0  0  0  0  0
   -5.3673   -2.8064   -1.0767 O   0  0  0  0  0  0  0  0  0  0  0  0
   -4.5303    2.3589    2.4113 C   0  0  0  0  0  0  0  0  0  0  0  0
   -3.1297    1.8459    2.8311 C   0  0  0  0  0  0  0  0  0  0  0  0
    2.2979   -0.3180   -0.7315 C   0  0  0  0  0  0  0  0  0  0  0  0
    4.4234    0.3354    1.1313 C   0  0  0  0  0  0  0  0  0  0  0  0
    5.7338    0.5582    1.9217 C   0  0  0  0  0  0  0  0  0  0  0  0
    7.4459    0.1238    3.9357 H   0  0  0  0  0  0  0  0  0  0  0  0
    8.0887   -1.4020    3.3444 H   0  0  0  0  0  0  0  0  0  0  0  0
    8.3527    0.0848    2.4083 H   0  0  0  0  0  0  0  0  0  0  0  0
    7.0259   -2.5057    1.4057 H   0  0  0  0  0  0  0  0  0  0  0  0
    7.3577   -1.0447    0.4659 H   0  0  0  0  0  0  0  0  0  0  0  0
    4.6315   -2.4022    0.8633 H   0  0  0  0  0  0  0  0  0  0  0  0
    5.6129   -2.3480   -0.6094 H   0  0  0  0  0  0  0  0  0  0  0  0
    4.9824   -1.2930   -2.5617 H   0  0  0  0  0  0  0  0  0  0  0  0
    3.2622   -1.5634   -4.2635 H   0  0  0  0  0  0  0  0  0  0  0  0
   -0.7070   -0.4256   -2.1749 H   0  0  0  0  0  0  0  0  0  0  0  0
   -0.3485    1.6478    2.6096 H   0  0  0  0  0  0  0  0  0  0  0  0
   -9.6883    1.7385    1.0724 H   0  0  0  0  0  0  0  0  0  0  0  0
   -8.6689    0.8461   -0.0578 H   0  0  0  0  0  0  0  0  0  0  0  0
   -5.6311   -0.5856   -2.3049 H   0  0  0  0  0  0  0  0  0  0  0  0
   -3.9746    0.0215   -2.2035 H   0  0  0  0  0  0  0  0  0  0  0  0
   -3.6505   -1.9307   -0.3765 H   0  0  0  0  0  0  0  0  0  0  0  0
   -3.6741   -2.3395   -2.1052 H   0  0  0  0  0  0  0  0  0  0  0  0
   -5.0050   -3.6569   -0.7737 H   0  0  0  0  0  0  0  0  0  0  0  0
   -5.1971    2.3416    3.2797 H   0  0  0  0  0  0  0  0  0  0  0  0
   -4.4460    3.4028    2.0826 H   0  0  0  0  0  0  0  0  0  0  0  0
   -3.2563    1.0004    3.5207 H   0  0  0  0  0  0  0  0  0  0  0  0
   -2.6150    2.6403    3.3850 H   0  0  0  0  0  0  0  0  0  0  0  0
    2.0274    0.0103    0.2645 H   0  0  0  0  0  0  0  0  0  0  0  0
    3.6897   -0.1501    1.7881 H   0  0  0  0  0  0  0  0  0  0  0  0
    4.0322    1.3170    0.8366 H   0  0  0  0  0  0  0  0  0  0  0  0
    6.4219    1.1561    1.3087 H   0  0  0  0  0  0  0  0  0  0  0  0
    5.4967    1.1440    2.8180 H   0  0  0  0  0  0  0  0  0  0  0  0
  1  2  1  0
  2  3  1  0
  3  4  1  0
  4  5  1  0
  5  6  1  0
  6  7  2  0
  7  8  1  0
  8  9  2  0
  9 10  1  0
 10 11  1  0
 11 12  1  0
 11 13  1  0
 11 14  1  0
  9 15  1  0
 15 16  1  0
 16 17  1  0
 17 18  2  0
 18 19  1  0
 19 20  2  0
 20 21  1  0
 21 22  2  0
 21 23  1  0
 23 24  2  0
 24 25  1  0
 25 26  1  0
 26 27  1  0
 26 28  2  0
 25 29  2  0
 29 30  1  0
 30 31  1  0
 31 32  1  0
 32 33  1  0
 24 34  1  0
 34 35  1  0
 15 36  2  0
  5 37  1  0
 37 38  1  0
 38  2  1  0
 36  6  1  0
 22 17  1  0
 30 23  1  0
 35 20  1  0
  1 39  1  0
  1 40  1  0
  1 41  1  0
  3 42  1  0
  3 43  1  0
  4 44  1  0
  4 45  1  0
  7 46  1  0
  8 47  1  0
 16 48  1  0
 19 49  1  0
 27 50  1  0
 27 51  1  0
 31 52  1  0
 31 53  1  0
 32 54  1  0
 32 55  1  0
 33 56  1  0
 34 57  1  0
 34 58  1  0
 35 59  1  0
 35 60  1  0
 36 61  1  0
 37 62  1  0
 37 63  1  0
 38 64  1  0
 38 65  1  0
M  END
$$$$
