
     RDKit          3D

 50 51  0  0  0  0  0  0  0  0999 V2000
   -6.5520    1.6808   -0.5189 C   0  0  0  0  0  0  0  0  0  0  0  0
   -5.7593    2.4294    0.4280 N   0  0  0  0  0  0  0  0  0  0  0  0
   -4.7586    1.3316    1.3112 S   0  0  0  0  0  6  0  0  0  0  0  0
   -5.5697    0.2989    2.0239 O   0  0  0  0  0  0  0  0  0  0  0  0
   -3.9668    2.1068    2.3181 O   0  0  0  0  0  0  0  0  0  0  0  0
   -3.6411    0.4738    0.2306 C   0  0  0  0  0  0  0  0  0  0  0  0
   -2.8069   -0.4614    1.0726 C   0  0  0  0  0  0  0  0  0  0  0  0
   -1.8369   -1.2340    0.2538 C   0  0  0  0  0  0  0  0  0  0  0  0
   -2.1193   -2.4439   -0.3044 C   0  0  0  0  0  0  0  0  0  0  0  0
   -1.1767   -3.1065   -1.0539 C   0  0  0  0  0  0  0  0  0  0  0  0
    0.0753   -2.5420   -1.2464 C   0  0  0  0  0  0  0  0  0  0  0  0
    1.1806   -2.9383   -1.9166 N   0  0  0  0  0  0  0  0  0  0  0  0
    2.1514   -2.0203   -1.8004 C   0  0  0  0  0  0  0  0  0  0  0  0
    1.6761   -0.9917   -1.0342 C   0  0  0  0  0  0  0  0  0  0  0  0
    2.3230    0.2568   -0.5938 C   0  0  0  0  0  0  0  0  0  0  0  0
    3.6743    0.4569   -1.2263 C   0  0  0  0  0  0  0  0  0  0  0  0
    4.3930    1.6349   -0.7129 C   0  0  0  0  0  0  0  0  0  0  0  0
    4.2592    1.9506    0.6620 N   0  0  0  0  0  0  0  0  0  0  0  0
    5.3793    1.5475    1.4793 C   0  0  0  0  0  0  0  0  0  0  0  0
    3.0054    1.6277    1.2655 C   0  0  0  0  0  0  0  0  0  0  0  0
    2.5969    0.2016    0.9058 C   0  0  0  0  0  0  0  0  0  0  0  0
    0.3764   -1.3283   -0.6935 C   0  0  0  0  0  0  0  0  0  0  0  0
   -0.5918   -0.6837    0.0563 C   0  0  0  0  0  0  0  0  0  0  0  0
    0.6860    0.0000    0.0000 Cl  0  0  0  0  0  0  0  0  0  0  0  0
   -7.0820    0.8739    0.0137 H   0  0  0  0  0  0  0  0  0  0  0  0
   -7.3246    2.3170   -1.0082 H   0  0  0  0  0  0  0  0  0  0  0  0
   -5.9380    1.1969   -1.3017 H   0  0  0  0  0  0  0  0  0  0  0  0
   -5.2197    3.1981    0.0174 H   0  0  0  0  0  0  0  0  0  0  0  0
   -2.9620    1.2648   -0.1943 H   0  0  0  0  0  0  0  0  0  0  0  0
   -4.1327   -0.0185   -0.6071 H   0  0  0  0  0  0  0  0  0  0  0  0
   -3.4240   -1.1849    1.6280 H   0  0  0  0  0  0  0  0  0  0  0  0
   -2.2318    0.1216    1.8157 H   0  0  0  0  0  0  0  0  0  0  0  0
   -3.1010   -2.8654   -0.1415 H   0  0  0  0  0  0  0  0  0  0  0  0
   -1.3775   -4.0712   -1.5090 H   0  0  0  0  0  0  0  0  0  0  0  0
    1.2038   -3.8553   -2.4361 H   0  0  0  0  0  0  0  0  0  0  0  0
    3.1351   -2.0476   -2.2158 H   0  0  0  0  0  0  0  0  0  0  0  0
    1.6911    1.1120   -0.8132 H   0  0  0  0  0  0  0  0  0  0  0  0
    3.4891    0.5865   -2.3332 H   0  0  0  0  0  0  0  0  0  0  0  0
    4.2731   -0.4664   -1.1370 H   0  0  0  0  0  0  0  0  0  0  0  0
    4.1266    2.5408   -1.3201 H   0  0  0  0  0  0  0  0  0  0  0  0
    5.4961    1.4805   -0.9071 H   0  0  0  0  0  0  0  0  0  0  0  0
    6.2894    2.1254    1.3033 H   0  0  0  0  0  0  0  0  0  0  0  0
    5.4966    0.4521    1.3576 H   0  0  0  0  0  0  0  0  0  0  0  0
    5.0810    1.7156    2.5407 H   0  0  0  0  0  0  0  0  0  0  0  0
    3.1108    1.6681    2.3687 H   0  0  0  0  0  0  0  0  0  0  0  0
    2.1688    2.2743    0.9705 H   0  0  0  0  0  0  0  0  0  0  0  0
    3.4888   -0.4818    1.0067 H   0  0  0  0  0  0  0  0  0  0  0  0
    1.7732   -0.1713    1.4997 H   0  0  0  0  0  0  0  0  0  0  0  0
   -0.3419    0.2952    0.4966 H   0  0  0  0  0  0  0  0  0  0  0  0
   -0.6860    0.0000    0.0000 H   0  0  0  0  0  0  0  0  0  0  0  0
  1  2  1  0
  2  3  1  0
  3  4  2  0
  3  5  2  0
  3  6  1  0
  6  7  1  0
  7  8  1  0
  8  9  2  0
  9 10  1  0
 10 11  2  0
 11 12  1  0
 12 13  1  0
 13 14  2  0
 14 15  1  0
 15 16  1  0
 16 17  1  0
 17 18  1  0
 18 19  1  0
 18 20  1  0
 20 21  1  0
 14 22  1  0
 22 23  2  0
 23  8  1  0
 22 11  1  0
 21 15  1  0
  1 25  1  0
  1 26  1  0
  1 27  1  0
  2 28  1  0
  6 29  1  0
  6 30  1  0
  7 31  1  0
  7 32  1  0
  9 33  1  0
 10 34  1  0
 12 35  1  0
 13 36  1  0
 15 37  1  0
 16 38  1  0
 16 39  1  0
 17 40  1  0
 17 41  1  0
 19 42  1  0
 19 43  1  0
 19 44  1  0
 20 45  1  0
 20 46  1  0
 21 47  1  0
 21 48  1  0
 23 49  1  0
 24 50  1  0
M  END
$$$$
