
     RDKit          3D

 60 62  0  0  0  0  0  0  0  0999 V2000
    0.6830   -3.7483    2.5855 C   0  0  0  0  0  0  0  0  0  0  0  0
    0.7743   -3.9301    1.0634 C   0  0  0  0  0  0  0  0  0  0  0  0
    1.9471   -4.8404    0.6691 C   0  0  0  0  0  0  0  0  0  0  0  0
    0.8732   -2.6313    0.3616 N   0  0  0  0  0  0  0  0  0  0  0  0
    2.0115   -1.7472    0.6909 C   0  0  0  0  0  0  0  0  0  0  0  0
    2.6746   -1.2138   -0.5864 C   0  0  0  0  0  0  0  0  0  0  0  0
    4.0265   -0.5350   -0.3408 C   0  0  0  0  0  0  0  0  0  0  0  0
    4.0171    0.5747    0.7118 C   0  0  0  0  0  0  0  0  0  0  0  0
    2.9174    1.4705    0.5817 O   0  0  0  0  0  0  0  0  0  0  0  0
    3.0080    2.3599   -0.5247 C   0  0  0  0  0  0  0  0  0  0  0  0
    4.0524    3.4609   -0.4047 C   0  0  0  0  0  0  0  0  0  0  0  0
    4.8884    3.7512   -1.2487 O   0  0  0  0  0  0  0  0  0  0  0  0
    3.9830    4.1537    0.7546 O   0  0  0  0  0  0  0  0  0  0  0  0
   -0.3074   -1.9635    0.0046 C   0  0  0  0  0  0  0  0  0  0  0  0
   -1.4561   -2.6214   -0.4402 C   0  0  0  0  0  0  0  0  0  0  0  0
   -2.6154   -2.0082   -0.7984 N   0  0  0  0  0  0  0  0  0  0  0  0
   -2.6180   -0.6501   -0.7381 C   0  0  0  0  0  0  0  0  0  0  0  0
   -3.9133   -0.0360   -1.0836 C   0  0  0  0  0  0  0  0  0  0  0  0
   -4.5442    0.8940   -0.2369 C   0  0  0  0  0  0  0  0  0  0  0  0
   -5.7697    1.4692   -0.5844 C   0  0  0  0  0  0  0  0  0  0  0  0
   -6.3928    1.1176   -1.7809 C   0  0  0  0  0  0  0  0  0  0  0  0
   -5.7954    0.1874   -2.6267 C   0  0  0  0  0  0  0  0  0  0  0  0
   -4.5702   -0.3864   -2.2782 C   0  0  0  0  0  0  0  0  0  0  0  0
   -1.4608    0.0495   -0.3617 C   0  0  0  0  0  0  0  0  0  0  0  0
   -1.3114    1.5172   -0.3740 C   0  0  0  0  0  0  0  0  0  0  0  0
   -0.7887    2.1879    0.7444 C   0  0  0  0  0  0  0  0  0  0  0  0
   -0.6480    3.5776    0.7541 C   0  0  0  0  0  0  0  0  0  0  0  0
   -1.0164    4.3231   -0.3627 C   0  0  0  0  0  0  0  0  0  0  0  0
   -1.5111    3.6796   -1.4915 C   0  0  0  0  0  0  0  0  0  0  0  0
   -1.6516    2.2898   -1.4987 C   0  0  0  0  0  0  0  0  0  0  0  0
   -0.3289   -0.6121    0.0246 N   0  0  0  0  0  0  0  0  0  0  0  0
    0.5385   -4.7195    3.0773 H   0  0  0  0  0  0  0  0  0  0  0  0
    1.5895   -3.3019    3.0025 H   0  0  0  0  0  0  0  0  0  0  0  0
   -0.1636   -3.1016    2.8551 H   0  0  0  0  0  0  0  0  0  0  0  0
   -0.1220   -4.4764    0.7528 H   0  0  0  0  0  0  0  0  0  0  0  0
    1.8233   -5.8393    1.0936 H   0  0  0  0  0  0  0  0  0  0  0  0
    2.9109   -4.4523    1.0173 H   0  0  0  0  0  0  0  0  0  0  0  0
    1.9959   -4.9442   -0.4158 H   0  0  0  0  0  0  0  0  0  0  0  0
    1.7042   -0.9371    1.3647 H   0  0  0  0  0  0  0  0  0  0  0  0
    2.7752   -2.3066    1.2456 H   0  0  0  0  0  0  0  0  0  0  0  0
    2.8353   -2.0461   -1.2881 H   0  0  0  0  0  0  0  0  0  0  0  0
    2.0065   -0.5130   -1.1039 H   0  0  0  0  0  0  0  0  0  0  0  0
    4.7704   -1.2884   -0.0552 H   0  0  0  0  0  0  0  0  0  0  0  0
    4.3694   -0.1208   -1.2990 H   0  0  0  0  0  0  0  0  0  0  0  0
    3.9389    0.1223    1.7070 H   0  0  0  0  0  0  0  0  0  0  0  0
    4.9652    1.1252    0.6952 H   0  0  0  0  0  0  0  0  0  0  0  0
    2.0381    2.8570   -0.6385 H   0  0  0  0  0  0  0  0  0  0  0  0
    3.1819    1.8054   -1.4547 H   0  0  0  0  0  0  0  0  0  0  0  0
    4.6968    4.8182    0.6851 H   0  0  0  0  0  0  0  0  0  0  0  0
   -1.4901   -3.6979   -0.5586 H   0  0  0  0  0  0  0  0  0  0  0  0
   -4.0856    1.1780    0.7103 H   0  0  0  0  0  0  0  0  0  0  0  0
   -6.2372    2.1901    0.0820 H   0  0  0  0  0  0  0  0  0  0  0  0
   -7.3468    1.5627   -2.0504 H   0  0  0  0  0  0  0  0  0  0  0  0
   -6.2824   -0.0972   -3.5571 H   0  0  0  0  0  0  0  0  0  0  0  0
   -4.1188   -1.1180   -2.9468 H   0  0  0  0  0  0  0  0  0  0  0  0
   -0.4775    1.6176    1.6188 H   0  0  0  0  0  0  0  0  0  0  0  0
   -0.2452    4.0722    1.6336 H   0  0  0  0  0  0  0  0  0  0  0  0
   -0.9094    5.4036   -0.3553 H   0  0  0  0  0  0  0  0  0  0  0  0
   -1.7901    4.2564   -2.3696 H   0  0  0  0  0  0  0  0  0  0  0  0
   -2.0286    1.8113   -2.3994 H   0  0  0  0  0  0  0  0  0  0  0  0
  1  2  1  0
  2  3  1  0
  2  4  1  0
  4  5  1  0
  5  6  1  0
  6  7  1  0
  7  8  1  0
  8  9  1  0
  9 10  1  0
 10 11  1  0
 11 12  2  0
 11 13  1  0
  4 14  1  0
 14 15  2  0
 15 16  1  0
 16 17  2  0
 17 18  1  0
 18 19  2  0
 19 20  1  0
 20 21  2  0
 21 22  1  0
 22 23  2  0
 17 24  1  0
 24 25  1  0
 25 26  2  0
 26 27  1  0
 27 28  2  0
 28 29  1  0
 29 30  2  0
 24 31  2  0
 31 14  1  0
 23 18  1  0
 30 25  1  0
  1 32  1  0
  1 33  1  0
  1 34  1  0
  2 35  1  0
  3 36  1  0
  3 37  1  0
  3 38  1  0
  5 39  1  0
  5 40  1  0
  6 41  1  0
  6 42  1  0
  7 43  1  0
  7 44  1  0
  8 45  1  0
  8 46  1  0
 10 47  1  0
 10 48  1  0
 13 49  1  0
 15 50  1  0
 19 51  1  0
 20 52  1  0
 21 53  1  0
 22 54  1  0
 23 55  1  0
 26 56  1  0
 27 57  1  0
 28 58  1  0
 29 59  1  0
 30 60  1  0
M  END
$$$$
