
     RDKit          3D

 55 59  0  0  0  0  0  0  0  0999 V2000
    1.8569    0.7257    1.6368 C   0  0  0  0  0  0  0  0  0  0  0  0
    1.7147   -0.0734    0.3157 C   0  0  2  0  0  0  0  0  0  0  0  0
    1.2112    0.8331   -0.8192 C   0  0  0  0  0  0  0  0  0  0  0  0
   -0.2261    1.3286   -0.5589 C   0  0  0  0  0  0  0  0  0  0  0  0
   -1.2414    0.1945   -0.2479 C   0  0  1  0  0  0  0  0  0  0  0  0
   -0.7006   -0.7991    0.8280 C   0  0  1  0  0  0  0  0  0  0  0  0
   -1.6583   -1.9886    0.9697 C   0  0  0  0  0  0  0  0  0  0  0  0
   -3.0577   -1.5233    1.3528 C   0  0  0  0  0  0  0  0  0  0  0  0
   -3.6018   -0.4961    0.3872 C   0  0  0  0  0  0  0  0  0  0  0  0
   -4.8345   -0.6575   -0.1266 C   0  0  0  0  0  0  0  0  0  0  0  0
   -5.4670    0.3740   -0.9801 C   0  0  0  0  0  0  0  0  0  0  0  0
   -6.5829    0.1680   -1.4508 O   0  0  0  0  0  0  0  0  0  0  0  0
   -4.7438    1.6815   -1.1634 C   0  0  0  0  0  0  0  0  0  0  0  0
   -3.2384    1.4593   -1.1810 C   0  0  0  0  0  0  0  0  0  0  0  0
   -2.6991    0.7045    0.0703 C   0  0  2  0  0  0  0  0  0  0  0  0
   -2.7260    1.6616    1.2831 C   0  0  0  0  0  0  0  0  0  0  0  0
    0.7014   -1.2468    0.4061 C   0  0  2  0  0  0  0  0  0  0  0  0
    1.4305   -2.3194    1.2078 C   0  0  0  0  0  0  0  0  0  0  0  0
    2.8188   -2.1190    0.6666 C   0  0  0  0  0  0  0  0  0  0  0  0
    2.9770   -0.9018    0.1035 C   0  0  0  0  0  0  0  0  0  0  0  0
    4.2026   -0.4505   -0.5707 C   0  0  0  0  0  0  0  0  0  0  0  0
    4.6166    0.8832   -0.5874 C   0  0  0  0  0  0  0  0  0  0  0  0
    5.7823    1.2564   -1.2591 C   0  0  0  0  0  0  0  0  0  0  0  0
    6.5112    0.2778   -1.9096 C   0  0  0  0  0  0  0  0  0  0  0  0
    6.1546   -1.0203   -1.9329 N   0  0  0  0  0  0  0  0  0  0  0  0
    5.0160   -1.3471   -1.2694 C   0  0  0  0  0  0  0  0  0  0  0  0
    2.5704    1.5483    1.5288 H   0  0  0  0  0  0  0  0  0  0  0  0
    2.2132    0.1019    2.4645 H   0  0  0  0  0  0  0  0  0  0  0  0
    0.9166    1.1760    1.9652 H   0  0  0  0  0  0  0  0  0  0  0  0
    1.2345    0.2938   -1.7753 H   0  0  0  0  0  0  0  0  0  0  0  0
    1.8618    1.7058   -0.9436 H   0  0  0  0  0  0  0  0  0  0  0  0
   -0.2056    2.0539    0.2604 H   0  0  0  0  0  0  0  0  0  0  0  0
   -0.5491    1.8821   -1.4479 H   0  0  0  0  0  0  0  0  0  0  0  0
   -1.3167   -0.3884   -1.1808 H   0  0  0  0  0  0  0  0  0  0  0  0
   -0.6452   -0.3040    1.8029 H   0  0  0  0  0  0  0  0  0  0  0  0
   -1.2936   -2.6776    1.7405 H   0  0  0  0  0  0  0  0  0  0  0  0
   -1.7007   -2.5552    0.0305 H   0  0  0  0  0  0  0  0  0  0  0  0
   -3.0359   -1.0870    2.3591 H   0  0  0  0  0  0  0  0  0  0  0  0
   -3.7150   -2.3995    1.4121 H   0  0  0  0  0  0  0  0  0  0  0  0
   -5.4576   -1.5170    0.0960 H   0  0  0  0  0  0  0  0  0  0  0  0
   -5.0442    2.3648   -0.3629 H   0  0  0  0  0  0  0  0  0  0  0  0
   -5.0533    2.1185   -2.1193 H   0  0  0  0  0  0  0  0  0  0  0  0
   -2.9925    0.8865   -2.0863 H   0  0  0  0  0  0  0  0  0  0  0  0
   -2.7457    2.4332   -1.2874 H   0  0  0  0  0  0  0  0  0  0  0  0
   -2.2356    1.2321    2.1621 H   0  0  0  0  0  0  0  0  0  0  0  0
   -3.7528    1.9046    1.5809 H   0  0  0  0  0  0  0  0  0  0  0  0
   -2.2273    2.6105    1.0595 H   0  0  0  0  0  0  0  0  0  0  0  0
    0.5823   -1.6745   -0.6076 H   0  0  0  0  0  0  0  0  0  0  0  0
    1.0541   -3.3192    0.9723 H   0  0  0  0  0  0  0  0  0  0  0  0
    1.3947   -2.1609    2.2895 H   0  0  0  0  0  0  0  0  0  0  0  0
    3.5706   -2.8953    0.7217 H   0  0  0  0  0  0  0  0  0  0  0  0
    4.0558    1.6550   -0.0730 H   0  0  0  0  0  0  0  0  0  0  0  0
    6.1122    2.2892   -1.2701 H   0  0  0  0  0  0  0  0  0  0  0  0
    7.4251    0.5194   -2.4443 H   0  0  0  0  0  0  0  0  0  0  0  0
    4.7634   -2.4023   -1.3354 H   0  0  0  0  0  0  0  0  0  0  0  0
  2  1  1  1
  2  3  1  0
  3  4  1  0
  4  5  1  0
  5  6  1  0
  6  7  1  0
  7  8  1  0
  8  9  1  0
  9 10  2  0
 10 11  1  0
 11 12  2  0
 11 13  1  0
 13 14  1  0
 14 15  1  0
 15 16  1  1
  6 17  1  0
 17 18  1  0
 18 19  1  0
 19 20  2  0
 20 21  1  0
 21 22  2  0
 22 23  1  0
 23 24  2  0
 24 25  1  0
 25 26  2  0
 17  2  1  0
 26 21  1  0
 20  2  1  0
 15  5  1  0
 15  9  1  0
  1 27  1  0
  1 28  1  0
  1 29  1  0
  3 30  1  0
  3 31  1  0
  4 32  1  0
  4 33  1  0
  5 34  1  6
  6 35  1  1
  7 36  1  0
  7 37  1  0
  8 38  1  0
  8 39  1  0
 10 40  1  0
 13 41  1  0
 13 42  1  0
 14 43  1  0
 14 44  1  0
 16 45  1  0
 16 46  1  0
 16 47  1  0
 17 48  1  6
 18 49  1  0
 18 50  1  0
 19 51  1  0
 22 52  1  0
 23 53  1  0
 24 54  1  0
 26 55  1  0
M  END
$$$$
