
     RDKit          3D

 62 66  0  0  0  0  0  0  0  0999 V2000
   -9.0149   -0.6970    0.8467 C   0  0  0  0  0  0  0  0  0  0  0  0
   -7.6080   -0.3751    0.5409 C   0  0  0  0  0  0  0  0  0  0  0  0
   -6.5740   -0.7739    1.3420 N   0  0  0  0  0  0  0  0  0  0  0  0
   -5.5070   -0.3086    0.7199 C   0  0  0  0  0  0  0  0  0  0  0  0
   -4.0485   -0.5436    1.1980 C   0  0  0  0  0  0  0  0  0  0  0  0
   -3.7079   -1.2274    2.3355 C   0  0  0  0  0  0  0  0  0  0  0  0
   -2.3405   -1.2165    2.3627 N   0  0  0  0  0  0  0  0  0  0  0  0
   -1.8812   -0.5357    1.2542 C   0  0  0  0  0  0  0  0  0  0  0  0
   -2.9234   -0.1193    0.5437 N   0  0  0  0  0  0  0  0  0  0  0  0
   -0.4773   -0.2874    0.8688 C   0  0  0  0  0  0  0  0  0  0  0  0
   -0.2688    0.4677   -0.3054 C   0  0  0  0  0  0  0  0  0  0  0  0
    1.0118    0.8086   -0.7578 C   0  0  0  0  0  0  0  0  0  0  0  0
    2.1385    0.4067   -0.0432 C   0  0  0  0  0  0  0  0  0  0  0  0
    3.4681    0.7648   -0.5033 C   0  0  0  0  0  0  0  0  0  0  0  0
    3.9260    1.8907   -1.2194 C   0  0  0  0  0  0  0  0  0  0  0  0
    5.2399    1.8588   -1.4531 N   0  0  0  0  0  0  0  0  0  0  0  0
    5.6348    0.6687   -0.9355 N   0  0  0  0  0  0  0  0  0  0  0  0
    7.0539    0.2826   -1.0069 C   0  0  0  0  0  0  0  0  0  0  0  0
    7.2414   -1.2418   -0.8517 C   0  0  0  0  0  0  0  0  0  0  0  0
    7.6691    0.6802   -2.3670 C   0  0  0  0  0  0  0  0  0  0  0  0
    7.8070    1.0087    0.1229 C   0  0  0  0  0  0  0  0  0  0  0  0
    7.7858    2.3779    0.0920 N   0  0  0  0  0  0  0  0  0  0  0  0
    8.4268    0.4331    1.0148 O   0  0  0  0  0  0  0  0  0  0  0  0
    4.6029    0.0046   -0.3235 C   0  0  0  0  0  0  0  0  0  0  0  0
    1.9492   -0.3409    1.1233 C   0  0  0  0  0  0  0  0  0  0  0  0
    0.6648   -0.7045    1.5689 C   0  0  0  0  0  0  0  0  0  0  0  0
    0.7071   -1.4292    2.7296 O   0  0  0  0  0  0  0  0  0  0  0  0
   -0.2783   -2.4497    2.8480 C   0  0  0  0  0  0  0  0  0  0  0  0
   -1.5567   -1.8580    3.3959 C   0  0  0  0  0  0  0  0  0  0  0  0
   -5.9055    0.3781   -0.3978 N   0  0  0  0  0  0  0  0  0  0  0  0
   -5.0846    1.0915   -1.3655 C   0  0  0  0  0  0  0  0  0  0  0  0
   -4.6446    0.1606   -2.4926 C   0  0  0  0  0  0  0  0  0  0  0  0
   -5.7791    2.3353   -1.9310 C   0  0  0  0  0  0  0  0  0  0  0  0
   -7.2495    0.3162   -0.5452 N   0  0  0  0  0  0  0  0  0  0  0  0
   -9.3986   -1.4419    0.1418 H   0  0  0  0  0  0  0  0  0  0  0  0
   -9.6416    0.1978    0.7817 H   0  0  0  0  0  0  0  0  0  0  0  0
   -9.1093   -1.1049    1.8584 H   0  0  0  0  0  0  0  0  0  0  0  0
   -4.3135   -1.7027    3.0948 H   0  0  0  0  0  0  0  0  0  0  0  0
   -1.1250    0.8098   -0.8868 H   0  0  0  0  0  0  0  0  0  0  0  0
    1.1042    1.3843   -1.6758 H   0  0  0  0  0  0  0  0  0  0  0  0
    3.3563    2.7437   -1.5684 H   0  0  0  0  0  0  0  0  0  0  0  0
    6.9390   -1.5914    0.1409 H   0  0  0  0  0  0  0  0  0  0  0  0
    6.6568   -1.7929   -1.5956 H   0  0  0  0  0  0  0  0  0  0  0  0
    8.2931   -1.5254   -0.9741 H   0  0  0  0  0  0  0  0  0  0  0  0
    7.1401    0.1936   -3.1966 H   0  0  0  0  0  0  0  0  0  0  0  0
    7.6321    1.7614   -2.5457 H   0  0  0  0  0  0  0  0  0  0  0  0
    8.7249    0.3892   -2.4214 H   0  0  0  0  0  0  0  0  0  0  0  0
    8.1675    2.8558    0.8955 H   0  0  0  0  0  0  0  0  0  0  0  0
    7.0271    2.8423   -0.4062 H   0  0  0  0  0  0  0  0  0  0  0  0
    4.7504   -0.9478    0.1670 H   0  0  0  0  0  0  0  0  0  0  0  0
    2.8068   -0.6553    1.7151 H   0  0  0  0  0  0  0  0  0  0  0  0
    0.1170   -3.1670    3.5758 H   0  0  0  0  0  0  0  0  0  0  0  0
   -0.4133   -2.9982    1.9063 H   0  0  0  0  0  0  0  0  0  0  0  0
   -2.1747   -2.6535    3.8280 H   0  0  0  0  0  0  0  0  0  0  0  0
   -1.3641   -1.0981    4.1616 H   0  0  0  0  0  0  0  0  0  0  0  0
   -4.2013    1.4504   -0.8287 H   0  0  0  0  0  0  0  0  0  0  0  0
   -4.1079   -0.7091   -2.1001 H   0  0  0  0  0  0  0  0  0  0  0  0
   -5.5045   -0.2114   -3.0613 H   0  0  0  0  0  0  0  0  0  0  0  0
   -3.9778    0.6791   -3.1876 H   0  0  0  0  0  0  0  0  0  0  0  0
   -6.6549    2.0741   -2.5345 H   0  0  0  0  0  0  0  0  0  0  0  0
   -5.0931    2.9020   -2.5679 H   0  0  0  0  0  0  0  0  0  0  0  0
   -6.1132    2.9965   -1.1249 H   0  0  0  0  0  0  0  0  0  0  0  0
  1  2  1  0
  2  3  1  0
  3  4  2  0
  4  5  1  0
  5  6  2  0
  6  7  1  0
  7  8  1  0
  8  9  2  0
  8 10  1  0
 10 11  2  0
 11 12  1  0
 12 13  2  0
 13 14  1  0
 14 15  1  0
 15 16  2  0
 16 17  1  0
 17 18  1  0
 18 19  1  0
 18 20  1  0
 18 21  1  0
 21 22  1  0
 21 23  2  0
 17 24  1  0
 13 25  1  0
 25 26  2  0
 26 27  1  0
 27 28  1  0
 28 29  1  0
  4 30  1  0
 30 31  1  0
 31 32  1  0
 31 33  1  0
 30 34  1  0
 34  2  2  0
  9  5  1  0
 26 10  1  0
 29  7  1  0
 24 14  2  0
  1 35  1  0
  1 36  1  0
  1 37  1  0
  6 38  1  0
 11 39  1  0
 12 40  1  0
 15 41  1  0
 19 42  1  0
 19 43  1  0
 19 44  1  0
 20 45  1  0
 20 46  1  0
 20 47  1  0
 22 48  1  0
 22 49  1  0
 24 50  1  0
 25 51  1  0
 28 52  1  0
 28 53  1  0
 29 54  1  0
 29 55  1  0
 31 56  1  0
 32 57  1  0
 32 58  1  0
 32 59  1  0
 33 60  1  0
 33 61  1  0
 33 62  1  0
M  END
$$$$
