
     RDKit          3D

 76 81  0  0  0  0  0  0  0  0999 V2000
   -3.1939   -2.3330    0.0007 C   0  0  0  0  0  0  0  0  0  0  0  0
   -4.2420   -1.2494    0.2824 C   0  0  2  0  0  0  0  0  0  0  0  0
   -5.3270   -1.3528   -0.6995 N   0  0  0  0  0  0  0  0  0  0  0  0
   -6.3068   -2.3313   -0.6346 C   0  0  0  0  0  0  0  0  0  0  0  0
   -6.3389   -3.1756    0.2592 O   0  0  0  0  0  0  0  0  0  0  0  0
   -7.3610   -2.2293   -1.7541 C   0  0  0  0  0  0  0  0  0  0  0  0
   -7.8219   -3.5969   -2.2180 C   0  0  0  0  0  0  0  0  0  0  0  0
   -6.8618   -1.5464   -2.8331 F   0  0  0  0  0  0  0  0  0  0  0  0
   -8.4558   -1.5192   -1.3482 F   0  0  0  0  0  0  0  0  0  0  0  0
   -3.5863    0.1687    0.2934 C   0  0  2  0  0  0  0  0  0  0  0  0
   -2.6651    0.2759    1.3881 O   0  0  0  0  0  0  0  0  0  0  0  0
   -1.3198    0.2400    1.1580 C   0  0  0  0  0  0  0  0  0  0  0  0
   -0.6751    0.5744   -0.0270 C   0  0  0  0  0  0  0  0  0  0  0  0
    0.7215    0.4838   -0.1485 C   0  0  0  0  0  0  0  0  0  0  0  0
    1.4780    0.0896    0.9710 C   0  0  0  0  0  0  0  0  0  0  0  0
    0.8363   -0.2652    2.1591 C   0  0  0  0  0  0  0  0  0  0  0  0
    1.8624   -0.6996    3.0108 C   0  0  0  0  0  0  0  0  0  0  0  0
    3.0607   -0.6490    2.4392 N   0  0  0  0  0  0  0  0  0  0  0  0
    2.8459   -0.0809    1.2186 N   0  0  0  0  0  0  0  0  0  0  0  0
    3.9801    0.2420    0.4069 C   0  0  0  0  0  0  0  0  0  0  0  0
    3.8969    1.1154   -0.6837 C   0  0  0  0  0  0  0  0  0  0  0  0
    5.0278    1.3896   -1.4620 C   0  0  0  0  0  0  0  0  0  0  0  0
    6.2574    0.8089   -1.1531 C   0  0  0  0  0  0  0  0  0  0  0  0
    6.3624   -0.0457   -0.0509 C   0  0  0  0  0  0  0  0  0  0  0  0
    7.6578   -0.6636    0.3362 C   0  0  0  0  0  0  0  0  0  0  0  0
    7.9151   -0.8754    1.5151 O   0  0  0  0  0  0  0  0  0  0  0  0
    8.5094   -0.9938   -0.6968 N   0  0  0  0  0  0  0  0  0  0  0  0
    9.8219   -1.5832   -0.4420 C   0  0  2  0  0  0  0  0  0  0  0  0
   10.8694   -0.5074   -0.2423 C   0  0  0  0  0  0  0  0  0  0  0  0
   11.2320   -0.1344   -1.6659 C   0  0  0  0  0  0  0  0  0  0  0  0
   10.9922   -1.2898   -2.4857 O   0  0  0  0  0  0  0  0  0  0  0  0
   10.3691   -2.2978   -1.6698 C   0  0  0  0  0  0  0  0  0  0  0  0
    5.2317   -0.3120    0.7351 C   0  0  0  0  0  0  0  0  0  0  0  0
   -0.5634   -0.1678    2.2617 C   0  0  0  0  0  0  0  0  0  0  0  0
   -4.6206    1.2725    0.4777 C   0  0  0  0  0  0  0  0  0  0  0  0
   -4.8473    2.2098   -0.5462 C   0  0  0  0  0  0  0  0  0  0  0  0
   -5.8096    3.2111   -0.3938 C   0  0  0  0  0  0  0  0  0  0  0  0
   -6.5531    3.2890    0.7825 C   0  0  0  0  0  0  0  0  0  0  0  0
   -6.3498    2.3545    1.8014 C   0  0  0  0  0  0  0  0  0  0  0  0
   -5.3779    1.3654    1.6586 C   0  0  0  0  0  0  0  0  0  0  0  0
   -7.0655    2.3505    2.9734 O   0  0  0  0  0  0  0  0  0  0  0  0
   -8.2505    3.1462    2.8548 C   0  0  0  0  0  0  0  0  0  0  0  0
   -7.9321    4.4854    2.2098 C   0  0  0  0  0  0  0  0  0  0  0  0
   -7.4709    4.3046    0.8645 O   0  0  0  0  0  0  0  0  0  0  0  0
   -3.6507   -3.3262   -0.0793 H   0  0  0  0  0  0  0  0  0  0  0  0
   -2.4486   -2.3830    0.8009 H   0  0  0  0  0  0  0  0  0  0  0  0
   -2.6727   -2.1386   -0.9445 H   0  0  0  0  0  0  0  0  0  0  0  0
   -4.6689   -1.4635    1.2700 H   0  0  0  0  0  0  0  0  0  0  0  0
   -5.3843   -0.6876   -1.4654 H   0  0  0  0  0  0  0  0  0  0  0  0
   -6.9755   -4.1965   -2.5717 H   0  0  0  0  0  0  0  0  0  0  0  0
   -8.3262   -4.1392   -1.4112 H   0  0  0  0  0  0  0  0  0  0  0  0
   -8.5320   -3.4944   -3.0441 H   0  0  0  0  0  0  0  0  0  0  0  0
   -3.1117    0.3176   -0.6809 H   0  0  0  0  0  0  0  0  0  0  0  0
   -1.2191    0.9306   -0.8951 H   0  0  0  0  0  0  0  0  0  0  0  0
    1.1738    0.7003   -1.1097 H   0  0  0  0  0  0  0  0  0  0  0  0
    1.7790   -1.0776    4.0214 H   0  0  0  0  0  0  0  0  0  0  0  0
    2.9890    1.6532   -0.9262 H   0  0  0  0  0  0  0  0  0  0  0  0
    4.9512    2.0802   -2.3006 H   0  0  0  0  0  0  0  0  0  0  0  0
    7.1262    1.0655   -1.7542 H   0  0  0  0  0  0  0  0  0  0  0  0
    8.2265   -0.8584   -1.6590 H   0  0  0  0  0  0  0  0  0  0  0  0
    9.7419   -2.2549    0.4180 H   0  0  0  0  0  0  0  0  0  0  0  0
   10.5391    0.3545    0.3456 H   0  0  0  0  0  0  0  0  0  0  0  0
   11.7488   -0.9409    0.2526 H   0  0  0  0  0  0  0  0  0  0  0  0
   10.5940    0.6735   -2.0367 H   0  0  0  0  0  0  0  0  0  0  0  0
   12.2783    0.1732   -1.7617 H   0  0  0  0  0  0  0  0  0  0  0  0
    9.5999   -2.8138   -2.2524 H   0  0  0  0  0  0  0  0  0  0  0  0
   11.1455   -3.0197   -1.3923 H   0  0  0  0  0  0  0  0  0  0  0  0
    5.3384   -0.9720    1.5970 H   0  0  0  0  0  0  0  0  0  0  0  0
   -1.0634   -0.4361    3.1891 H   0  0  0  0  0  0  0  0  0  0  0  0
   -4.2756    2.1722   -1.4720 H   0  0  0  0  0  0  0  0  0  0  0  0
   -5.9757    3.9333   -1.1895 H   0  0  0  0  0  0  0  0  0  0  0  0
   -5.2193    0.6588    2.4721 H   0  0  0  0  0  0  0  0  0  0  0  0
   -8.6543    3.2932    3.8607 H   0  0  0  0  0  0  0  0  0  0  0  0
   -8.9910    2.5848    2.2699 H   0  0  0  0  0  0  0  0  0  0  0  0
   -8.8319    5.1066    2.1704 H   0  0  0  0  0  0  0  0  0  0  0  0
   -7.1623    5.0275    2.7718 H   0  0  0  0  0  0  0  0  0  0  0  0
  1  2  1  0
  2  3  1  0
  3  4  1  0
  4  5  2  0
  4  6  1  0
  6  7  1  0
  6  8  1  0
  6  9  1  0
  2 10  1  0
 10 11  1  0
 11 12  1  0
 12 13  2  0
 13 14  1  0
 14 15  2  0
 15 16  1  0
 16 17  1  0
 17 18  2  0
 18 19  1  0
 19 20  1  0
 20 21  2  0
 21 22  1  0
 22 23  2  0
 23 24  1  0
 24 25  1  0
 25 26  2  0
 25 27  1  0
 27 28  1  0
 28 29  1  0
 29 30  1  0
 30 31  1  0
 31 32  1  0
 24 33  2  0
 16 34  2  0
 10 35  1  0
 35 36  2  0
 36 37  1  0
 37 38  2  0
 38 39  1  0
 39 40  2  0
 39 41  1  0
 41 42  1  0
 42 43  1  0
 43 44  1  0
 34 12  1  0
 40 35  1  0
 19 15  1  0
 33 20  1  0
 44 38  1  0
 32 28  1  0
  1 45  1  0
  1 46  1  0
  1 47  1  0
  2 48  1  1
  3 49  1  0
  7 50  1  0
  7 51  1  0
  7 52  1  0
 10 53  1  6
 13 54  1  0
 14 55  1  0
 17 56  1  0
 21 57  1  0
 22 58  1  0
 23 59  1  0
 27 60  1  0
 28 61  1  1
 29 62  1  0
 29 63  1  0
 30 64  1  0
 30 65  1  0
 32 66  1  0
 32 67  1  0
 33 68  1  0
 34 69  1  0
 36 70  1  0
 37 71  1  0
 40 72  1  0
 42 73  1  0
 42 74  1  0
 43 75  1  0
 43 76  1  0
M  END
$$$$
