
     RDKit          3D

 44 47  0  0  0  0  0  0  0  0999 V2000
    6.6226   -0.7981   -2.4251 N   0  0  0  0  0  0  0  0  0  0  0  0
    5.5525   -1.1696   -1.6530 C   0  0  0  0  0  0  0  0  0  0  0  0
    4.8169   -2.0795   -2.0051 O   0  0  0  0  0  0  0  0  0  0  0  0
    5.3679   -0.4202   -0.4011 C   0  0  0  0  0  0  0  0  0  0  0  0
    6.4590    0.0137    0.3984 C   0  0  0  0  0  0  0  0  0  0  0  0
    6.2980    0.7255    1.6271 C   0  0  0  0  0  0  0  0  0  0  0  0
    5.0452    1.0688    2.1721 C   0  0  0  0  0  0  0  0  0  0  0  0
    4.0036    0.6269    1.3644 C   0  0  0  0  0  0  0  0  0  0  0  0
    2.6767    0.8114    1.6302 C   0  0  0  0  0  0  0  0  0  0  0  0
    2.0025    0.2237    0.5810 N   0  0  0  0  0  0  0  0  0  0  0  0
    0.5926    0.1345    0.3931 C   0  0  0  0  0  0  0  0  0  0  0  0
    0.0896   -0.5122   -0.7445 C   0  0  0  0  0  0  0  0  0  0  0  0
   -1.2896   -0.6129   -0.9506 C   0  0  0  0  0  0  0  0  0  0  0  0
   -2.1944   -0.0701   -0.0285 C   0  0  0  0  0  0  0  0  0  0  0  0
   -3.6882   -0.1991   -0.2702 C   0  0  2  0  0  0  0  0  0  0  0  0
   -4.4106    1.1549   -0.2881 C   0  0  0  0  0  0  0  0  0  0  0  0
   -5.9028    0.9809   -0.5971 C   0  0  0  0  0  0  0  0  0  0  0  0
   -6.4159   -0.4386   -0.3417 C   0  0  0  0  0  0  0  0  0  0  0  0
   -5.8190   -0.9984    0.8631 N   0  0  0  0  0  0  0  0  0  0  0  0
   -4.3608   -1.1522    0.7480 C   0  0  0  0  0  0  0  0  0  0  0  0
   -1.6840    0.5719    1.1092 C   0  0  0  0  0  0  0  0  0  0  0  0
   -0.3040    0.6760    1.3217 C   0  0  0  0  0  0  0  0  0  0  0  0
    2.8529   -0.2970   -0.3430 N   0  0  0  0  0  0  0  0  0  0  0  0
    4.0972   -0.0926    0.1192 C   0  0  0  0  0  0  0  0  0  0  0  0
    6.6593   -1.2240   -3.3430 H   0  0  0  0  0  0  0  0  0  0  0  0
    7.0667    0.1021   -2.3126 H   0  0  0  0  0  0  0  0  0  0  0  0
    7.4739   -0.2270    0.0818 H   0  0  0  0  0  0  0  0  0  0  0  0
    7.1963    1.0098    2.1773 H   0  0  0  0  0  0  0  0  0  0  0  0
    4.9322    1.6049    3.1047 H   0  0  0  0  0  0  0  0  0  0  0  0
    2.1694    1.2917    2.4516 H   0  0  0  0  0  0  0  0  0  0  0  0
    0.7608   -0.9490   -1.4834 H   0  0  0  0  0  0  0  0  0  0  0  0
   -1.6462   -1.1230   -1.8433 H   0  0  0  0  0  0  0  0  0  0  0  0
   -3.8257   -0.6378   -1.2697 H   0  0  0  0  0  0  0  0  0  0  0  0
   -4.3135    1.6508    0.6863 H   0  0  0  0  0  0  0  0  0  0  0  0
   -3.9573    1.8329   -1.0216 H   0  0  0  0  0  0  0  0  0  0  0  0
   -6.4724    1.7001    0.0046 H   0  0  0  0  0  0  0  0  0  0  0  0
   -6.0918    1.2376   -1.6465 H   0  0  0  0  0  0  0  0  0  0  0  0
   -7.5055   -0.4083   -0.2297 H   0  0  0  0  0  0  0  0  0  0  0  0
   -6.2103   -1.0853   -1.2037 H   0  0  0  0  0  0  0  0  0  0  0  0
   -6.2392   -1.9006    1.0839 H   0  0  0  0  0  0  0  0  0  0  0  0
   -4.1293   -2.1858    0.4598 H   0  0  0  0  0  0  0  0  0  0  0  0
   -3.9439   -1.0171    1.7525 H   0  0  0  0  0  0  0  0  0  0  0  0
   -2.3600    0.9965    1.8492 H   0  0  0  0  0  0  0  0  0  0  0  0
    0.0284    1.1838    2.2211 H   0  0  0  0  0  0  0  0  0  0  0  0
  1  2  1  0
  2  3  2  0
  2  4  1  0
  4  5  2  0
  5  6  1  0
  6  7  2  0
  7  8  1  0
  8  9  2  0
  9 10  1  0
 10 11  1  0
 11 12  2  0
 12 13  1  0
 13 14  2  0
 14 15  1  0
 15 16  1  0
 16 17  1  0
 17 18  1  0
 18 19  1  0
 19 20  1  0
 14 21  1  0
 21 22  2  0
 10 23  1  0
 23 24  2  0
 24  4  1  0
 24  8  1  0
 22 11  1  0
 20 15  1  0
  1 25  1  0
  1 26  1  0
  5 27  1  0
  6 28  1  0
  7 29  1  0
  9 30  1  0
 12 31  1  0
 13 32  1  0
 15 33  1  6
 16 34  1  0
 16 35  1  0
 17 36  1  0
 17 37  1  0
 18 38  1  0
 18 39  1  0
 19 40  1  0
 20 41  1  0
 20 42  1  0
 21 43  1  0
 22 44  1  0
M  END
$$$$
