
     RDKit          3D

 21 19  0  0  0  0  0  0  0  0999 V2000
   -0.6019    0.3867    1.4928 C   0  0  0  0  0  0  0  0  0  0  0  0
   -0.5228   -0.1882    0.0836 N   0  0  0  0  0  4  0  0  0  0  0  0
   -1.3095   -1.4919    0.0341 C   0  0  0  0  0  0  0  0  0  0  0  0
   -1.1335    0.7984   -0.9045 C   0  0  0  0  0  0  0  0  0  0  0  0
    0.9644   -0.5001   -0.2997 C   0  0  0  0  0  0  0  0  0  0  0  0
    1.9376    0.6757   -0.3136 C   0  0  0  0  0  0  0  0  0  0  0  0
    1.6805    1.8394   -0.0567 O   0  0  0  0  0  0  0  0  0  0  0  0
    3.1838    0.2973   -0.6549 O   0  0  0  0  0  0  0  0  0  0  0  0
    0.0000    0.0000    0.0000 Cl  0  0  0  0  0 15  0  0  0  0  0  0
   -0.1212    1.3663    1.5160 H   0  0  0  0  0  0  0  0  0  0  0  0
   -0.1017   -0.3058    2.1758 H   0  0  0  0  0  0  0  0  0  0  0  0
   -1.6578    0.4890    1.7617 H   0  0  0  0  0  0  0  0  0  0  0  0
   -0.8664   -2.1909    0.7495 H   0  0  0  0  0  0  0  0  0  0  0  0
   -1.2503   -1.8936   -0.9817 H   0  0  0  0  0  0  0  0  0  0  0  0
   -2.3496   -1.2820    0.3008 H   0  0  0  0  0  0  0  0  0  0  0  0
   -0.6370    1.7658   -0.8100 H   0  0  0  0  0  0  0  0  0  0  0  0
   -2.1964    0.9062   -0.6675 H   0  0  0  0  0  0  0  0  0  0  0  0
   -1.0086    0.3966   -1.9141 H   0  0  0  0  0  0  0  0  0  0  0  0
    0.9344   -0.9413   -1.3019 H   0  0  0  0  0  0  0  0  0  0  0  0
    1.3180   -1.2384    0.4281 H   0  0  0  0  0  0  0  0  0  0  0  0
    3.7380    1.1109   -0.6381 H   0  0  0  0  0  0  0  0  0  0  0  0
  1  2  1  0
  2  3  1  0
  2  4  1  0
  2  5  1  0
  5  6  1  0
  6  7  2  0
  6  8  1  0
  1 10  1  0
  1 11  1  0
  1 12  1  0
  3 13  1  0
  3 14  1  0
  3 15  1  0
  4 16  1  0
  4 17  1  0
  4 18  1  0
  5 19  1  0
  5 20  1  0
  8 21  1  0
M  CHG  2   2   1   9  -1
M  END
$$$$
