
     RDKit          3D

 48 51  0  0  0  0  0  0  0  0999 V2000
    0.5366   -2.1767   -0.1801 O   0  0  0  0  0  0  0  0  0  0  0  0
   -0.1343   -1.1507   -0.1017 C   0  0  0  0  0  0  0  0  0  0  0  0
    0.4436    0.2680   -0.0539 C   0  0  0  0  0  0  0  0  0  0  0  0
    1.8615    0.2745   -0.3691 N   0  0  0  0  0  0  0  0  0  0  0  0
    2.7368    0.3430    0.6952 N   0  0  0  0  0  0  0  0  0  0  0  0
    4.0010    0.2935    0.4220 C   0  0  0  0  0  0  0  0  0  0  0  0
    4.5698    0.1568   -0.9394 C   0  0  0  0  0  0  0  0  0  0  0  0
    3.7019    0.1415   -1.9529 C   0  0  0  0  0  0  0  0  0  0  0  0
    2.2478    0.2133   -1.7002 C   0  0  0  0  0  0  0  0  0  0  0  0
    1.4739    0.2155   -2.6549 O   0  0  0  0  0  0  0  0  0  0  0  0
    6.0563    0.0578   -1.0373 C   0  0  0  0  0  0  0  0  0  0  0  0
    6.7641    1.1062   -0.1748 C   0  0  0  0  0  0  0  0  0  0  0  0
    6.0920    1.3890    1.1772 C   0  0  0  0  0  0  0  0  0  0  0  0
    5.0047    0.3866    1.5499 C   0  0  0  0  0  0  0  0  0  0  0  0
   -1.5181   -1.1763    0.0004 N   0  0  0  0  0  0  0  0  0  0  0  0
   -2.2528   -2.4181   -0.1850 C   0  0  0  0  0  0  0  0  0  0  0  0
   -3.6095   -2.4274    0.5181 C   0  0  0  0  0  0  0  0  0  0  0  0
   -4.5253   -1.4295   -0.0135 N   0  0  0  0  0  0  0  0  0  0  0  0
   -5.3267   -1.6303   -1.1085 C   0  0  0  0  0  0  0  0  0  0  0  0
   -6.0268   -0.4690   -1.3387 C   0  0  0  0  0  0  0  0  0  0  0  0
   -5.6456    0.4717   -0.3443 C   0  0  0  0  0  0  0  0  0  0  0  0
   -6.0161    1.8037   -0.0740 C   0  0  0  0  0  0  0  0  0  0  0  0
   -5.4435    2.4714    1.0135 C   0  0  0  0  0  0  0  0  0  0  0  0
   -4.5157    1.8302    1.8285 C   0  0  0  0  0  0  0  0  0  0  0  0
   -4.1322    0.5087    1.5812 C   0  0  0  0  0  0  0  0  0  0  0  0
   -4.7094   -0.1541    0.4847 C   0  0  0  0  0  0  0  0  0  0  0  0
    0.2910    0.6787    0.9502 H   0  0  0  0  0  0  0  0  0  0  0  0
   -0.0891    0.8947   -0.7778 H   0  0  0  0  0  0  0  0  0  0  0  0
    4.0038    0.0520   -2.9880 H   0  0  0  0  0  0  0  0  0  0  0  0
    6.3591   -0.9429   -0.7028 H   0  0  0  0  0  0  0  0  0  0  0  0
    6.3952    0.1529   -2.0757 H   0  0  0  0  0  0  0  0  0  0  0  0
    7.7984    0.7815   -0.0065 H   0  0  0  0  0  0  0  0  0  0  0  0
    6.8351    2.0492   -0.7322 H   0  0  0  0  0  0  0  0  0  0  0  0
    5.6463    2.3918    1.1363 H   0  0  0  0  0  0  0  0  0  0  0  0
    6.8519    1.4251    1.9664 H   0  0  0  0  0  0  0  0  0  0  0  0
    4.5015    0.7051    2.4693 H   0  0  0  0  0  0  0  0  0  0  0  0
    5.4290   -0.6082    1.7265 H   0  0  0  0  0  0  0  0  0  0  0  0
   -2.0084   -0.3176   -0.2313 H   0  0  0  0  0  0  0  0  0  0  0  0
   -1.6492   -3.2506    0.1931 H   0  0  0  0  0  0  0  0  0  0  0  0
   -2.3697   -2.5603   -1.2655 H   0  0  0  0  0  0  0  0  0  0  0  0
   -4.0908   -3.4045    0.3935 H   0  0  0  0  0  0  0  0  0  0  0  0
   -3.4997   -2.2534    1.5936 H   0  0  0  0  0  0  0  0  0  0  0  0
   -5.3319   -2.5740   -1.6387 H   0  0  0  0  0  0  0  0  0  0  0  0
   -6.7392   -0.3101   -2.1375 H   0  0  0  0  0  0  0  0  0  0  0  0
   -6.7422    2.3094   -0.7038 H   0  0  0  0  0  0  0  0  0  0  0  0
   -5.7307    3.4987    1.2237 H   0  0  0  0  0  0  0  0  0  0  0  0
   -4.0847    2.3632    2.6732 H   0  0  0  0  0  0  0  0  0  0  0  0
   -3.4099    0.0202    2.2278 H   0  0  0  0  0  0  0  0  0  0  0  0
  1  2  2  0
  2  3  1  0
  3  4  1  0
  4  5  1  0
  5  6  2  0
  6  7  1  0
  7  8  2  0
  8  9  1  0
  9 10  2  0
  7 11  1  0
 11 12  1  0
 12 13  1  0
 13 14  1  0
  2 15  1  0
 15 16  1  0
 16 17  1  0
 17 18  1  0
 18 19  1  0
 19 20  2  0
 20 21  1  0
 21 22  2  0
 22 23  1  0
 23 24  2  0
 24 25  1  0
 25 26  2  0
  9  4  1  0
 26 18  1  0
 14  6  1  0
 26 21  1  0
  3 27  1  0
  3 28  1  0
  8 29  1  0
 11 30  1  0
 11 31  1  0
 12 32  1  0
 12 33  1  0
 13 34  1  0
 13 35  1  0
 14 36  1  0
 14 37  1  0
 15 38  1  0
 16 39  1  0
 16 40  1  0
 17 41  1  0
 17 42  1  0
 19 43  1  0
 20 44  1  0
 22 45  1  0
 23 46  1  0
 24 47  1  0
 25 48  1  0
M  END
$$$$
