
     RDKit          3D

 57 60  0  0  0  0  0  0  0  0999 V2000
   -5.5255    1.5589    3.4857 C   0  0  0  0  0  0  0  0  0  0  0  0
   -5.0541    1.1022    2.3179 C   0  0  0  0  0  0  0  0  0  0  0  0
   -5.6895   -0.0666    1.6398 C   0  0  0  0  0  0  0  0  0  0  0  0
   -6.6429   -0.6446    2.1454 O   0  0  0  0  0  0  0  0  0  0  0  0
   -5.0735   -0.3509    0.4448 N   0  0  0  0  0  0  0  0  0  0  0  0
   -5.3189   -1.4181   -0.4478 C   0  0  0  0  0  0  0  0  0  0  0  0
   -6.2753   -2.4034   -0.1853 C   0  0  0  0  0  0  0  0  0  0  0  0
   -6.4924   -3.4414   -1.0886 C   0  0  0  0  0  0  0  0  0  0  0  0
   -5.7539   -3.5097   -2.2650 C   0  0  0  0  0  0  0  0  0  0  0  0
   -4.7867   -2.5369   -2.5605 C   0  0  0  0  0  0  0  0  0  0  0  0
   -4.0122   -2.6694   -3.8453 C   0  0  0  0  0  0  0  0  0  0  0  0
   -4.5697   -1.4649   -1.6563 C   0  0  0  0  0  0  0  0  0  0  0  0
   -3.6014   -0.4694   -1.9763 N   0  0  0  0  0  0  0  0  0  0  0  0
   -2.3771   -0.2646   -1.3250 C   0  0  0  0  0  0  0  0  0  0  0  0
   -2.2933   -0.3344    0.0104 N   0  0  0  0  0  0  0  0  0  0  0  0
   -1.0802   -0.1244    0.5546 C   0  0  0  0  0  0  0  0  0  0  0  0
    0.0502    0.1850   -0.1801 C   0  0  0  0  0  0  0  0  0  0  0  0
    1.3197    0.4074    0.3922 C   0  0  0  0  0  0  0  0  0  0  0  0
    2.4178    0.7220   -0.4183 C   0  0  0  0  0  0  0  0  0  0  0  0
    3.7516    0.9521    0.1675 C   0  0  0  0  0  0  0  0  0  0  0  0
    4.1585    2.2421    0.5754 C   0  0  0  0  0  0  0  0  0  0  0  0
    3.0721    3.5946    0.3909 Cl  0  0  0  0  0  0  0  0  0  0  0  0
    5.4336    2.4673    1.1336 C   0  0  0  0  0  0  0  0  0  0  0  0
    5.7267    3.7589    1.4931 O   0  0  0  0  0  0  0  0  0  0  0  0
    7.0232    4.0415    2.0026 C   0  0  0  0  0  0  0  0  0  0  0  0
    6.3133    1.3919    1.2941 C   0  0  0  0  0  0  0  0  0  0  0  0
    5.9419    0.1020    0.9022 C   0  0  0  0  0  0  0  0  0  0  0  0
    6.7490   -1.0010    1.0271 O   0  0  0  0  0  0  0  0  0  0  0  0
    8.0373   -0.8355    1.6040 C   0  0  0  0  0  0  0  0  0  0  0  0
    4.6662   -0.1109    0.3406 C   0  0  0  0  0  0  0  0  0  0  0  0
    4.2220   -1.7276   -0.1442 Cl  0  0  0  0  0  0  0  0  0  0  0  0
    2.2137    0.8098   -1.8008 C   0  0  0  0  0  0  0  0  0  0  0  0
    0.9450    0.5840   -2.3508 C   0  0  0  0  0  0  0  0  0  0  0  0
   -0.1500    0.2678   -1.5580 C   0  0  0  0  0  0  0  0  0  0  0  0
   -1.3464    0.0523   -2.1239 N   0  0  0  0  0  0  0  0  0  0  0  0
   -6.3809    1.0956    3.9705 H   0  0  0  0  0  0  0  0  0  0  0  0
   -5.0653    2.4074    3.9793 H   0  0  0  0  0  0  0  0  0  0  0  0
   -4.2007    1.5737    1.8470 H   0  0  0  0  0  0  0  0  0  0  0  0
   -4.2723    0.2104    0.1769 H   0  0  0  0  0  0  0  0  0  0  0  0
   -6.8672   -2.3934    0.7243 H   0  0  0  0  0  0  0  0  0  0  0  0
   -7.2388   -4.2001   -0.8671 H   0  0  0  0  0  0  0  0  0  0  0  0
   -5.9374   -4.3333   -2.9518 H   0  0  0  0  0  0  0  0  0  0  0  0
   -4.2392   -3.6100   -4.3589 H   0  0  0  0  0  0  0  0  0  0  0  0
   -2.9358   -2.6634   -3.6459 H   0  0  0  0  0  0  0  0  0  0  0  0
   -4.2657   -1.8502   -4.5257 H   0  0  0  0  0  0  0  0  0  0  0  0
   -3.3585   -0.4590   -2.9599 H   0  0  0  0  0  0  0  0  0  0  0  0
   -1.0466   -0.2151    1.6369 H   0  0  0  0  0  0  0  0  0  0  0  0
    1.4483    0.3328    1.4707 H   0  0  0  0  0  0  0  0  0  0  0  0
    7.7989    3.7895    1.2723 H   0  0  0  0  0  0  0  0  0  0  0  0
    7.0811    5.1177    2.1908 H   0  0  0  0  0  0  0  0  0  0  0  0
    7.1916    3.5274    2.9543 H   0  0  0  0  0  0  0  0  0  0  0  0
    7.2909    1.5593    1.7275 H   0  0  0  0  0  0  0  0  0  0  0  0
    8.6578   -0.1678    0.9974 H   0  0  0  0  0  0  0  0  0  0  0  0
    8.5236   -1.8157    1.6230 H   0  0  0  0  0  0  0  0  0  0  0  0
    7.9639   -0.4801    2.6369 H   0  0  0  0  0  0  0  0  0  0  0  0
    3.0408    1.0524   -2.4655 H   0  0  0  0  0  0  0  0  0  0  0  0
    0.8127    0.6557   -3.4282 H   0  0  0  0  0  0  0  0  0  0  0  0
  1  2  2  3
  2  3  1  0
  3  4  2  0
  3  5  1  0
  5  6  1  0
  6  7  2  0
  7  8  1  0
  8  9  2  0
  9 10  1  0
 10 11  1  0
 10 12  2  0
 12 13  1  0
 13 14  1  0
 14 15  2  0
 15 16  1  0
 16 17  2  0
 17 18  1  0
 18 19  2  0
 19 20  1  0
 20 21  2  0
 21 22  1  0
 21 23  1  0
 23 24  1  0
 24 25  1  0
 23 26  2  0
 26 27  1  0
 27 28  1  0
 28 29  1  0
 27 30  2  0
 30 31  1  0
 19 32  1  0
 32 33  2  0
 33 34  1  0
 34 35  2  0
 12  6  1  0
 35 14  1  0
 34 17  1  0
 30 20  1  0
  1 36  1  0
  1 37  1  0
  2 38  1  0
  5 39  1  0
  7 40  1  0
  8 41  1  0
  9 42  1  0
 11 43  1  0
 11 44  1  0
 11 45  1  0
 13 46  1  0
 16 47  1  0
 18 48  1  0
 25 49  1  0
 25 50  1  0
 25 51  1  0
 26 52  1  0
 29 53  1  0
 29 54  1  0
 29 55  1  0
 32 56  1  0
 33 57  1  0
M  END
$$$$
