
     RDKit          3D

 55 58  0  0  0  0  0  0  0  0999 V2000
   10.1234    1.5806    1.3771 C   0  0  0  0  0  0  0  0  0  0  0  0
    9.0229    1.2971    2.2306 O   0  0  0  0  0  0  0  0  0  0  0  0
    7.8635    0.9234    1.4816 C   0  0  0  0  0  0  0  0  0  0  0  0
    6.7219    0.6237    2.4541 C   0  0  0  0  0  0  0  0  0  0  0  0
    5.4510    0.4074    1.8028 N   0  0  0  0  0  0  0  0  0  0  0  0
    5.1648   -0.7209    1.0673 C   0  0  0  0  0  0  0  0  0  0  0  0
    5.9892   -1.5899    0.8033 O   0  0  0  0  0  0  0  0  0  0  0  0
    3.7616   -0.7827    0.6270 C   0  0  0  0  0  0  0  0  0  0  0  0
    3.1512   -1.8283   -0.1457 C   0  0  0  0  0  0  0  0  0  0  0  0
    1.8534   -1.4282   -0.2835 C   0  0  0  0  0  0  0  0  0  0  0  0
    1.7550   -0.2487    0.3651 N   0  0  0  0  0  0  0  0  0  0  0  0
    2.8684    0.1974    0.9347 N   0  0  0  0  0  0  0  0  0  0  0  0
    0.4423    0.3603    0.3352 C   0  0  0  0  0  0  0  0  0  0  0  0
   -0.4327   -0.8129   -0.1726 C   0  0  1  0  0  0  0  0  0  0  0  0
   -1.5263   -0.3831   -1.0309 N   0  0  0  0  0  0  0  0  0  0  0  0
   -2.4634   -1.2893   -1.4770 C   0  0  0  0  0  0  0  0  0  0  0  0
   -2.3889   -2.4997   -1.3129 O   0  0  0  0  0  0  0  0  0  0  0  0
   -3.6381   -0.6691   -2.1892 C   0  0  0  0  0  0  0  0  0  0  0  0
   -4.7036   -0.0490   -1.2897 C   0  0  0  0  0  0  0  0  0  0  0  0
   -5.5958   -0.8622   -0.5694 C   0  0  0  0  0  0  0  0  0  0  0  0
   -6.5663   -0.3197    0.2827 C   0  0  0  0  0  0  0  0  0  0  0  0
   -6.6678    1.0602    0.4355 C   0  0  0  0  0  0  0  0  0  0  0  0
   -7.5613    1.7211    1.2311 O   0  0  0  0  0  0  0  0  0  0  0  0
   -8.4938    0.9231    1.9499 C   0  0  0  0  0  0  0  0  0  0  0  0
   -5.7913    1.8850   -0.2692 C   0  0  0  0  0  0  0  0  0  0  0  0
   -4.8221    1.3392   -1.1170 C   0  0  0  0  0  0  0  0  0  0  0  0
   -4.1251   -1.3630   -3.4605 C   0  0  0  0  0  0  0  0  0  0  0  0
   -3.3869   -0.0679   -3.5706 C   0  0  0  0  0  0  0  0  0  0  0  0
    0.5570   -1.8138   -0.8701 C   0  0  0  0  0  0  0  0  0  0  0  0
   10.3812    0.7027    0.7763 H   0  0  0  0  0  0  0  0  0  0  0  0
    9.8925    2.4291    0.7267 H   0  0  0  0  0  0  0  0  0  0  0  0
   10.9834    1.8422    2.0001 H   0  0  0  0  0  0  0  0  0  0  0  0
    8.0894    0.0425    0.8699 H   0  0  0  0  0  0  0  0  0  0  0  0
    7.5811    1.7470    0.8151 H   0  0  0  0  0  0  0  0  0  0  0  0
    6.9660   -0.2604    3.0552 H   0  0  0  0  0  0  0  0  0  0  0  0
    6.5944    1.4593    3.1517 H   0  0  0  0  0  0  0  0  0  0  0  0
    4.6549    1.0084    1.9992 H   0  0  0  0  0  0  0  0  0  0  0  0
    3.6260   -2.7239   -0.5223 H   0  0  0  0  0  0  0  0  0  0  0  0
    0.4808    1.2057   -0.3582 H   0  0  0  0  0  0  0  0  0  0  0  0
    0.1687    0.6848    1.3422 H   0  0  0  0  0  0  0  0  0  0  0  0
   -0.8797   -1.3193    0.6949 H   0  0  0  0  0  0  0  0  0  0  0  0
   -1.7986    0.5923   -1.0481 H   0  0  0  0  0  0  0  0  0  0  0  0
   -5.5276   -1.9457   -0.6684 H   0  0  0  0  0  0  0  0  0  0  0  0
   -7.2193   -1.0062    0.8115 H   0  0  0  0  0  0  0  0  0  0  0  0
   -9.1383    1.5966    2.5227 H   0  0  0  0  0  0  0  0  0  0  0  0
   -7.9843    0.2648    2.6611 H   0  0  0  0  0  0  0  0  0  0  0  0
   -9.1321    0.3520    1.2679 H   0  0  0  0  0  0  0  0  0  0  0  0
   -5.8640    2.9645   -0.1579 H   0  0  0  0  0  0  0  0  0  0  0  0
   -4.1574    2.0145   -1.6504 H   0  0  0  0  0  0  0  0  0  0  0  0
   -3.6182   -2.2709   -3.7714 H   0  0  0  0  0  0  0  0  0  0  0  0
   -5.1875   -1.3639   -3.6777 H   0  0  0  0  0  0  0  0  0  0  0  0
   -3.9549    0.7992   -3.8878 H   0  0  0  0  0  0  0  0  0  0  0  0
   -2.3792   -0.0987   -3.9716 H   0  0  0  0  0  0  0  0  0  0  0  0
    0.2917   -2.8510   -0.6439 H   0  0  0  0  0  0  0  0  0  0  0  0
    0.5687   -1.6744   -1.9565 H   0  0  0  0  0  0  0  0  0  0  0  0
  1  2  1  0
  2  3  1  0
  3  4  1  0
  4  5  1  0
  5  6  1  0
  6  7  2  0
  6  8  1  0
  8  9  1  0
  9 10  2  0
 10 11  1  0
 11 12  1  0
 11 13  1  0
 13 14  1  0
 14 15  1  0
 15 16  1  0
 16 17  2  0
 16 18  1  0
 18 19  1  0
 19 20  2  0
 20 21  1  0
 21 22  2  0
 22 23  1  0
 23 24  1  0
 22 25  1  0
 25 26  2  0
 18 27  1  0
 27 28  1  0
 14 29  1  0
 12  8  2  0
 28 18  1  0
 29 10  1  0
 26 19  1  0
  1 30  1  0
  1 31  1  0
  1 32  1  0
  3 33  1  0
  3 34  1  0
  4 35  1  0
  4 36  1  0
  5 37  1  0
  9 38  1  0
 13 39  1  0
 13 40  1  0
 14 41  1  1
 15 42  1  0
 20 43  1  0
 21 44  1  0
 24 45  1  0
 24 46  1  0
 24 47  1  0
 25 48  1  0
 26 49  1  0
 27 50  1  0
 27 51  1  0
 28 52  1  0
 28 53  1  0
 29 54  1  0
 29 55  1  0
M  END
$$$$
