
     RDKit          3D

 40 42  0  0  0  0  0  0  0  0999 V2000
    3.7179    1.8549   -0.0717 O   0  0  0  0  0  0  0  0  0  0  0  0
    4.4010    1.2106   -0.8462 C   0  0  0  0  0  0  0  0  0  0  0  0
    4.8671    1.7000   -2.0051 O   0  0  0  0  0  0  0  0  0  0  0  0
    4.8299   -0.1768   -0.6361 C   0  0  0  0  0  0  0  0  0  0  0  0
    6.2144   -0.4191   -0.6169 C   0  0  0  0  0  0  0  0  0  0  0  0
    6.7016   -1.7100   -0.4163 C   0  0  0  0  0  0  0  0  0  0  0  0
    5.8117   -2.7649   -0.2413 C   0  0  0  0  0  0  0  0  0  0  0  0
    4.4345   -2.5283   -0.2653 C   0  0  0  0  0  0  0  0  0  0  0  0
    3.9222   -1.2296   -0.4507 C   0  0  0  0  0  0  0  0  0  0  0  0
    2.4337   -1.1194   -0.5234 C   0  0  0  0  0  0  0  0  0  0  0  0
    1.8312   -2.0525   -1.0459 O   0  0  0  0  0  0  0  0  0  0  0  0
    1.8536   -0.0063    0.0502 N   0  0  0  0  0  0  0  0  0  0  0  0
    0.4832    0.3340    0.0758 C   0  0  0  0  0  0  0  0  0  0  0  0
    0.1371    1.5216    0.7386 C   0  0  0  0  0  0  0  0  0  0  0  0
   -1.1937    1.9443    0.8082 C   0  0  0  0  0  0  0  0  0  0  0  0
   -2.1871    1.1738    0.2028 C   0  0  0  0  0  0  0  0  0  0  0  0
   -3.8872    1.6922    0.2602 S   0  0  0  0  0  6  0  0  0  0  0  0
   -4.3797    1.6543   -1.0985 O   0  0  0  0  0  0  0  0  0  0  0  0
   -3.9504    2.8965    1.0619 O   0  0  0  0  0  0  0  0  0  0  0  0
   -4.5531    0.4607    1.2065 N   0  0  0  0  0  0  0  0  0  0  0  0
   -5.8806    0.0894    0.7575 C   0  0  0  0  0  0  0  0  0  0  0  0
   -6.9087    0.4638    1.4769 N   0  0  0  0  0  0  0  0  0  0  0  0
   -8.0604   -0.0584    0.9184 C   0  0  0  0  0  0  0  0  0  0  0  0
   -7.8756   -0.8653   -0.1852 C   0  0  0  0  0  0  0  0  0  0  0  0
   -6.1991   -0.9756   -0.5385 S   0  0  0  0  0  0  0  0  0  0  0  0
   -1.8593   -0.0041   -0.4709 C   0  0  0  0  0  0  0  0  0  0  0  0
   -0.5252   -0.4224   -0.5275 C   0  0  0  0  0  0  0  0  0  0  0  0
    4.4914    2.6030   -2.0788 H   0  0  0  0  0  0  0  0  0  0  0  0
    6.9167    0.4000   -0.7634 H   0  0  0  0  0  0  0  0  0  0  0  0
    7.7730   -1.8944   -0.4073 H   0  0  0  0  0  0  0  0  0  0  0  0
    6.1841   -3.7774   -0.0986 H   0  0  0  0  0  0  0  0  0  0  0  0
    3.7526   -3.3708   -0.1479 H   0  0  0  0  0  0  0  0  0  0  0  0
    2.4697    0.6800    0.4843 H   0  0  0  0  0  0  0  0  0  0  0  0
    0.9043    2.1378    1.2041 H   0  0  0  0  0  0  0  0  0  0  0  0
   -1.4374    2.8699    1.3249 H   0  0  0  0  0  0  0  0  0  0  0  0
   -4.6617    0.8391    2.1489 H   0  0  0  0  0  0  0  0  0  0  0  0
   -9.0202    0.1728    1.3671 H   0  0  0  0  0  0  0  0  0  0  0  0
   -8.6171   -1.3839   -0.7763 H   0  0  0  0  0  0  0  0  0  0  0  0
   -2.6284   -0.5991   -0.9600 H   0  0  0  0  0  0  0  0  0  0  0  0
   -0.3060   -1.3405   -1.0646 H   0  0  0  0  0  0  0  0  0  0  0  0
  1  2  2  0
  2  3  1  0
  2  4  1  0
  4  5  2  0
  5  6  1  0
  6  7  2  0
  7  8  1  0
  8  9  2  0
  9 10  1  0
 10 11  2  0
 10 12  1  0
 12 13  1  0
 13 14  2  0
 14 15  1  0
 15 16  2  0
 16 17  1  0
 17 18  2  0
 17 19  2  0
 17 20  1  0
 20 21  1  0
 21 22  2  0
 22 23  1  0
 23 24  2  0
 24 25  1  0
 16 26  1  0
 26 27  2  0
  9  4  1  0
 27 13  1  0
 25 21  1  0
  3 28  1  0
  5 29  1  0
  6 30  1  0
  7 31  1  0
  8 32  1  0
 12 33  1  0
 14 34  1  0
 15 35  1  0
 20 36  1  0
 23 37  1  0
 24 38  1  0
 26 39  1  0
 27 40  1  0
M  END
$$$$
