
     RDKit          3D

 72 74  0  0  0  0  0  0  0  0999 V2000
   -6.7906   -0.1035    2.9536 C   0  0  0  0  0  0  0  0  0  0  0  0
   -7.1342   -1.4477    2.6072 N   0  0  0  0  0  0  0  0  0  0  0  0
   -8.2509   -1.5041    1.7154 C   0  0  0  0  0  0  0  0  0  0  0  0
   -7.9227   -0.9430    0.3213 C   0  0  0  0  0  0  0  0  0  0  0  0
   -6.8895   -1.6363   -0.3115 N   0  0  0  0  0  0  0  0  0  0  0  0
   -7.1465   -2.9517   -0.7140 C   0  0  0  0  0  0  0  0  0  0  0  0
   -5.6654   -1.0210   -0.6075 C   0  0  0  0  0  0  0  0  0  0  0  0
   -5.7325    0.1470   -1.5143 C   0  0  0  0  0  0  0  0  0  0  0  0
   -6.9190    0.6349   -2.0626 C   0  0  0  0  0  0  0  0  0  0  0  0
   -6.5519    1.6884   -2.8050 N   0  0  0  0  0  0  0  0  0  0  0  0
   -5.2551    1.8755   -2.7518 N   0  0  0  0  0  0  0  0  0  0  0  0
   -4.6876    0.9203   -1.9435 C   0  0  0  0  0  0  0  0  0  0  0  0
   -3.2605    0.8281   -1.6357 C   0  0  0  0  0  0  0  0  0  0  0  0
   -2.5034   -0.3113   -1.7248 C   0  0  0  0  0  0  0  0  0  0  0  0
   -1.1494   -0.3188   -1.4106 C   0  0  0  0  0  0  0  0  0  0  0  0
   -0.4869    0.8280   -0.9893 C   0  0  0  0  0  0  0  0  0  0  0  0
    0.8651    0.7449   -0.6953 O   0  0  0  0  0  0  0  0  0  0  0  0
    1.6945    1.7630   -0.2528 C   0  0  1  0  0  0  0  0  0  0  0  0
    2.6434    1.3051    0.8297 C   0  0  0  0  0  0  0  0  0  0  0  0
    3.6885    1.0846   -0.2378 C   0  0  2  0  0  0  0  0  0  0  0  0
    4.9198    1.5477    0.1990 O   0  0  0  0  0  0  0  0  0  0  0  0
    5.9510    0.6478    0.1050 C   0  0  0  0  0  0  0  0  0  0  0  0
    7.1919    1.3196    0.6244 C   0  0  0  0  0  0  0  0  0  0  0  0
    8.4055    0.4510    0.5750 C   0  0  0  0  0  0  0  0  0  0  0  0
    8.7827   -0.0193   -0.7975 C   0  0  0  0  0  0  0  0  0  0  0  0
    8.6899   -1.5164   -0.9508 C   0  0  0  0  0  0  0  0  0  0  0  0
    9.4512   -2.2106   -0.0214 O   0  0  0  0  0  0  0  0  0  0  0  0
    9.6162   -1.5625    1.1758 C   0  0  0  0  0  0  0  0  0  0  0  0
    8.3329   -0.7689    1.4610 C   0  0  0  0  0  0  0  0  0  0  0  0
    2.9246    1.9823   -1.1446 C   0  0  0  0  0  0  0  0  0  0  0  0
   -1.2447    1.9743   -0.8989 C   0  0  0  0  0  0  0  0  0  0  0  0
   -2.5881    1.9806   -1.2106 C   0  0  0  0  0  0  0  0  0  0  0  0
    0.6889    0.0000    0.0000 Cl  0  0  0  0  0  0  0  0  0  0  0  0
   -5.6921    0.0231    2.7378 H   0  0  0  0  0  0  0  0  0  0  0  0
   -6.9058    0.0732    4.0565 H   0  0  0  0  0  0  0  0  0  0  0  0
   -7.3762    0.6734    2.4457 H   0  0  0  0  0  0  0  0  0  0  0  0
   -6.3760   -2.0365    2.2566 H   0  0  0  0  0  0  0  0  0  0  0  0
   -9.0918   -0.8979    2.1644 H   0  0  0  0  0  0  0  0  0  0  0  0
   -8.6071   -2.5392    1.6695 H   0  0  0  0  0  0  0  0  0  0  0  0
   -7.7126    0.1357    0.4846 H   0  0  0  0  0  0  0  0  0  0  0  0
   -8.9126   -1.0574   -0.2246 H   0  0  0  0  0  0  0  0  0  0  0  0
   -6.9079   -3.1788   -1.7748 H   0  0  0  0  0  0  0  0  0  0  0  0
   -8.2225   -3.1805   -0.5616 H   0  0  0  0  0  0  0  0  0  0  0  0
   -6.5898   -3.6835   -0.0647 H   0  0  0  0  0  0  0  0  0  0  0  0
   -4.9870   -1.8241   -1.0240 H   0  0  0  0  0  0  0  0  0  0  0  0
   -5.1687   -0.7235    0.3422 H   0  0  0  0  0  0  0  0  0  0  0  0
   -7.9156    0.2538   -1.9247 H   0  0  0  0  0  0  0  0  0  0  0  0
   -7.1951    2.2931   -3.3605 H   0  0  0  0  0  0  0  0  0  0  0  0
   -2.9910   -1.2303   -2.0629 H   0  0  0  0  0  0  0  0  0  0  0  0
   -0.5824   -1.2318   -1.4908 H   0  0  0  0  0  0  0  0  0  0  0  0
    1.1657    2.7202   -0.0538 H   0  0  0  0  0  0  0  0  0  0  0  0
    2.2871    0.4011    1.3616 H   0  0  0  0  0  0  0  0  0  0  0  0
    2.8692    2.1685    1.4944 H   0  0  0  0  0  0  0  0  0  0  0  0
    3.6700    0.0459   -0.6020 H   0  0  0  0  0  0  0  0  0  0  0  0
    6.0740    0.1890   -0.8910 H   0  0  0  0  0  0  0  0  0  0  0  0
    5.7304   -0.1907    0.8207 H   0  0  0  0  0  0  0  0  0  0  0  0
    6.9958    1.5181    1.7214 H   0  0  0  0  0  0  0  0  0  0  0  0
    7.3932    2.3080    0.1889 H   0  0  0  0  0  0  0  0  0  0  0  0
    9.2797    1.0539    0.9570 H   0  0  0  0  0  0  0  0  0  0  0  0
    9.8417    0.2442   -1.0698 H   0  0  0  0  0  0  0  0  0  0  0  0
    8.1592    0.4335   -1.5826 H   0  0  0  0  0  0  0  0  0  0  0  0
    9.1411   -1.7529   -1.9595 H   0  0  0  0  0  0  0  0  0  0  0  0
    7.6422   -1.8602   -1.0163 H   0  0  0  0  0  0  0  0  0  0  0  0
    9.7520   -2.2632    2.0117 H   0  0  0  0  0  0  0  0  0  0  0  0
   10.4254   -0.8024    1.0962 H   0  0  0  0  0  0  0  0  0  0  0  0
    8.3379   -0.4174    2.5152 H   0  0  0  0  0  0  0  0  0  0  0  0
    7.4825   -1.4263    1.2147 H   0  0  0  0  0  0  0  0  0  0  0  0
    2.7694    1.5293   -2.1681 H   0  0  0  0  0  0  0  0  0  0  0  0
    3.1815    3.0401   -1.1501 H   0  0  0  0  0  0  0  0  0  0  0  0
   -0.7585    2.8930   -0.5712 H   0  0  0  0  0  0  0  0  0  0  0  0
   -3.1837    2.8915   -1.1375 H   0  0  0  0  0  0  0  0  0  0  0  0
   -0.6889    0.0000    0.0000 H   0  0  0  0  0  0  0  0  0  0  0  0
  1  2  1  0
  2  3  1  0
  3  4  1  0
  4  5  1  0
  5  6  1  0
  5  7  1  0
  7  8  1  0
  8  9  2  0
  9 10  1  0
 10 11  1  0
 11 12  2  0
 12 13  1  0
 13 14  2  0
 14 15  1  0
 15 16  2  0
 16 17  1  0
 17 18  1  0
 18 19  1  0
 19 20  1  0
 20 21  1  0
 21 22  1  0
 22 23  1  0
 23 24  1  0
 24 25  1  0
 25 26  1  0
 26 27  1  0
 27 28  1  0
 28 29  1  0
 20 30  1  0
 16 31  1  0
 31 32  2  0
 12  8  1  0
 32 13  1  0
 30 18  1  0
 29 24  1  0
  1 34  1  0
  1 35  1  0
  1 36  1  0
  2 37  1  0
  3 38  1  0
  3 39  1  0
  4 40  1  0
  4 41  1  0
  6 42  1  0
  6 43  1  0
  6 44  1  0
  7 45  1  0
  7 46  1  0
  9 47  1  0
 10 48  1  0
 14 49  1  0
 15 50  1  0
 18 51  1  1
 19 52  1  0
 19 53  1  0
 20 54  1  6
 22 55  1  0
 22 56  1  0
 23 57  1  0
 23 58  1  0
 24 59  1  0
 25 60  1  0
 25 61  1  0
 26 62  1  0
 26 63  1  0
 28 64  1  0
 28 65  1  0
 29 66  1  0
 29 67  1  0
 30 68  1  0
 30 69  1  0
 31 70  1  0
 32 71  1  0
 33 72  1  0
M  END
$$$$
