
     RDKit          3D

 42 45  0  0  0  0  0  0  0  0999 V2000
   -4.9303    1.7063    1.6212 C   0  0  0  0  0  0  0  0  0  0  0  0
   -3.6398    2.0590    1.1333 O   0  0  0  0  0  0  0  0  0  0  0  0
   -2.9176    1.1060    0.4633 C   0  0  0  0  0  0  0  0  0  0  0  0
   -3.3468   -0.2131    0.2853 C   0  0  0  0  0  0  0  0  0  0  0  0
   -2.5728   -1.1400   -0.4334 C   0  0  0  0  0  0  0  0  0  0  0  0
   -3.1212   -2.5287   -0.6407 C   0  0  0  0  0  0  0  0  0  0  0  0
   -1.3358   -0.7302   -0.9722 C   0  0  0  0  0  0  0  0  0  0  0  0
   -0.8632    0.5680   -0.7412 C   0  0  0  0  0  0  0  0  0  0  0  0
   -1.6727    1.5008   -0.0640 C   0  0  0  0  0  0  0  0  0  0  0  0
   -1.2669    2.9255    0.0912 C   0  0  0  0  0  0  0  0  0  0  0  0
   -0.2218    3.3937   -0.3474 O   0  0  0  0  0  0  0  0  0  0  0  0
    0.3676    0.9543   -1.2175 O   0  0  0  0  0  0  0  0  0  0  0  0
    1.4224    0.2857   -0.6534 C   0  0  0  0  0  0  0  0  0  0  0  0
    1.6115   -1.0880   -0.8126 C   0  0  0  0  0  0  0  0  0  0  0  0
    2.7275   -1.7674   -0.2667 C   0  0  0  0  0  0  0  0  0  0  0  0
    2.8951   -3.2481   -0.4730 C   0  0  0  0  0  0  0  0  0  0  0  0
    3.6876   -1.0096    0.4238 C   0  0  0  0  0  0  0  0  0  0  0  0
    4.8068   -1.5736    0.9555 O   0  0  0  0  0  0  0  0  0  0  0  0
    3.4917    0.3579    0.5653 C   0  0  0  0  0  0  0  0  0  0  0  0
    2.3864    0.9952    0.0392 C   0  0  0  0  0  0  0  0  0  0  0  0
    2.4659    2.4306    0.3579 C   0  0  0  0  0  0  0  0  0  0  0  0
    2.4459    3.1963   -0.8248 O   0  0  0  0  0  0  0  0  0  0  0  0
    3.7140    2.5720    1.0461 O   0  0  0  0  0  0  0  0  0  0  0  0
    4.3347    1.3657    1.2120 C   0  0  0  0  0  0  0  0  0  0  0  0
    5.3812    1.1939    1.8038 O   0  0  0  0  0  0  0  0  0  0  0  0
    0.7423   -1.8438   -1.6387 O   0  0  0  0  0  0  0  0  0  0  0  0
   -0.6057   -1.6321   -1.8916 C   0  0  0  0  0  0  0  0  0  0  0  0
   -1.1934   -2.2354   -2.7811 O   0  0  0  0  0  0  0  0  0  0  0  0
   -5.3621    2.5941    2.0930 H   0  0  0  0  0  0  0  0  0  0  0  0
   -5.5937    1.4078    0.8029 H   0  0  0  0  0  0  0  0  0  0  0  0
   -4.8612    0.9241    2.3841 H   0  0  0  0  0  0  0  0  0  0  0  0
   -4.3027   -0.5477    0.6811 H   0  0  0  0  0  0  0  0  0  0  0  0
   -3.8880   -2.7652    0.1053 H   0  0  0  0  0  0  0  0  0  0  0  0
   -3.5748   -2.6128   -1.6329 H   0  0  0  0  0  0  0  0  0  0  0  0
   -2.3345   -3.2817   -0.5279 H   0  0  0  0  0  0  0  0  0  0  0  0
   -1.9641    3.5847    0.6336 H   0  0  0  0  0  0  0  0  0  0  0  0
    3.5847   -3.4339   -1.3020 H   0  0  0  0  0  0  0  0  0  0  0  0
    1.9442   -3.7438   -0.6917 H   0  0  0  0  0  0  0  0  0  0  0  0
    3.2829   -3.7252    0.4332 H   0  0  0  0  0  0  0  0  0  0  0  0
    5.0068   -2.4174    0.5209 H   0  0  0  0  0  0  0  0  0  0  0  0
    1.6784    2.7405    1.0519 H   0  0  0  0  0  0  0  0  0  0  0  0
    1.5916    3.6757   -0.7913 H   0  0  0  0  0  0  0  0  0  0  0  0
  1  2  1  0
  2  3  1  0
  3  4  2  0
  4  5  1  0
  5  6  1  0
  5  7  2  0
  7  8  1  0
  8  9  2  0
  9 10  1  0
 10 11  2  0
  8 12  1  0
 12 13  1  0
 13 14  2  0
 14 15  1  0
 15 16  1  0
 15 17  2  0
 17 18  1  0
 17 19  1  0
 19 20  2  0
 20 21  1  0
 21 22  1  0
 21 23  1  0
 23 24  1  0
 24 25  2  0
 14 26  1  0
 26 27  1  0
 27 28  2  0
  9  3  1  0
 20 13  1  0
 27  7  1  0
 24 19  1  0
  1 29  1  0
  1 30  1  0
  1 31  1  0
  4 32  1  0
  6 33  1  0
  6 34  1  0
  6 35  1  0
 10 36  1  0
 16 37  1  0
 16 38  1  0
 16 39  1  0
 18 40  1  0
 21 41  1  0
 22 42  1  0
M  END
$$$$
