
     RDKit          3D

 35 35  0  0  0  0  0  0  0  0999 V2000
   -5.2970    0.3925   -1.7645 N   0  0  0  0  0  0  0  0  0  0  0  0
   -4.2595   -0.4775   -1.1046 C   0  0  1  0  0  0  0  0  0  0  0  0
   -3.3637    0.3518   -0.1760 C   0  0  0  0  0  0  0  0  0  0  0  0
   -1.8872    0.0708   -0.3763 C   0  0  0  0  0  0  0  0  0  0  0  0
   -1.2952   -1.0636    0.1953 C   0  0  0  0  0  0  0  0  0  0  0  0
    0.0674   -1.3212    0.0136 C   0  0  0  0  0  0  0  0  0  0  0  0
    0.8525   -3.0638    0.8792 I   0  0  0  0  0  0  0  0  0  0  0  0
    0.8601   -0.4305   -0.7259 C   0  0  0  0  0  0  0  0  0  0  0  0
    2.2032   -0.6735   -0.8957 O   0  0  0  0  0  0  0  0  0  0  0  0
    3.0841   -0.1208    0.0146 C   0  0  0  0  0  0  0  0  0  0  0  0
    2.7265    0.6092    1.1523 C   0  0  0  0  0  0  0  0  0  0  0  0
    3.7151    1.1184    1.9992 C   0  0  0  0  0  0  0  0  0  0  0  0
    5.0619    0.8999    1.7098 C   0  0  0  0  0  0  0  0  0  0  0  0
    6.0186    1.4051    2.5460 O   0  0  0  0  0  0  0  0  0  0  0  0
    5.4248    0.1709    0.5745 C   0  0  0  0  0  0  0  0  0  0  0  0
    7.4251   -0.1917    0.0863 I   0  0  0  0  0  0  0  0  0  0  0  0
    4.4353   -0.3410   -0.2694 C   0  0  0  0  0  0  0  0  0  0  0  0
    0.2590    0.6760   -1.3436 C   0  0  0  0  0  0  0  0  0  0  0  0
    1.3347    2.0026   -2.5619 I   0  0  0  0  0  0  0  0  0  0  0  0
   -1.1053    0.9265   -1.1643 C   0  0  0  0  0  0  0  0  0  0  0  0
   -4.9923   -1.5363   -0.1962 C   0  0  0  0  0  0  0  0  0  0  0  0
   -6.2012   -1.2537    0.0720 O   0  0  0  0  0  0  0  0  0  0  0  0
   -4.2979   -2.5307    0.1537 O   0  0  0  0  0  1  0  0  0  0  0  0
    0.0000    0.0000    0.0000 Na  0  0  0  0  0 15  0  0  0  0  0  0
   -5.9721    0.5562   -0.9983 H   0  0  0  0  0  0  0  0  0  0  0  0
   -5.8481   -0.2530   -2.3377 H   0  0  0  0  0  0  0  0  0  0  0  0
   -3.6973   -0.9913   -1.8921 H   0  0  0  0  0  0  0  0  0  0  0  0
   -3.5245    1.4251   -0.3474 H   0  0  0  0  0  0  0  0  0  0  0  0
   -3.6087    0.1997    0.8838 H   0  0  0  0  0  0  0  0  0  0  0  0
   -1.9189   -1.7507    0.7694 H   0  0  0  0  0  0  0  0  0  0  0  0
    1.6861    0.7954    1.4048 H   0  0  0  0  0  0  0  0  0  0  0  0
    3.4107    1.6825    2.8761 H   0  0  0  0  0  0  0  0  0  0  0  0
    5.5833    1.8459    3.2931 H   0  0  0  0  0  0  0  0  0  0  0  0
    4.6997   -0.9128   -1.1554 H   0  0  0  0  0  0  0  0  0  0  0  0
   -1.5791    1.7835   -1.6389 H   0  0  0  0  0  0  0  0  0  0  0  0
  1  2  1  0
  2  3  1  0
  3  4  1  0
  4  5  2  0
  5  6  1  0
  6  7  1  0
  6  8  2  0
  8  9  1  0
  9 10  1  0
 10 11  2  0
 11 12  1  0
 12 13  2  0
 13 14  1  0
 13 15  1  0
 15 16  1  0
 15 17  2  0
  8 18  1  0
 18 19  1  0
 18 20  2  0
  2 21  1  0
 21 22  2  0
 21 23  1  0
 20  4  1  0
 17 10  1  0
  1 25  1  0
  1 26  1  0
  2 27  1  6
  3 28  1  0
  3 29  1  0
  5 30  1  0
 11 31  1  0
 12 32  1  0
 14 33  1  0
 17 34  1  0
 20 35  1  0
M  CHG  2  23  -1  24   1
M  END
$$$$
