
     RDKit          3D

106109  0  0  0  0  0  0  0  0999 V2000
   12.4252    0.3563    1.1261 N   0  0  0  0  0  0  0  0  0  0  0  0
   11.8197   -0.5600    0.4683 C   0  0  0  0  0  0  0  0  0  0  0  0
   12.4701   -1.6975    0.1613 N   0  0  0  0  0  0  0  0  0  0  0  0
   10.5560   -0.5635   -0.0102 N   0  0  0  0  0  0  0  0  0  0  0  0
    9.5484    0.4054    0.3838 C   0  0  0  0  0  0  0  0  0  0  0  0
    8.2455    0.1837   -0.3888 C   0  0  0  0  0  0  0  0  0  0  0  0
    7.4396   -1.0102    0.1368 C   0  0  0  0  0  0  0  0  0  0  0  0
    6.1953   -1.3307   -0.7039 C   0  0  0  0  0  0  0  0  0  0  0  0
    5.1843   -0.1812   -0.8449 C   0  0  2  0  0  0  0  0  0  0  0  0
    4.6816    0.2591    0.4539 N   0  0  0  0  0  0  0  0  0  0  0  0
    4.1271    1.4633    0.7718 C   0  0  0  0  0  0  0  0  0  0  0  0
    3.9096    1.7195    1.9542 O   0  0  0  0  0  0  0  0  0  0  0  0
    3.8516    2.4642   -0.3297 C   0  0  0  0  0  0  0  0  0  0  0  0
    2.5404    3.2023   -0.0980 C   0  0  0  0  0  0  0  0  0  0  0  0
    1.1133    2.1045   -0.4448 S   0  0  0  0  0  0  0  0  0  0  0  0
    0.1075    2.0812    1.3545 S   0  0  0  0  0  0  0  0  0  0  0  0
   -0.8769    3.6216    1.2713 C   0  0  0  0  0  0  0  0  0  0  0  0
   -2.2193    3.4796    0.5262 C   0  0  1  0  0  0  0  0  0  0  0  0
   -2.7776    4.9058    0.3708 C   0  0  0  0  0  0  0  0  0  0  0  0
   -3.2658    5.4751    1.5159 N   0  0  0  0  0  0  0  0  0  0  0  0
   -2.7732    5.5407   -0.6786 O   0  0  0  0  0  0  0  0  0  0  0  0
   -2.0860    2.8327   -0.7803 N   0  0  0  0  0  0  0  0  0  0  0  0
   -2.9487    2.0642   -1.4898 C   0  0  0  0  0  0  0  0  0  0  0  0
   -2.4434    1.3038   -2.3288 O   0  0  0  0  0  0  0  0  0  0  0  0
   -4.4707    2.0075   -1.2396 C   0  0  2  0  0  0  0  0  0  0  0  0
   -5.2403    3.1753   -0.6461 C   0  0  0  0  0  0  0  0  0  0  0  0
   -6.6429    2.5890   -0.5783 C   0  0  0  0  0  0  0  0  0  0  0  0
   -6.3852    1.1433   -0.1594 C   0  0  0  0  0  0  0  0  0  0  0  0
   -5.0171    0.8121   -0.5779 N   0  0  0  0  0  0  0  0  0  0  0  0
   -4.2160    0.2914    0.4464 C   0  0  0  0  0  0  0  0  0  0  0  0
   -4.1286    0.8006    1.5638 O   0  0  0  0  0  0  0  0  0  0  0  0
   -3.4486   -0.9867    0.0451 C   0  0  2  0  0  0  0  0  0  0  0  0
   -4.1554   -2.2089    0.6642 C   0  0  0  0  0  0  0  0  0  0  0  0
   -5.5493   -2.4277    0.1579 C   0  0  0  0  0  0  0  0  0  0  0  0
   -5.9071   -2.8535   -1.1064 C   0  0  0  0  0  0  0  0  0  0  0  0
   -7.2737   -2.9203   -1.1683 N   0  0  0  0  0  0  0  0  0  0  0  0
   -7.8242   -2.5292    0.0289 C   0  0  0  0  0  0  0  0  0  0  0  0
   -9.1667   -2.4225    0.4132 C   0  0  0  0  0  0  0  0  0  0  0  0
   -9.4380   -1.9951    1.7160 C   0  0  0  0  0  0  0  0  0  0  0  0
   -8.4055   -1.6875    2.5977 C   0  0  0  0  0  0  0  0  0  0  0  0
   -7.0681   -1.7978    2.1971 C   0  0  0  0  0  0  0  0  0  0  0  0
   -6.7668   -2.2270    0.8876 C   0  0  0  0  0  0  0  0  0  0  0  0
   -2.0812   -0.8262    0.5766 N   0  0  0  0  0  0  0  0  0  0  0  0
   -1.0846   -1.7509    0.4405 C   0  0  0  0  0  0  0  0  0  0  0  0
   -0.6555   -2.2577    1.4818 O   0  0  0  0  0  0  0  0  0  0  0  0
   -0.3502   -1.9445   -0.9161 C   0  0  2  0  0  0  0  0  0  0  0  0
   -1.1871   -2.0827   -2.1814 C   0  0  0  0  0  0  0  0  0  0  0  0
   -2.0421   -3.3133   -2.1736 C   0  0  0  0  0  0  0  0  0  0  0  0
   -2.0548   -4.1918   -1.3295 O   0  0  0  0  0  0  0  0  0  0  0  0
   -2.8317   -3.3991   -3.2601 O   0  0  0  0  0  0  0  0  0  0  0  0
    0.5678   -3.0963   -0.7957 N   0  0  0  0  0  0  0  0  0  0  0  0
    1.8284   -3.1230   -0.2656 C   0  0  0  0  0  0  0  0  0  0  0  0
    2.3379   -4.2104    0.0092 O   0  0  0  0  0  0  0  0  0  0  0  0
    2.6161   -1.8238   -0.1288 C   0  0  0  0  0  0  0  0  0  0  0  0
    3.0084   -1.3577   -1.4506 N   0  0  0  0  0  0  0  0  0  0  0  0
    4.0731   -0.6061   -1.8335 C   0  0  0  0  0  0  0  0  0  0  0  0
    4.1908   -0.3560   -3.0376 O   0  0  0  0  0  0  0  0  0  0  0  0
   11.7992    1.1493    1.2649 H   0  0  0  0  0  0  0  0  0  0  0  0
   12.4072   -1.9207   -0.8243 H   0  0  0  0  0  0  0  0  0  0  0  0
   13.4458   -1.5985    0.4297 H   0  0  0  0  0  0  0  0  0  0  0  0
   10.2023   -1.5113   -0.0913 H   0  0  0  0  0  0  0  0  0  0  0  0
    9.3692    0.3520    1.4636 H   0  0  0  0  0  0  0  0  0  0  0  0
    9.9127    1.4136    0.1549 H   0  0  0  0  0  0  0  0  0  0  0  0
    7.6423    1.0934   -0.2873 H   0  0  0  0  0  0  0  0  0  0  0  0
    8.4585    0.0504   -1.4566 H   0  0  0  0  0  0  0  0  0  0  0  0
    7.1476   -0.8234    1.1777 H   0  0  0  0  0  0  0  0  0  0  0  0
    8.0701   -1.9075    0.1494 H   0  0  0  0  0  0  0  0  0  0  0  0
    5.7033   -2.2062   -0.2639 H   0  0  0  0  0  0  0  0  0  0  0  0
    6.5229   -1.6416   -1.7037 H   0  0  0  0  0  0  0  0  0  0  0  0
    5.6760    0.6832   -1.3066 H   0  0  0  0  0  0  0  0  0  0  0  0
    4.8416   -0.3274    1.2650 H   0  0  0  0  0  0  0  0  0  0  0  0
    4.6819    3.1814   -0.3104 H   0  0  0  0  0  0  0  0  0  0  0  0
    3.8515    2.0096   -1.3230 H   0  0  0  0  0  0  0  0  0  0  0  0
    2.4729    4.0403   -0.7986 H   0  0  0  0  0  0  0  0  0  0  0  0
    2.4835    3.6173    0.9129 H   0  0  0  0  0  0  0  0  0  0  0  0
   -0.2577    4.4121    0.8303 H   0  0  0  0  0  0  0  0  0  0  0  0
   -1.0686    3.9303    2.3056 H   0  0  0  0  0  0  0  0  0  0  0  0
   -2.9134    2.8922    1.1295 H   0  0  0  0  0  0  0  0  0  0  0  0
   -3.5917    4.9063    2.2871 H   0  0  0  0  0  0  0  0  0  0  0  0
   -3.7109    6.3790    1.3985 H   0  0  0  0  0  0  0  0  0  0  0  0
   -1.1306    2.6901   -1.0959 H   0  0  0  0  0  0  0  0  0  0  0  0
   -4.8553    1.9177   -2.2698 H   0  0  0  0  0  0  0  0  0  0  0  0
   -5.1921    4.0798   -1.2590 H   0  0  0  0  0  0  0  0  0  0  0  0
   -4.9246    3.4104    0.3712 H   0  0  0  0  0  0  0  0  0  0  0  0
   -7.2932    3.1185    0.1240 H   0  0  0  0  0  0  0  0  0  0  0  0
   -7.1131    2.6196   -1.5686 H   0  0  0  0  0  0  0  0  0  0  0  0
   -7.0774    0.4641   -0.6650 H   0  0  0  0  0  0  0  0  0  0  0  0
   -6.5109    1.0270    0.9223 H   0  0  0  0  0  0  0  0  0  0  0  0
   -3.4146   -1.0655   -1.0415 H   0  0  0  0  0  0  0  0  0  0  0  0
   -4.1715   -2.1106    1.7592 H   0  0  0  0  0  0  0  0  0  0  0  0
   -3.5737   -3.1176    0.4642 H   0  0  0  0  0  0  0  0  0  0  0  0
   -5.3092   -3.1124   -1.9687 H   0  0  0  0  0  0  0  0  0  0  0  0
   -7.8081   -3.2088   -1.9755 H   0  0  0  0  0  0  0  0  0  0  0  0
   -9.9749   -2.6651   -0.2693 H   0  0  0  0  0  0  0  0  0  0  0  0
  -10.4710   -1.9057    2.0473 H   0  0  0  0  0  0  0  0  0  0  0  0
   -8.6362   -1.3621    3.6095 H   0  0  0  0  0  0  0  0  0  0  0  0
   -6.2738   -1.5457    2.8941 H   0  0  0  0  0  0  0  0  0  0  0  0
   -2.1496   -0.6009    1.5674 H   0  0  0  0  0  0  0  0  0  0  0  0
    0.2609   -1.0440   -1.0347 H   0  0  0  0  0  0  0  0  0  0  0  0
   -0.5167   -2.1641   -3.0464 H   0  0  0  0  0  0  0  0  0  0  0  0
   -1.8145   -1.2049   -2.3345 H   0  0  0  0  0  0  0  0  0  0  0  0
   -3.2727   -4.2708   -3.1707 H   0  0  0  0  0  0  0  0  0  0  0  0
    0.1155   -4.0029   -0.6879 H   0  0  0  0  0  0  0  0  0  0  0  0
    2.0199   -1.0544    0.3668 H   0  0  0  0  0  0  0  0  0  0  0  0
    3.4976   -2.0260    0.4826 H   0  0  0  0  0  0  0  0  0  0  0  0
    2.3881   -1.5833   -2.2205 H   0  0  0  0  0  0  0  0  0  0  0  0
  1  2  2  3
  2  3  1  0
  2  4  1  0
  4  5  1  0
  5  6  1  0
  6  7  1  0
  7  8  1  0
  8  9  1  0
  9 10  1  0
 10 11  1  0
 11 12  2  0
 11 13  1  0
 13 14  1  0
 14 15  1  0
 15 16  1  0
 16 17  1  0
 17 18  1  0
 18 19  1  0
 19 20  1  0
 19 21  2  0
 18 22  1  0
 22 23  1  0
 23 24  2  0
 23 25  1  0
 25 26  1  0
 26 27  1  0
 27 28  1  0
 28 29  1  0
 29 30  1  0
 30 31  2  0
 30 32  1  0
 32 33  1  0
 33 34  1  0
 34 35  2  0
 35 36  1  0
 36 37  1  0
 37 38  2  0
 38 39  1  0
 39 40  2  0
 40 41  1  0
 41 42  2  0
 32 43  1  0
 43 44  1  0
 44 45  2  0
 44 46  1  0
 46 47  1  0
 47 48  1  0
 48 49  2  0
 48 50  1  0
 46 51  1  0
 51 52  1  0
 52 53  2  0
 52 54  1  0
 54 55  1  0
 55 56  1  0
 56 57  2  0
 56  9  1  0
 29 25  1  0
 42 34  1  0
 42 37  1  0
  1 58  1  0
  3 59  1  0
  3 60  1  0
  4 61  1  0
  5 62  1  0
  5 63  1  0
  6 64  1  0
  6 65  1  0
  7 66  1  0
  7 67  1  0
  8 68  1  0
  8 69  1  0
  9 70  1  6
 10 71  1  0
 13 72  1  0
 13 73  1  0
 14 74  1  0
 14 75  1  0
 17 76  1  0
 17 77  1  0
 18 78  1  1
 20 79  1  0
 20 80  1  0
 22 81  1  0
 25 82  1  6
 26 83  1  0
 26 84  1  0
 27 85  1  0
 27 86  1  0
 28 87  1  0
 28 88  1  0
 32 89  1  6
 33 90  1  0
 33 91  1  0
 35 92  1  0
 36 93  1  0
 38 94  1  0
 39 95  1  0
 40 96  1  0
 41 97  1  0
 43 98  1  0
 46 99  1  6
 47100  1  0
 47101  1  0
 50102  1  0
 51103  1  0
 54104  1  0
 54105  1  0
 55106  1  0
M  END
$$$$
