
     RDKit          3D

 64 64  0  0  0  0  0  0  0  0999 V2000
   -1.9563   -1.7887    1.5711 C   0  0  0  0  0  0  0  0  0  0  0  0
   -2.2685   -1.6440    0.1051 C   0  0  0  0  0  0  0  0  0  0  0  0
   -3.3101   -2.4198   -0.4341 C   0  0  0  0  0  0  0  0  0  0  0  0
   -3.6359   -2.3472   -1.7878 C   0  0  0  0  0  0  0  0  0  0  0  0
   -2.9220   -1.5021   -2.6280 C   0  0  0  0  0  0  0  0  0  0  0  0
   -1.8786   -0.7329   -2.1144 C   0  0  0  0  0  0  0  0  0  0  0  0
   -1.5292   -0.7920   -0.7484 C   0  0  0  0  0  0  0  0  0  0  0  0
   -0.3688    0.0850   -0.2706 C   0  0  0  0  0  0  0  0  0  0  0  0
    0.5638   -0.7109    0.4764 O   0  0  0  0  0  0  0  0  0  0  0  0
    1.4164   -1.5459   -0.3088 C   0  0  0  0  0  0  0  0  0  0  0  0
    2.4652   -0.7875   -1.1520 C   0  0  0  0  0  0  0  0  0  0  0  0
    3.1914    0.2877   -0.4488 N   0  0  0  0  0  0  0  0  0  0  0  0
    3.9535   -0.2195    0.6922 C   0  0  0  0  0  0  0  0  0  0  0  0
    4.0789    0.9917   -1.3752 C   0  0  0  0  0  0  0  0  0  0  0  0
   -0.7768    1.3083    0.5553 C   0  0  0  0  0  0  0  0  0  0  0  0
   -2.0304    1.9286    0.4105 C   0  0  0  0  0  0  0  0  0  0  0  0
   -2.3565    3.0724    1.1450 C   0  0  0  0  0  0  0  0  0  0  0  0
   -1.4302    3.6273    2.0240 C   0  0  0  0  0  0  0  0  0  0  0  0
   -0.1748    3.0433    2.1653 C   0  0  0  0  0  0  0  0  0  0  0  0
    0.1505    1.8998    1.4323 C   0  0  0  0  0  0  0  0  0  0  0  0
    2.5169   -1.1209    0.5949 O   0  0  0  0  0  0  0  0  0  0  0  0
    2.1993   -0.4605   -0.3799 C   0  0  0  0  0  0  0  0  0  0  0  0
    3.1290   -0.0102   -1.2418 O   0  0  0  0  0  0  0  0  0  0  0  0
    0.8031   -0.0930   -0.7936 C   0  0  0  0  0  0  0  0  0  0  0  0
   -0.1740   -0.1447    0.3895 C   0  0  0  0  0  0  0  0  0  0  0  0
   -0.4117   -1.5143    0.7496 O   0  0  0  0  0  0  0  0  0  0  0  0
   -1.5358    0.4924    0.0821 C   0  0  0  0  0  0  0  0  0  0  0  0
   -2.2446   -0.1499   -1.0736 C   0  0  0  0  0  0  0  0  0  0  0  0
   -1.8289   -0.2430   -2.2168 O   0  0  0  0  0  0  0  0  0  0  0  0
   -3.4738   -0.5962   -0.7553 O   0  0  0  0  0  0  0  0  0  0  0  0
    0.3843    0.6210    1.6036 C   0  0  0  0  0  0  0  0  0  0  0  0
    0.4740    0.2000    2.7455 O   0  0  0  0  0  0  0  0  0  0  0  0
    0.7874    1.8739    1.3122 O   0  0  0  0  0  0  0  0  0  0  0  0
   -2.7732   -2.2915    2.1008 H   0  0  0  0  0  0  0  0  0  0  0  0
   -1.8291   -0.8156    2.0519 H   0  0  0  0  0  0  0  0  0  0  0  0
   -1.0525   -2.3898    1.7081 H   0  0  0  0  0  0  0  0  0  0  0  0
   -3.8795   -3.0905    0.2065 H   0  0  0  0  0  0  0  0  0  0  0  0
   -4.4479   -2.9514   -2.1835 H   0  0  0  0  0  0  0  0  0  0  0  0
   -3.1759   -1.4411   -3.6829 H   0  0  0  0  0  0  0  0  0  0  0  0
   -1.3345   -0.0761   -2.7907 H   0  0  0  0  0  0  0  0  0  0  0  0
    0.1440    0.5058   -1.1435 H   0  0  0  0  0  0  0  0  0  0  0  0
    0.8166   -2.1959   -0.9561 H   0  0  0  0  0  0  0  0  0  0  0  0
    1.9321   -2.2100    0.3938 H   0  0  0  0  0  0  0  0  0  0  0  0
    3.1687   -1.5202   -1.5697 H   0  0  0  0  0  0  0  0  0  0  0  0
    1.9437   -0.3429   -2.0085 H   0  0  0  0  0  0  0  0  0  0  0  0
    4.6780   -0.9867    0.3955 H   0  0  0  0  0  0  0  0  0  0  0  0
    3.2920   -0.6411    1.4559 H   0  0  0  0  0  0  0  0  0  0  0  0
    4.4989    0.5949    1.1831 H   0  0  0  0  0  0  0  0  0  0  0  0
    4.5768    1.8279   -0.8719 H   0  0  0  0  0  0  0  0  0  0  0  0
    4.8482    0.3318   -1.7923 H   0  0  0  0  0  0  0  0  0  0  0  0
    3.5075    1.4235   -2.2042 H   0  0  0  0  0  0  0  0  0  0  0  0
   -2.7750    1.5270   -0.2731 H   0  0  0  0  0  0  0  0  0  0  0  0
   -3.3351    3.5301    1.0267 H   0  0  0  0  0  0  0  0  0  0  0  0
   -1.6846    4.5166    2.5938 H   0  0  0  0  0  0  0  0  0  0  0  0
    0.5565    3.4764    2.8422 H   0  0  0  0  0  0  0  0  0  0  0  0
    1.1428    1.4651    1.5455 H   0  0  0  0  0  0  0  0  0  0  0  0
    3.9812   -0.3452   -0.8913 H   0  0  0  0  0  0  0  0  0  0  0  0
    0.5202   -0.8071   -1.5741 H   0  0  0  0  0  0  0  0  0  0  0  0
    0.8280    0.9177   -1.2175 H   0  0  0  0  0  0  0  0  0  0  0  0
    0.3743   -1.8157    1.2532 H   0  0  0  0  0  0  0  0  0  0  0  0
   -2.1836    0.4119    0.9657 H   0  0  0  0  0  0  0  0  0  0  0  0
   -1.4474    1.5623   -0.1420 H   0  0  0  0  0  0  0  0  0  0  0  0
   -3.8091   -1.0000   -1.5828 H   0  0  0  0  0  0  0  0  0  0  0  0
    1.1111    2.2215    2.1725 H   0  0  0  0  0  0  0  0  0  0  0  0
  1  2  1  0
  2  3  2  0
  3  4  1  0
  4  5  2  0
  5  6  1  0
  6  7  2  0
  7  8  1  0
  8  9  1  0
  9 10  1  0
 10 11  1  0
 11 12  1  0
 12 13  1  0
 12 14  1  0
  8 15  1  0
 15 16  2  0
 16 17  1  0
 17 18  2  0
 18 19  1  0
 19 20  2  0
 21 22  2  0
 22 23  1  0
 22 24  1  0
 24 25  1  0
 25 26  1  0
 25 27  1  0
 27 28  1  0
 28 29  2  0
 28 30  1  0
 25 31  1  0
 31 32  2  0
 31 33  1  0
  7  2  1  0
 20 15  1  0
  1 34  1  0
  1 35  1  0
  1 36  1  0
  3 37  1  0
  4 38  1  0
  5 39  1  0
  6 40  1  0
  8 41  1  0
 10 42  1  0
 10 43  1  0
 11 44  1  0
 11 45  1  0
 13 46  1  0
 13 47  1  0
 13 48  1  0
 14 49  1  0
 14 50  1  0
 14 51  1  0
 16 52  1  0
 17 53  1  0
 18 54  1  0
 19 55  1  0
 20 56  1  0
 23 57  1  0
 24 58  1  0
 24 59  1  0
 26 60  1  0
 27 61  1  0
 27 62  1  0
 30 63  1  0
 33 64  1  0
M  END
$$$$
