
     RDKit          3D

 60 63  0  0  0  0  0  0  0  0999 V2000
    7.4247   -1.3060   -1.2775 C   0  0  0  0  0  0  0  0  0  0  0  0
    6.7208   -0.2523   -1.9265 O   0  0  0  0  0  0  0  0  0  0  0  0
    5.3513   -0.3414   -1.7780 C   0  0  0  0  0  0  0  0  0  0  0  0
    4.6041    0.6334   -2.4229 C   0  0  0  0  0  0  0  0  0  0  0  0
    3.2195    0.5947   -2.2980 C   0  0  0  0  0  0  0  0  0  0  0  0
    2.6413   -0.4132   -1.5259 C   0  0  0  0  0  0  0  0  0  0  0  0
    1.1787   -0.4601   -1.4057 C   0  0  0  0  0  0  0  0  0  0  0  0
    0.5296   -0.7791   -2.3975 O   0  0  0  0  0  0  0  0  0  0  0  0
    0.6060   -0.0678   -0.2105 N   0  0  0  0  0  0  0  0  0  0  0  0
    1.2898    0.2624    1.0233 C   0  0  0  0  0  0  0  0  0  0  0  0
    0.2472    0.9526    1.9040 C   0  0  1  0  0  0  0  0  0  0  0  0
    0.4852    2.4538    2.0838 C   0  0  0  0  0  0  0  0  0  0  0  0
    0.4926    3.3007    0.8162 C   0  0  0  0  0  0  0  0  0  0  0  0
   -0.6476    3.0604   -0.1581 C   0  0  0  0  0  0  0  0  0  0  0  0
   -1.9827    2.7898    0.4991 C   0  0  0  0  0  0  0  0  0  0  0  0
   -2.8926    3.6125    0.3793 O   0  0  0  0  0  0  0  0  0  0  0  0
   -2.1292    1.6116    1.2224 N   0  0  0  0  0  0  0  0  0  0  0  0
   -3.4601    1.3095    1.7571 C   0  0  0  0  0  0  0  0  0  0  0  0
   -4.1985    0.2969    0.9123 C   0  0  0  0  0  0  0  0  0  0  0  0
   -4.3661   -1.0229    1.3529 C   0  0  0  0  0  0  0  0  0  0  0  0
   -5.0221   -1.9610    0.5518 C   0  0  0  0  0  0  0  0  0  0  0  0
   -5.5324   -1.5942   -0.6980 C   0  0  0  0  0  0  0  0  0  0  0  0
   -6.2081   -2.6038   -1.5775 C   0  0  0  0  0  0  0  0  0  0  0  0
   -5.3597   -0.2792   -1.1430 C   0  0  0  0  0  0  0  0  0  0  0  0
   -4.7032    0.6586   -0.3436 C   0  0  0  0  0  0  0  0  0  0  0  0
   -1.1214    0.5396    1.3125 C   0  0  1  0  0  0  0  0  0  0  0  0
   -0.8255   -0.1840   -0.0109 C   0  0  0  0  0  0  0  0  0  0  0  0
    3.4646   -1.3649   -0.9359 C   0  0  0  0  0  0  0  0  0  0  0  0
    2.8752   -2.3712   -0.1962 O   0  0  0  0  0  0  0  0  0  0  0  0
    3.7910   -3.3759    0.2260 C   0  0  0  0  0  0  0  0  0  0  0  0
    4.8161   -1.3349   -1.0345 N   0  0  0  0  0  0  0  0  0  0  0  0
    8.4930   -1.1564   -1.4619 H   0  0  0  0  0  0  0  0  0  0  0  0
    7.2674   -1.2794   -0.1937 H   0  0  0  0  0  0  0  0  0  0  0  0
    7.1489   -2.2820   -1.6915 H   0  0  0  0  0  0  0  0  0  0  0  0
    5.0920    1.4010   -3.0135 H   0  0  0  0  0  0  0  0  0  0  0  0
    2.5977    1.3321   -2.7981 H   0  0  0  0  0  0  0  0  0  0  0  0
    1.6031   -0.6804    1.4853 H   0  0  0  0  0  0  0  0  0  0  0  0
    2.1825    0.8660    0.8371 H   0  0  0  0  0  0  0  0  0  0  0  0
    0.3266    0.5238    2.9131 H   0  0  0  0  0  0  0  0  0  0  0  0
   -0.2695    2.8513    2.7752 H   0  0  0  0  0  0  0  0  0  0  0  0
    1.4468    2.5997    2.5932 H   0  0  0  0  0  0  0  0  0  0  0  0
    0.4780    4.3550    1.1219 H   0  0  0  0  0  0  0  0  0  0  0  0
    1.4410    3.1613    0.2830 H   0  0  0  0  0  0  0  0  0  0  0  0
   -0.7589    3.9505   -0.7909 H   0  0  0  0  0  0  0  0  0  0  0  0
   -0.4133    2.2592   -0.8594 H   0  0  0  0  0  0  0  0  0  0  0  0
   -3.3339    0.9443    2.7838 H   0  0  0  0  0  0  0  0  0  0  0  0
   -4.0710    2.2162    1.8374 H   0  0  0  0  0  0  0  0  0  0  0  0
   -3.9836   -1.3342    2.3218 H   0  0  0  0  0  0  0  0  0  0  0  0
   -5.1324   -2.9820    0.9104 H   0  0  0  0  0  0  0  0  0  0  0  0
   -7.0733   -2.1587   -2.0805 H   0  0  0  0  0  0  0  0  0  0  0  0
   -6.5734   -3.4558   -0.9945 H   0  0  0  0  0  0  0  0  0  0  0  0
   -5.5064   -2.9723   -2.3323 H   0  0  0  0  0  0  0  0  0  0  0  0
   -5.7340    0.0249   -2.1181 H   0  0  0  0  0  0  0  0  0  0  0  0
   -4.5818    1.6775   -0.7088 H   0  0  0  0  0  0  0  0  0  0  0  0
   -1.5305   -0.2135    1.9998 H   0  0  0  0  0  0  0  0  0  0  0  0
   -1.0603   -1.2518    0.0740 H   0  0  0  0  0  0  0  0  0  0  0  0
   -1.3725    0.2081   -0.8740 H   0  0  0  0  0  0  0  0  0  0  0  0
    3.2196   -4.1463    0.7527 H   0  0  0  0  0  0  0  0  0  0  0  0
    4.2825   -3.8524   -0.6293 H   0  0  0  0  0  0  0  0  0  0  0  0
    4.5272   -2.9700    0.9282 H   0  0  0  0  0  0  0  0  0  0  0  0
  1  2  1  0
  2  3  1  0
  3  4  2  0
  4  5  1  0
  5  6  2  0
  6  7  1  0
  7  8  2  0
  7  9  1  0
  9 10  1  0
 10 11  1  0
 11 12  1  0
 12 13  1  0
 13 14  1  0
 14 15  1  0
 15 16  2  0
 15 17  1  0
 17 18  1  0
 18 19  1  0
 19 20  2  0
 20 21  1  0
 21 22  2  0
 22 23  1  0
 22 24  1  0
 24 25  2  0
 17 26  1  0
 26 27  1  0
  6 28  1  0
 28 29  1  0
 29 30  1  0
 28 31  2  0
 31  3  1  0
 27  9  1  0
 26 11  1  0
 25 19  1  0
  1 32  1  0
  1 33  1  0
  1 34  1  0
  4 35  1  0
  5 36  1  0
 10 37  1  0
 10 38  1  0
 11 39  1  1
 12 40  1  0
 12 41  1  0
 13 42  1  0
 13 43  1  0
 14 44  1  0
 14 45  1  0
 18 46  1  0
 18 47  1  0
 20 48  1  0
 21 49  1  0
 23 50  1  0
 23 51  1  0
 23 52  1  0
 24 53  1  0
 25 54  1  0
 26 55  1  1
 27 56  1  0
 27 57  1  0
 30 58  1  0
 30 59  1  0
 30 60  1  0
M  END
$$$$
