
     RDKit          3D

 47 51  0  0  0  0  0  0  0  0999 V2000
   -0.3644   -0.8795    2.6232 C   0  0  0  0  0  0  0  0  0  0  0  0
   -0.4199   -0.5332    1.1289 C   0  0  1  0  0  0  0  0  0  0  0  0
   -1.7159    0.0761    0.7972 N   0  0  0  0  0  0  0  0  0  0  0  0
   -2.7431   -0.8184    0.4620 C   0  0  0  0  0  0  0  0  0  0  0  0
   -2.8454   -2.0381    1.0530 N   0  0  0  0  0  0  0  0  0  0  0  0
   -3.8651   -2.8530    0.6994 C   0  0  0  0  0  0  0  0  0  0  0  0
   -4.8433   -2.6293   -0.2015 N   0  0  0  0  0  0  0  0  0  0  0  0
   -4.6967   -1.4201   -0.7589 C   0  0  0  0  0  0  0  0  0  0  0  0
   -5.4900   -0.8524   -1.7127 N   0  0  0  0  0  0  0  0  0  0  0  0
   -4.9718    0.3820   -1.9996 C   0  0  0  0  0  0  0  0  0  0  0  0
   -3.8951    0.6418   -1.2872 N   0  0  0  0  0  0  0  0  0  0  0  0
   -3.7158   -0.4802   -0.5000 C   0  0  0  0  0  0  0  0  0  0  0  0
    0.6854    0.4878    0.7711 C   0  0  0  0  0  0  0  0  0  0  0  0
    0.6021    1.7360    1.2673 C   0  0  0  0  0  0  0  0  0  0  0  0
    1.5252    2.7853    0.8678 C   0  0  0  0  0  0  0  0  0  0  0  0
    1.3898    4.0595    1.4403 C   0  0  0  0  0  0  0  0  0  0  0  0
    2.2319    5.0962    1.0562 C   0  0  0  0  0  0  0  0  0  0  0  0
    3.2079    4.8627    0.0935 C   0  0  0  0  0  0  0  0  0  0  0  0
    3.3532    3.5929   -0.4877 C   0  0  0  0  0  0  0  0  0  0  0  0
    4.6070    3.4754   -1.6749 Cl  0  0  0  0  0  0  0  0  0  0  0  0
    2.5086    2.5354   -0.0989 C   0  0  0  0  0  0  0  0  0  0  0  0
    2.6099    1.1444   -0.6409 C   0  0  0  0  0  0  0  0  0  0  0  0
    3.4943    0.8862   -1.4554 O   0  0  0  0  0  0  0  0  0  0  0  0
    1.6994    0.1625   -0.1502 N   0  0  0  0  0  0  0  0  0  0  0  0
    1.9141   -1.1805   -0.6194 C   0  0  0  0  0  0  0  0  0  0  0  0
    2.1149   -2.2311    0.2877 C   0  0  0  0  0  0  0  0  0  0  0  0
    2.3166   -3.5358   -0.1691 C   0  0  0  0  0  0  0  0  0  0  0  0
    2.3301   -3.8016   -1.5367 C   0  0  0  0  0  0  0  0  0  0  0  0
    2.1531   -2.7629   -2.4484 C   0  0  0  0  0  0  0  0  0  0  0  0
    1.9519   -1.4580   -1.9924 C   0  0  0  0  0  0  0  0  0  0  0  0
   -0.6644   -0.0315    3.2496 H   0  0  0  0  0  0  0  0  0  0  0  0
   -1.0380   -1.7069    2.8661 H   0  0  0  0  0  0  0  0  0  0  0  0
    0.6429   -1.1815    2.9273 H   0  0  0  0  0  0  0  0  0  0  0  0
   -0.3088   -1.4475    0.5415 H   0  0  0  0  0  0  0  0  0  0  0  0
   -1.6674    0.7688    0.0487 H   0  0  0  0  0  0  0  0  0  0  0  0
   -3.8983   -3.8125    1.2079 H   0  0  0  0  0  0  0  0  0  0  0  0
   -6.3052   -1.2812   -2.1239 H   0  0  0  0  0  0  0  0  0  0  0  0
   -5.4201    1.0402   -2.7326 H   0  0  0  0  0  0  0  0  0  0  0  0
   -0.2000    2.0039    1.9511 H   0  0  0  0  0  0  0  0  0  0  0  0
    0.6226    4.2545    2.1877 H   0  0  0  0  0  0  0  0  0  0  0  0
    2.1259    6.0831    1.5000 H   0  0  0  0  0  0  0  0  0  0  0  0
    3.8613    5.6799   -0.2068 H   0  0  0  0  0  0  0  0  0  0  0  0
    2.1517   -2.0394    1.3554 H   0  0  0  0  0  0  0  0  0  0  0  0
    2.4766   -4.3417    0.5424 H   0  0  0  0  0  0  0  0  0  0  0  0
    2.4933   -4.8153   -1.8933 H   0  0  0  0  0  0  0  0  0  0  0  0
    2.1793   -2.9635   -3.5162 H   0  0  0  0  0  0  0  0  0  0  0  0
    1.8198   -0.6594   -2.7186 H   0  0  0  0  0  0  0  0  0  0  0  0
  1  2  1  0
  2  3  1  0
  3  4  1  0
  4  5  2  0
  5  6  1  0
  6  7  2  0
  7  8  1  0
  8  9  1  0
  9 10  1  0
 10 11  2  0
 11 12  1  0
  2 13  1  0
 13 14  2  0
 14 15  1  0
 15 16  2  0
 16 17  1  0
 17 18  2  0
 18 19  1  0
 19 20  1  0
 19 21  2  0
 21 22  1  0
 22 23  2  0
 22 24  1  0
 24 25  1  0
 25 26  2  0
 26 27  1  0
 27 28  2  0
 28 29  1  0
 29 30  2  0
 12  4  1  0
 24 13  1  0
 30 25  1  0
 12  8  2  0
 21 15  1  0
  1 31  1  0
  1 32  1  0
  1 33  1  0
  2 34  1  6
  3 35  1  0
  6 36  1  0
  9 37  1  0
 10 38  1  0
 14 39  1  0
 16 40  1  0
 17 41  1  0
 18 42  1  0
 26 43  1  0
 27 44  1  0
 28 45  1  0
 29 46  1  0
 30 47  1  0
M  END
$$$$
