
     RDKit          3D

 28 29  0  0  0  0  0  0  0  0999 V2000
    2.6439    1.3898    0.4408 O   0  0  0  0  0  0  0  0  0  0  0  0
    2.6767    0.9405   -0.6924 C   0  0  0  0  0  0  0  0  0  0  0  0
    3.0315    1.7182   -1.7330 O   0  0  0  0  0  0  0  0  0  0  0  0
    2.3431   -0.4608   -1.1070 C   0  0  0  0  0  0  0  0  0  0  0  0
    0.8916   -0.5882   -1.5541 C   0  0  0  0  0  0  0  0  0  0  0  0
   -0.0902   -0.5980   -0.4094 C   0  0  0  0  0  0  0  0  0  0  0  0
   -0.3699   -1.7027    0.4008 C   0  0  0  0  0  0  0  0  0  0  0  0
    0.1108   -3.0604    0.4362 C   0  0  0  0  0  0  0  0  0  0  0  0
   -0.2539   -3.9328    1.2099 O   0  0  0  0  0  0  0  0  0  0  0  0
    1.0474   -3.3182   -0.4938 O   0  0  0  0  0  0  0  0  0  0  0  0
   -1.3046   -1.2981    1.3216 N   0  0  0  0  0  0  0  0  0  0  0  0
   -1.6483    0.0148    1.1465 C   0  0  0  0  0  0  0  0  0  0  0  0
   -2.5598    0.7899    1.8805 C   0  0  0  0  0  0  0  0  0  0  0  0
   -2.7396    2.1207    1.5041 C   0  0  0  0  0  0  0  0  0  0  0  0
   -3.8511    3.1013    2.3811 Cl  0  0  0  0  0  0  0  0  0  0  0  0
   -2.0430    2.6632    0.4370 C   0  0  0  0  0  0  0  0  0  0  0  0
   -1.1422    1.8652   -0.2744 C   0  0  0  0  0  0  0  0  0  0  0  0
   -0.3007    2.5471   -1.5966 Cl  0  0  0  0  0  0  0  0  0  0  0  0
   -0.9118    0.5050    0.0611 C   0  0  0  0  0  0  0  0  0  0  0  0
    3.1696    2.6018   -1.3314 H   0  0  0  0  0  0  0  0  0  0  0  0
    3.0156   -0.7416   -1.9265 H   0  0  0  0  0  0  0  0  0  0  0  0
    2.5851   -1.1270   -0.2716 H   0  0  0  0  0  0  0  0  0  0  0  0
    0.7755   -1.5212   -2.1191 H   0  0  0  0  0  0  0  0  0  0  0  0
    0.6444    0.1891   -2.2798 H   0  0  0  0  0  0  0  0  0  0  0  0
    1.2636   -4.2603   -0.3398 H   0  0  0  0  0  0  0  0  0  0  0  0
   -1.6814   -1.9058    2.0385 H   0  0  0  0  0  0  0  0  0  0  0  0
   -3.1081    0.3678    2.7177 H   0  0  0  0  0  0  0  0  0  0  0  0
   -2.1942    3.7007    0.1532 H   0  0  0  0  0  0  0  0  0  0  0  0
  1  2  2  0
  2  3  1  0
  2  4  1  0
  4  5  1  0
  5  6  1  0
  6  7  2  0
  7  8  1  0
  8  9  2  0
  8 10  1  0
  7 11  1  0
 11 12  1  0
 12 13  2  0
 13 14  1  0
 14 15  1  0
 14 16  2  0
 16 17  1  0
 17 18  1  0
 17 19  2  0
 19  6  1  0
 19 12  1  0
  3 20  1  0
  4 21  1  0
  4 22  1  0
  5 23  1  0
  5 24  1  0
 10 25  1  0
 11 26  1  0
 13 27  1  0
 16 28  1  0
M  END
$$$$
