
     RDKit          3D

 46 49  0  0  0  0  0  0  0  0999 V2000
   -4.8874    0.5687    0.2626 C   0  0  0  0  0  0  0  0  0  0  0  0
   -3.7918    0.3592   -0.8003 C   0  0  0  0  0  0  0  0  0  0  0  0
   -3.8483    1.5655   -1.7697 C   0  0  0  0  0  0  0  0  0  0  0  0
   -4.0935   -0.9070   -1.6255 C   0  0  0  0  0  0  0  0  0  0  0  0
   -2.4720    0.2416   -0.1524 N   0  0  0  0  0  0  0  0  0  0  0  0
   -1.5012    1.1512   -0.4105 N   0  0  0  0  0  0  0  0  0  0  0  0
   -0.4516    0.7432    0.3233 C   0  0  0  0  0  0  0  0  0  0  0  0
    0.8078    1.5579    0.3155 C   0  0  0  0  0  0  0  0  0  0  0  0
    1.8505    0.8277   -0.5186 C   0  0  0  0  0  0  0  0  0  0  0  0
    1.5102    0.4405   -1.8332 C   0  0  0  0  0  0  0  0  0  0  0  0
    2.4159   -0.2249   -2.6501 C   0  0  0  0  0  0  0  0  0  0  0  0
    3.6936   -0.4998   -2.1804 C   0  0  0  0  0  0  0  0  0  0  0  0
    4.0910   -0.0953   -0.8997 C   0  0  0  0  0  0  0  0  0  0  0  0
    5.3997   -0.3693   -0.4686 C   0  0  0  0  0  0  0  0  0  0  0  0
    5.8422    0.0315    0.7888 C   0  0  0  0  0  0  0  0  0  0  0  0
    4.9803    0.7179    1.6297 C   0  0  0  0  0  0  0  0  0  0  0  0
    3.6742    0.9963    1.2157 C   0  0  0  0  0  0  0  0  0  0  0  0
    3.1815    0.5917   -0.0505 C   0  0  0  0  0  0  0  0  0  0  0  0
   -0.7547   -0.4279    1.0692 C   0  0  0  0  0  0  0  0  0  0  0  0
   -0.1289   -1.2821    1.9847 C   0  0  0  0  0  0  0  0  0  0  0  0
    1.1905   -1.1649    2.4055 N   0  0  0  0  0  0  0  0  0  0  0  0
   -0.8323   -2.3098    2.5017 N   0  0  0  0  0  0  0  0  0  0  0  0
   -2.1074   -2.4772    2.1057 C   0  0  0  0  0  0  0  0  0  0  0  0
   -2.8040   -1.7371    1.2305 N   0  0  0  0  0  0  0  0  0  0  0  0
   -2.0708   -0.7179    0.7472 C   0  0  0  0  0  0  0  0  0  0  0  0
   -4.9854   -0.2932    0.9304 H   0  0  0  0  0  0  0  0  0  0  0  0
   -5.8664    0.7255   -0.2050 H   0  0  0  0  0  0  0  0  0  0  0  0
   -4.6695    1.4438    0.8859 H   0  0  0  0  0  0  0  0  0  0  0  0
   -3.6670    2.5113   -1.2454 H   0  0  0  0  0  0  0  0  0  0  0  0
   -4.8312    1.6417   -2.2494 H   0  0  0  0  0  0  0  0  0  0  0  0
   -3.1012    1.4748   -2.5670 H   0  0  0  0  0  0  0  0  0  0  0  0
   -5.0381   -0.8063   -2.1723 H   0  0  0  0  0  0  0  0  0  0  0  0
   -3.3006   -1.0978   -2.3582 H   0  0  0  0  0  0  0  0  0  0  0  0
   -4.1812   -1.7992   -0.9973 H   0  0  0  0  0  0  0  0  0  0  0  0
    0.6387    2.5496   -0.1215 H   0  0  0  0  0  0  0  0  0  0  0  0
    1.1102    1.7161    1.3523 H   0  0  0  0  0  0  0  0  0  0  0  0
    0.5196    0.6589   -2.2319 H   0  0  0  0  0  0  0  0  0  0  0  0
    2.1257   -0.5248   -3.6535 H   0  0  0  0  0  0  0  0  0  0  0  0
    4.3876   -1.0227   -2.8351 H   0  0  0  0  0  0  0  0  0  0  0  0
    6.0937   -0.8981   -1.1192 H   0  0  0  0  0  0  0  0  0  0  0  0
    6.8587   -0.1862    1.1049 H   0  0  0  0  0  0  0  0  0  0  0  0
    5.3187    1.0423    2.6106 H   0  0  0  0  0  0  0  0  0  0  0  0
    3.0504    1.5416    1.9183 H   0  0  0  0  0  0  0  0  0  0  0  0
    1.4533   -2.0138    2.8970 H   0  0  0  0  0  0  0  0  0  0  0  0
    1.8255   -0.9269    1.6525 H   0  0  0  0  0  0  0  0  0  0  0  0
   -2.6351   -3.3166    2.5484 H   0  0  0  0  0  0  0  0  0  0  0  0
  1  2  1  0
  2  3  1  0
  2  4  1  0
  2  5  1  0
  5  6  1  0
  6  7  2  0
  7  8  1  0
  8  9  1  0
  9 10  2  0
 10 11  1  0
 11 12  2  0
 12 13  1  0
 13 14  2  0
 14 15  1  0
 15 16  2  0
 16 17  1  0
 17 18  2  0
  7 19  1  0
 19 20  2  0
 20 21  1  0
 20 22  1  0
 22 23  2  0
 23 24  1  0
 24 25  2  0
 25  5  1  0
 18  9  1  0
 25 19  1  0
 18 13  1  0
  1 26  1  0
  1 27  1  0
  1 28  1  0
  3 29  1  0
  3 30  1  0
  3 31  1  0
  4 32  1  0
  4 33  1  0
  4 34  1  0
  8 35  1  0
  8 36  1  0
 10 37  1  0
 11 38  1  0
 12 39  1  0
 14 40  1  0
 15 41  1  0
 16 42  1  0
 17 43  1  0
 21 44  1  0
 21 45  1  0
 23 46  1  0
M  END
$$$$
