
     RDKit          3D

 45 47  0  0  0  0  0  0  0  0999 V2000
   -0.5798   -3.1103    0.8759 C   0  0  0  0  0  0  0  0  0  0  0  0
   -0.4375   -2.3793   -0.4481 C   0  0  0  0  0  0  0  0  0  0  0  0
   -0.5409   -0.8913   -0.2391 N   0  0  0  0  0  4  0  0  0  0  0  0
    0.5981   -0.1325   -0.1385 C   0  0  0  0  0  0  0  0  0  0  0  0
    1.8898   -0.8339   -0.2441 C   0  0  0  0  0  0  0  0  0  0  0  0
    2.5215   -0.9856   -1.4928 C   0  0  0  0  0  0  0  0  0  0  0  0
    3.7496   -1.6413   -1.5935 C   0  0  0  0  0  0  0  0  0  0  0  0
    4.3678   -2.1429   -0.4507 C   0  0  0  0  0  0  0  0  0  0  0  0
    3.7673   -1.9822    0.7957 C   0  0  0  0  0  0  0  0  0  0  0  0
    2.5397   -1.3261    0.9013 C   0  0  0  0  0  0  0  0  0  0  0  0
    0.5423    1.2691    0.0503 C   0  0  0  0  0  0  0  0  0  0  0  0
    1.7172    2.0676    0.1520 C   0  0  0  0  0  0  0  0  0  0  0  0
    1.6858    3.4451    0.3632 C   0  0  0  0  0  0  0  0  0  0  0  0
    2.8581    4.1957    0.3202 N   0  0  0  0  0  0  0  0  0  0  0  0
    0.4511    4.0657    0.3789 C   0  0  0  0  0  0  0  0  0  0  0  0
   -0.7205    3.3096    0.2873 C   0  0  0  0  0  0  0  0  0  0  0  0
   -0.7107    1.8982    0.1309 C   0  0  0  0  0  0  0  0  0  0  0  0
   -1.8880    1.1018    0.0352 C   0  0  0  0  0  0  0  0  0  0  0  0
   -3.1886    1.6527    0.1443 C   0  0  0  0  0  0  0  0  0  0  0  0
   -4.3436    0.8761    0.0470 C   0  0  0  0  0  0  0  0  0  0  0  0
   -4.2549   -0.4789   -0.2083 C   0  0  0  0  0  0  0  0  0  0  0  0
   -5.3943   -1.2791   -0.1756 N   0  0  0  0  0  0  0  0  0  0  0  0
   -2.9844   -1.0557   -0.2602 C   0  0  0  0  0  0  0  0  0  0  0  0
   -1.7847   -0.3022   -0.1609 C   0  0  0  0  0  0  0  0  0  0  0  0
    0.0000    0.0000    0.0000 Br  0  0  0  0  0 15  0  0  0  0  0  0
    0.1959   -2.8116    1.5853 H   0  0  0  0  0  0  0  0  0  0  0  0
   -1.5441   -2.9137    1.3524 H   0  0  0  0  0  0  0  0  0  0  0  0
   -0.4970   -4.1902    0.7187 H   0  0  0  0  0  0  0  0  0  0  0  0
    0.5036   -2.6432   -0.9306 H   0  0  0  0  0  0  0  0  0  0  0  0
   -1.1953   -2.6826   -1.1761 H   0  0  0  0  0  0  0  0  0  0  0  0
    2.0700   -0.5856   -2.4002 H   0  0  0  0  0  0  0  0  0  0  0  0
    4.2336   -1.7526   -2.5623 H   0  0  0  0  0  0  0  0  0  0  0  0
    5.3293   -2.6476   -0.5301 H   0  0  0  0  0  0  0  0  0  0  0  0
    4.2656   -2.3593    1.6872 H   0  0  0  0  0  0  0  0  0  0  0  0
    2.1056   -1.1937    1.8917 H   0  0  0  0  0  0  0  0  0  0  0  0
    2.7027    1.6107    0.0608 H   0  0  0  0  0  0  0  0  0  0  0  0
    2.7910    5.1212    0.7358 H   0  0  0  0  0  0  0  0  0  0  0  0
    3.7020    3.7116    0.6116 H   0  0  0  0  0  0  0  0  0  0  0  0
    0.3797    5.1482    0.4617 H   0  0  0  0  0  0  0  0  0  0  0  0
   -1.6493    3.8743    0.3229 H   0  0  0  0  0  0  0  0  0  0  0  0
   -3.3463    2.7132    0.3301 H   0  0  0  0  0  0  0  0  0  0  0  0
   -5.3145    1.3526    0.1740 H   0  0  0  0  0  0  0  0  0  0  0  0
   -5.3481   -2.1636   -0.6721 H   0  0  0  0  0  0  0  0  0  0  0  0
   -6.2694   -0.7934   -0.3646 H   0  0  0  0  0  0  0  0  0  0  0  0
   -2.9751   -2.1351   -0.3667 H   0  0  0  0  0  0  0  0  0  0  0  0
  1  2  1  0
  2  3  1  0
  3  4  2  0
  4  5  1  0
  5  6  2  0
  6  7  1  0
  7  8  2  0
  8  9  1  0
  9 10  2  0
  4 11  1  0
 11 12  2  0
 12 13  1  0
 13 14  1  0
 13 15  2  0
 15 16  1  0
 16 17  2  0
 17 18  1  0
 18 19  2  0
 19 20  1  0
 20 21  2  0
 21 22  1  0
 21 23  1  0
 23 24  2  0
 24  3  1  0
 10  5  1  0
 17 11  1  0
 24 18  1  0
  1 26  1  0
  1 27  1  0
  1 28  1  0
  2 29  1  0
  2 30  1  0
  6 31  1  0
  7 32  1  0
  8 33  1  0
  9 34  1  0
 10 35  1  0
 12 36  1  0
 14 37  1  0
 14 38  1  0
 15 39  1  0
 16 40  1  0
 19 41  1  0
 20 42  1  0
 22 43  1  0
 22 44  1  0
 23 45  1  0
M  CHG  2   3   1  25  -1
M  END
$$$$
