
     RDKit          3D

 34 35  0  0  0  0  0  0  0  0999 V2000
    2.6486    2.3024    1.0982 C   0  0  0  0  0  0  0  0  0  0  0  0
    3.2166    0.8877    1.1330 C   0  0  0  0  0  0  0  0  0  0  0  0
    2.3607   -0.1945    0.5264 C   0  0  0  0  0  0  0  0  0  0  0  0
    1.1589   -0.0415   -0.0473 C   0  0  0  0  0  0  0  0  0  0  0  0
    0.4395   -1.0943   -0.5825 N   0  0  0  0  0  0  0  0  0  0  0  0
   -0.8752   -0.8998   -1.1887 C   0  0  1  0  0  0  0  0  0  0  0  0
   -2.0204   -1.4621   -0.3504 C   0  0  0  0  0  0  0  0  0  0  0  0
   -3.1519   -0.5136   -0.6663 C   0  0  2  0  0  0  0  0  0  0  0  0
   -3.7710   -0.9086   -1.8926 O   0  0  0  0  0  0  0  0  0  0  0  0
   -2.4369    0.8232   -0.8193 C   0  0  1  0  0  0  0  0  0  0  0  0
   -2.2302    1.5291    0.5292 C   0  0  0  0  0  0  0  0  0  0  0  0
   -1.6457    2.8139    0.3251 O   0  0  0  0  0  0  0  0  0  0  0  0
   -1.1554    0.4969   -1.4077 O   0  0  0  0  0  0  0  0  0  0  0  0
    0.9374   -2.3891   -0.5757 C   0  0  0  0  0  0  0  0  0  0  0  0
    0.3372   -3.3591   -1.0335 O   0  0  0  0  0  0  0  0  0  0  0  0
    2.1690   -2.5485   -0.0046 N   0  0  0  0  0  0  0  0  0  0  0  0
    2.9219   -1.5700    0.5738 C   0  0  0  0  0  0  0  0  0  0  0  0
    3.9997   -1.8144    1.1059 O   0  0  0  0  0  0  0  0  0  0  0  0
    2.4825    2.6399    0.0698 H   0  0  0  0  0  0  0  0  0  0  0  0
    1.7013    2.3652    1.6440 H   0  0  0  0  0  0  0  0  0  0  0  0
    3.3508    2.9990    1.5680 H   0  0  0  0  0  0  0  0  0  0  0  0
    3.4155    0.6307    2.1811 H   0  0  0  0  0  0  0  0  0  0  0  0
    4.1850    0.8989    0.6173 H   0  0  0  0  0  0  0  0  0  0  0  0
    0.7024    0.9410   -0.1201 H   0  0  0  0  0  0  0  0  0  0  0  0
   -0.8677   -1.3759   -2.1775 H   0  0  0  0  0  0  0  0  0  0  0  0
   -1.7765   -1.4182    0.7178 H   0  0  0  0  0  0  0  0  0  0  0  0
   -2.2371   -2.5037   -0.6071 H   0  0  0  0  0  0  0  0  0  0  0  0
   -3.9294   -0.5084    0.1025 H   0  0  0  0  0  0  0  0  0  0  0  0
   -3.2170   -0.6064   -2.6359 H   0  0  0  0  0  0  0  0  0  0  0  0
   -2.9477    1.4929   -1.5196 H   0  0  0  0  0  0  0  0  0  0  0  0
   -1.5587    0.9645    1.1826 H   0  0  0  0  0  0  0  0  0  0  0  0
   -3.1894    1.6731    1.0364 H   0  0  0  0  0  0  0  0  0  0  0  0
   -1.5560    3.2349    1.1972 H   0  0  0  0  0  0  0  0  0  0  0  0
    2.5393   -3.4853    0.0205 H   0  0  0  0  0  0  0  0  0  0  0  0
  1  2  1  0
  2  3  1  0
  3  4  2  0
  4  5  1  0
  5  6  1  0
  6  7  1  0
  7  8  1  0
  8  9  1  0
  8 10  1  0
 10 11  1  0
 11 12  1  0
 10 13  1  0
  5 14  1  0
 14 15  2  0
 14 16  1  0
 16 17  1  0
 17 18  2  0
 17  3  1  0
 13  6  1  0
  1 19  1  0
  1 20  1  0
  1 21  1  0
  2 22  1  0
  2 23  1  0
  4 24  1  0
  6 25  1  6
  7 26  1  0
  7 27  1  0
  8 28  1  1
  9 29  1  0
 10 30  1  6
 11 31  1  0
 11 32  1  0
 12 33  1  0
 16 34  1  0
M  END
$$$$
