
     RDKit          3D

 26 28  0  0  0  0  0  0  0  0999 V2000
    0.8148    1.1059   -1.2504 O   0  0  0  0  0  0  0  0  0  0  0  0
    1.4211    0.3709   -0.4736 C   0  0  0  0  0  0  0  0  0  0  0  0
    2.8739    0.3526   -0.3255 C   0  0  0  0  0  0  0  0  0  0  0  0
    3.6860   -0.1576    0.6750 C   0  0  0  0  0  0  0  0  0  0  0  0
    5.0746    0.0526    0.4232 C   0  0  0  0  0  0  0  0  0  0  0  0
    5.2878    0.7270   -0.7556 C   0  0  0  0  0  0  0  0  0  0  0  0
    3.8246    1.1068   -1.5481 S   0  0  0  0  0  0  0  0  0  0  0  0
    0.6499   -0.5621    0.3589 C   0  0  0  0  0  0  0  0  0  0  0  0
    1.0900   -1.7811    0.7061 N   0  0  0  0  0  0  0  0  0  0  0  0
    0.0618   -2.3833    1.4225 O   0  0  0  0  0  0  0  0  0  0  0  0
   -1.0322   -1.4606    1.4750 N   0  0  0  0  0  4  0  0  0  0  0  0
   -2.0456   -1.8325    2.1032 O   0  0  0  0  0  1  0  0  0  0  0  0
   -0.6789   -0.3706    0.8088 C   0  0  0  0  0  0  0  0  0  0  0  0
   -1.5089    0.7898    0.7306 C   0  0  0  0  0  0  0  0  0  0  0  0
   -1.0869    1.8461    1.1893 O   0  0  0  0  0  0  0  0  0  0  0  0
   -2.8037    0.6122    0.0849 C   0  0  0  0  0  0  0  0  0  0  0  0
   -3.2956   -0.4265   -0.6899 C   0  0  0  0  0  0  0  0  0  0  0  0
   -4.6315   -0.1956   -1.1354 C   0  0  0  0  0  0  0  0  0  0  0  0
   -5.1187    1.0138   -0.6986 C   0  0  0  0  0  0  0  0  0  0  0  0
   -3.9723    1.8648    0.2369 S   0  0  0  0  0  0  0  0  0  0  0  0
    3.3193   -0.6619    1.5615 H   0  0  0  0  0  0  0  0  0  0  0  0
    5.8748   -0.2721    1.0778 H   0  0  0  0  0  0  0  0  0  0  0  0
    6.2340    1.0213   -1.1895 H   0  0  0  0  0  0  0  0  0  0  0  0
   -2.7403   -1.3217   -0.9433 H   0  0  0  0  0  0  0  0  0  0  0  0
   -5.2044   -0.8817   -1.7480 H   0  0  0  0  0  0  0  0  0  0  0  0
   -6.0936    1.4433   -0.8869 H   0  0  0  0  0  0  0  0  0  0  0  0
  1  2  2  0
  2  3  1  0
  3  4  2  0
  4  5  1  0
  5  6  2  0
  6  7  1  0
  2  8  1  0
  8  9  2  0
  9 10  1  0
 10 11  1  0
 11 12  1  0
 11 13  2  0
 13 14  1  0
 14 15  2  0
 14 16  1  0
 16 17  2  0
 17 18  1  0
 18 19  2  0
 19 20  1  0
  7  3  1  0
 13  8  1  0
 20 16  1  0
  4 21  1  0
  5 22  1  0
  6 23  1  0
 17 24  1  0
 18 25  1  0
 19 26  1  0
M  CHG  2  11   1  12  -1
M  END
$$$$
