
     RDKit          3D

 59 63  0  0  0  0  0  0  0  0999 V2000
   -8.0501    2.4396   -1.7639 C   0  0  0  0  0  0  0  0  0  0  0  0
   -6.7525    1.8387   -2.0591 N   0  0  0  0  0  0  0  0  0  0  0  0
   -6.7955    0.3639   -1.9676 C   0  0  0  0  0  0  0  0  0  0  0  0
   -6.2580   -0.2465   -0.6509 C   0  0  0  0  0  0  0  0  0  0  0  0
   -4.8817    0.2006   -0.3788 N   0  0  0  0  0  0  0  0  0  0  0  0
   -4.0060   -0.5632    0.3756 C   0  0  0  0  0  0  0  0  0  0  0  0
   -4.4621   -1.5409    1.2695 C   0  0  0  0  0  0  0  0  0  0  0  0
   -3.5792   -2.3074    2.0339 C   0  0  0  0  0  0  0  0  0  0  0  0
   -2.2041   -2.1157    1.9213 C   0  0  0  0  0  0  0  0  0  0  0  0
   -1.6913   -1.1603    1.0458 C   0  0  0  0  0  0  0  0  0  0  0  0
   -0.3140   -0.9162    0.8778 N   0  0  0  0  0  0  0  0  0  0  0  0
    0.7822   -1.4524    1.4418 C   0  0  0  0  0  0  0  0  0  0  0  0
    1.9772   -0.9518    1.0049 N   0  0  0  0  0  0  0  0  0  0  0  0
    2.8696   -1.6261    1.6979 C   0  0  0  0  0  0  0  0  0  0  0  0
    4.3069   -1.5877    1.7245 C   0  0  0  0  0  0  0  0  0  0  0  0
    5.1210   -0.6964    0.8650 C   0  0  0  0  0  0  0  0  0  0  0  0
    6.0975    0.1507    1.4152 C   0  0  0  0  0  0  0  0  0  0  0  0
    6.8535    0.9933    0.5963 C   0  0  0  0  0  0  0  0  0  0  0  0
    6.6228    1.0002   -0.7806 C   0  0  0  0  0  0  0  0  0  0  0  0
    7.5843    2.0640   -1.8298 S   0  0  0  0  0  6  0  0  0  0  0  0
    6.5712    3.5123   -1.9775 C   0  0  0  0  0  0  0  0  0  0  0  0
    8.7858    2.4271   -1.1022 O   0  0  0  0  0  0  0  0  0  0  0  0
    7.6671    1.4322   -3.1327 O   0  0  0  0  0  0  0  0  0  0  0  0
    5.6635    0.1600   -1.3485 C   0  0  0  0  0  0  0  0  0  0  0  0
    4.9105   -0.6782   -0.5229 C   0  0  0  0  0  0  0  0  0  0  0  0
    4.9493   -2.4417    2.5590 C   0  0  0  0  0  0  0  0  0  0  0  0
    4.2394   -3.3657    3.4296 C   0  0  0  0  0  0  0  0  0  0  0  0
    2.8986   -3.3839    3.3974 C   0  0  0  0  0  0  0  0  0  0  0  0
    2.2170   -2.5244    2.5399 N   0  0  0  0  0  0  0  0  0  0  0  0
    0.8844   -2.4043    2.3692 N   0  0  0  0  0  0  0  0  0  0  0  0
   -2.6099   -0.3999    0.2899 C   0  0  0  0  0  0  0  0  0  0  0  0
   -4.4792    1.4818   -0.9819 C   0  0  0  0  0  0  0  0  0  0  0  0
   -5.7074    2.4012   -1.1764 C   0  0  0  0  0  0  0  0  0  0  0  0
   -8.4021    2.1916   -0.7561 H   0  0  0  0  0  0  0  0  0  0  0  0
   -8.8024    2.1006   -2.4846 H   0  0  0  0  0  0  0  0  0  0  0  0
   -7.9988    3.5304   -1.8545 H   0  0  0  0  0  0  0  0  0  0  0  0
   -7.8060   -0.0169   -2.1623 H   0  0  0  0  0  0  0  0  0  0  0  0
   -6.1765   -0.0191   -2.7901 H   0  0  0  0  0  0  0  0  0  0  0  0
   -6.9077    0.0396    0.1850 H   0  0  0  0  0  0  0  0  0  0  0  0
   -6.2984   -1.3373   -0.7581 H   0  0  0  0  0  0  0  0  0  0  0  0
   -5.5255   -1.7114    1.4092 H   0  0  0  0  0  0  0  0  0  0  0  0
   -3.9655   -3.0531    2.7233 H   0  0  0  0  0  0  0  0  0  0  0  0
   -1.5481   -2.7292    2.5305 H   0  0  0  0  0  0  0  0  0  0  0  0
   -0.1110   -0.1994    0.1943 H   0  0  0  0  0  0  0  0  0  0  0  0
    6.2726    0.1667    2.4893 H   0  0  0  0  0  0  0  0  0  0  0  0
    7.6130    1.6338    1.0399 H   0  0  0  0  0  0  0  0  0  0  0  0
    5.6202    3.2379   -2.4379 H   0  0  0  0  0  0  0  0  0  0  0  0
    6.4136    3.9400   -0.9855 H   0  0  0  0  0  0  0  0  0  0  0  0
    7.0966    4.2298   -2.6115 H   0  0  0  0  0  0  0  0  0  0  0  0
    5.4956    0.1460   -2.4234 H   0  0  0  0  0  0  0  0  0  0  0  0
    4.1562   -1.3231   -0.9718 H   0  0  0  0  0  0  0  0  0  0  0  0
    6.0357   -2.4824    2.6043 H   0  0  0  0  0  0  0  0  0  0  0  0
    4.8074   -4.0213    4.0814 H   0  0  0  0  0  0  0  0  0  0  0  0
    2.2882   -4.0379    4.0057 H   0  0  0  0  0  0  0  0  0  0  0  0
   -2.2094    0.3290   -0.4088 H   0  0  0  0  0  0  0  0  0  0  0  0
   -3.7743    2.0137   -0.3314 H   0  0  0  0  0  0  0  0  0  0  0  0
   -3.9862    1.2998   -1.9445 H   0  0  0  0  0  0  0  0  0  0  0  0
   -5.3753    3.3587   -1.5943 H   0  0  0  0  0  0  0  0  0  0  0  0
   -6.1226    2.6107   -0.1805 H   0  0  0  0  0  0  0  0  0  0  0  0
  1  2  1  0
  2  3  1  0
  3  4  1  0
  4  5  1  0
  5  6  1  0
  6  7  2  0
  7  8  1  0
  8  9  2  0
  9 10  1  0
 10 11  1  0
 11 12  1  0
 12 13  1  0
 13 14  2  0
 14 15  1  0
 15 16  1  0
 16 17  2  0
 17 18  1  0
 18 19  2  0
 19 20  1  0
 20 21  1  0
 20 22  2  0
 20 23  2  0
 19 24  1  0
 24 25  2  0
 15 26  2  0
 26 27  1  0
 27 28  2  0
 28 29  1  0
 29 30  1  0
 10 31  2  0
  5 32  1  0
 32 33  1  0
 33  2  1  0
 31  6  1  0
 30 12  2  0
 29 14  1  0
 25 16  1  0
  1 34  1  0
  1 35  1  0
  1 36  1  0
  3 37  1  0
  3 38  1  0
  4 39  1  0
  4 40  1  0
  7 41  1  0
  8 42  1  0
  9 43  1  0
 11 44  1  0
 17 45  1  0
 18 46  1  0
 21 47  1  0
 21 48  1  0
 21 49  1  0
 24 50  1  0
 25 51  1  0
 26 52  1  0
 27 53  1  0
 28 54  1  0
 31 55  1  0
 32 56  1  0
 32 57  1  0
 33 58  1  0
 33 59  1  0
M  END
$$$$
