
     RDKit          3D

 51 54  0  0  0  0  0  0  0  0999 V2000
    3.7575   -3.7888    1.8514 C   0  0  0  0  0  0  0  0  0  0  0  0
    3.6189   -2.4487    1.3167 N   0  0  0  0  0  0  0  0  0  0  0  0
    2.3534   -2.0317    0.9701 C   0  0  0  0  0  0  0  0  0  0  0  0
    1.3662   -2.7513    0.9103 O   0  0  0  0  0  0  0  0  0  0  0  0
    2.2667   -0.5856    0.5769 C   0  0  0  0  0  0  0  0  0  0  0  0
    1.0054    0.1405    0.6433 C   0  0  0  0  0  0  0  0  0  0  0  0
    0.8117    1.3164    0.0156 N   0  0  0  0  0  0  0  0  0  0  0  0
   -0.4937    1.6640    0.3517 O   0  0  0  0  0  0  0  0  0  0  0  0
   -0.9654    0.6784    1.1708 C   0  0  0  0  0  0  0  0  0  0  0  0
   -2.3153    0.7727    1.7026 C   0  0  0  0  0  0  0  0  0  0  0  0
   -2.8071   -0.0574    2.4665 O   0  0  0  0  0  0  0  0  0  0  0  0
   -3.0266    1.8947    1.2926 N   0  0  0  0  0  0  0  0  0  0  0  0
   -4.4682    1.9806    1.4605 C   0  0  0  0  0  0  0  0  0  0  0  0
   -5.2227    1.7293    0.1352 C   0  0  0  0  0  0  0  0  0  0  0  0
   -4.7407    0.5531   -0.6164 N   0  0  0  0  0  0  0  0  0  0  0  0
   -5.3506    0.4796   -1.9536 C   0  0  0  0  0  0  0  0  0  0  0  0
   -6.6929   -0.2086   -1.7654 C   0  0  0  0  0  0  0  0  0  0  0  0
   -6.5395   -1.0263   -0.4915 C   0  0  0  0  0  0  0  0  0  0  0  0
   -5.1381   -0.7167    0.0174 C   0  0  0  0  0  0  0  0  0  0  0  0
   -0.0791   -0.2708    1.3889 N   0  0  0  0  0  0  0  0  0  0  0  0
    3.3243    0.0555    0.1827 N   0  0  0  0  0  0  0  0  0  0  0  0
    4.5513   -0.5817    0.1805 N   0  0  0  0  0  0  0  0  0  0  0  0
    5.5948    0.2134   -0.4308 C   0  0  0  0  0  0  0  0  0  0  0  0
    5.2907    1.4848   -0.9630 C   0  0  0  0  0  0  0  0  0  0  0  0
    6.2650    2.2889   -1.5667 C   0  0  0  0  0  0  0  0  0  0  0  0
    7.5759    1.8413   -1.6570 C   0  0  0  0  0  0  0  0  0  0  0  0
    7.9064    0.5924   -1.1452 C   0  0  0  0  0  0  0  0  0  0  0  0
    6.9276   -0.2106   -0.5413 C   0  0  0  0  0  0  0  0  0  0  0  0
    4.7584   -1.8428    0.7865 C   0  0  0  0  0  0  0  0  0  0  0  0
    5.8376   -2.4349    0.8472 O   0  0  0  0  0  0  0  0  0  0  0  0
    3.8668   -4.4910    1.0184 H   0  0  0  0  0  0  0  0  0  0  0  0
    2.8766   -4.0651    2.4388 H   0  0  0  0  0  0  0  0  0  0  0  0
    4.6441   -3.8527    2.4897 H   0  0  0  0  0  0  0  0  0  0  0  0
   -2.6191    2.4574    0.5562 H   0  0  0  0  0  0  0  0  0  0  0  0
   -4.8039    1.2826    2.2335 H   0  0  0  0  0  0  0  0  0  0  0  0
   -4.6861    2.9952    1.8107 H   0  0  0  0  0  0  0  0  0  0  0  0
   -6.3006    1.6874    0.3341 H   0  0  0  0  0  0  0  0  0  0  0  0
   -5.0533    2.6168   -0.4893 H   0  0  0  0  0  0  0  0  0  0  0  0
   -4.7086   -0.1383   -2.5942 H   0  0  0  0  0  0  0  0  0  0  0  0
   -5.4433    1.4529   -2.4477 H   0  0  0  0  0  0  0  0  0  0  0  0
   -6.9479   -0.8378   -2.6240 H   0  0  0  0  0  0  0  0  0  0  0  0
   -7.4936    0.5293   -1.6399 H   0  0  0  0  0  0  0  0  0  0  0  0
   -7.2973   -0.7227    0.2398 H   0  0  0  0  0  0  0  0  0  0  0  0
   -6.6661   -2.0970   -0.6819 H   0  0  0  0  0  0  0  0  0  0  0  0
   -5.0932   -0.7105    1.1101 H   0  0  0  0  0  0  0  0  0  0  0  0
   -4.4469   -1.4997   -0.3191 H   0  0  0  0  0  0  0  0  0  0  0  0
    4.2783    1.8810   -0.9181 H   0  0  0  0  0  0  0  0  0  0  0  0
    5.9914    3.2628   -1.9639 H   0  0  0  0  0  0  0  0  0  0  0  0
    8.3363    2.4608   -2.1244 H   0  0  0  0  0  0  0  0  0  0  0  0
    8.9300    0.2314   -1.2126 H   0  0  0  0  0  0  0  0  0  0  0  0
    7.2643   -1.1723   -0.1718 H   0  0  0  0  0  0  0  0  0  0  0  0
  1  2  1  0
  2  3  1  0
  3  4  2  0
  3  5  1  0
  5  6  1  0
  6  7  2  0
  7  8  1  0
  8  9  1  0
  9 10  1  0
 10 11  2  0
 10 12  1  0
 12 13  1  0
 13 14  1  0
 14 15  1  0
 15 16  1  0
 16 17  1  0
 17 18  1  0
 18 19  1  0
  9 20  2  0
  5 21  2  0
 21 22  1  0
 22 23  1  0
 23 24  2  0
 24 25  1  0
 25 26  2  0
 26 27  1  0
 27 28  2  0
 22 29  1  0
 29 30  2  0
 29  2  1  0
 20  6  1  0
 28 23  1  0
 19 15  1  0
  1 31  1  0
  1 32  1  0
  1 33  1  0
 12 34  1  0
 13 35  1  0
 13 36  1  0
 14 37  1  0
 14 38  1  0
 16 39  1  0
 16 40  1  0
 17 41  1  0
 17 42  1  0
 18 43  1  0
 18 44  1  0
 19 45  1  0
 19 46  1  0
 24 47  1  0
 25 48  1  0
 26 49  1  0
 27 50  1  0
 28 51  1  0
M  END
$$$$
