
     RDKit          3D

 61 64  0  0  0  0  0  0  0  0999 V2000
    9.4794    2.5304   -1.0059 C   0  0  0  0  0  0  0  0  0  0  0  0
    7.9992    2.3333   -0.7934 C   0  0  0  0  0  0  0  0  0  0  0  0
    7.2157    3.2648   -0.9300 O   0  0  0  0  0  0  0  0  0  0  0  0
    7.6989    1.0330   -0.4285 N   0  0  0  0  0  0  0  0  0  0  0  0
    6.4278    0.4920   -0.1468 C   0  0  0  0  0  0  0  0  0  0  0  0
    5.2392    1.2176   -0.1935 C   0  0  0  0  0  0  0  0  0  0  0  0
    4.0111    0.6043    0.1011 C   0  0  0  0  0  0  0  0  0  0  0  0
    3.9528   -0.7440    0.4476 C   0  0  0  0  0  0  0  0  0  0  0  0
    2.7625   -1.4359    0.7536 N   0  0  0  0  0  0  0  0  0  0  0  0
    1.4775   -0.9186    0.8212 C   0  0  0  0  0  0  0  0  0  0  0  0
    1.1614    0.2531    0.6512 O   0  0  0  0  0  0  0  0  0  0  0  0
    0.4349   -2.0043    1.1352 C   0  0  0  0  0  0  0  0  0  0  0  0
    0.2832   -2.9612   -0.0532 C   0  0  0  0  0  0  0  0  0  0  0  0
   -0.2895   -2.2359   -1.2732 C   0  0  0  0  0  0  0  0  0  0  0  0
   -1.3045   -1.2403   -0.9286 N   0  0  0  0  0  0  0  0  0  0  0  0
   -1.6550   -0.3455   -1.9268 C   0  0  0  0  0  0  0  0  0  0  0  0
   -1.1963   -0.4739   -3.0696 O   0  0  0  0  0  0  0  0  0  0  0  0
   -2.6253    0.8011   -1.6881 C   0  0  0  0  0  0  0  0  0  0  0  0
   -2.3055    1.7117   -0.5194 C   0  0  0  0  0  0  0  0  0  0  0  0
   -3.5882    1.8116    0.2668 C   0  0  0  0  0  0  0  0  0  0  0  0
   -3.6724    2.4870    1.2820 O   0  0  0  0  0  0  0  0  0  0  0  0
   -4.5675    1.0248   -0.3485 N   0  0  0  0  0  0  0  0  0  0  0  0
   -5.9135    0.8494    0.0911 C   0  0  0  0  0  0  0  0  0  0  0  0
   -6.4210    1.5069    1.2190 C   0  0  0  0  0  0  0  0  0  0  0  0
   -7.7447    1.3213    1.6375 C   0  0  0  0  0  0  0  0  0  0  0  0
   -8.5900    0.4710    0.9349 C   0  0  0  0  0  0  0  0  0  0  0  0
   -8.1120   -0.1909   -0.1893 C   0  0  0  0  0  0  0  0  0  0  0  0
   -6.7888   -0.0020   -0.6061 C   0  0  0  0  0  0  0  0  0  0  0  0
   -4.0535    0.3370   -1.5116 C   0  0  0  0  0  0  0  0  0  0  0  0
   -1.9432   -1.4190    0.3706 C   0  0  0  0  0  0  0  0  0  0  0  0
   -0.9301   -1.4023    1.5172 C   0  0  0  0  0  0  0  0  0  0  0  0
    5.1450   -1.4738    0.4916 C   0  0  0  0  0  0  0  0  0  0  0  0
    6.3701   -0.8616    0.1989 C   0  0  0  0  0  0  0  0  0  0  0  0
    9.8828    1.7360   -1.6401 H   0  0  0  0  0  0  0  0  0  0  0  0
    9.6538    3.4887   -1.5036 H   0  0  0  0  0  0  0  0  0  0  0  0
    9.9909    2.5303   -0.0398 H   0  0  0  0  0  0  0  0  0  0  0  0
    8.4790    0.3929   -0.3548 H   0  0  0  0  0  0  0  0  0  0  0  0
    5.2220    2.2709   -0.4573 H   0  0  0  0  0  0  0  0  0  0  0  0
    3.1194    1.2209    0.0433 H   0  0  0  0  0  0  0  0  0  0  0  0
    2.8722   -2.4151    0.9817 H   0  0  0  0  0  0  0  0  0  0  0  0
    0.8120   -2.5579    2.0053 H   0  0  0  0  0  0  0  0  0  0  0  0
   -0.3923   -3.7776    0.2342 H   0  0  0  0  0  0  0  0  0  0  0  0
    1.2345   -3.4327   -0.3245 H   0  0  0  0  0  0  0  0  0  0  0  0
   -0.7419   -2.9612   -1.9600 H   0  0  0  0  0  0  0  0  0  0  0  0
    0.5199   -1.7349   -1.8186 H   0  0  0  0  0  0  0  0  0  0  0  0
   -2.5773    1.4171   -2.5980 H   0  0  0  0  0  0  0  0  0  0  0  0
   -1.5011    1.3442    0.1210 H   0  0  0  0  0  0  0  0  0  0  0  0
   -2.0388    2.7139   -0.8713 H   0  0  0  0  0  0  0  0  0  0  0  0
   -5.8127    2.1860    1.8078 H   0  0  0  0  0  0  0  0  0  0  0  0
   -8.1084    1.8489    2.5160 H   0  0  0  0  0  0  0  0  0  0  0  0
   -9.6170    0.3295    1.2603 H   0  0  0  0  0  0  0  0  0  0  0  0
   -8.7674   -0.8543   -0.7479 H   0  0  0  0  0  0  0  0  0  0  0  0
   -6.4720   -0.5408   -1.4936 H   0  0  0  0  0  0  0  0  0  0  0  0
   -4.6497    0.6216   -2.3870 H   0  0  0  0  0  0  0  0  0  0  0  0
   -4.1351   -0.7462   -1.3692 H   0  0  0  0  0  0  0  0  0  0  0  0
   -2.7199   -0.6856    0.5634 H   0  0  0  0  0  0  0  0  0  0  0  0
   -2.4523   -2.3910    0.3370 H   0  0  0  0  0  0  0  0  0  0  0  0
   -0.8182   -0.3791    1.8945 H   0  0  0  0  0  0  0  0  0  0  0  0
   -1.3578   -1.9751    2.3503 H   0  0  0  0  0  0  0  0  0  0  0  0
    5.1442   -2.5280    0.7550 H   0  0  0  0  0  0  0  0  0  0  0  0
    7.2739   -1.4629    0.2461 H   0  0  0  0  0  0  0  0  0  0  0  0
  1  2  1  0
  2  3  2  0
  2  4  1  0
  4  5  1  0
  5  6  2  0
  6  7  1  0
  7  8  2  0
  8  9  1  0
  9 10  1  0
 10 11  2  0
 10 12  1  0
 12 13  1  0
 13 14  1  0
 14 15  1  0
 15 16  1  0
 16 17  2  0
 16 18  1  0
 18 19  1  0
 19 20  1  0
 20 21  2  0
 20 22  1  0
 22 23  1  0
 23 24  2  0
 24 25  1  0
 25 26  2  0
 26 27  1  0
 27 28  2  0
 22 29  1  0
 15 30  1  0
 30 31  1  0
  8 32  1  0
 32 33  2  0
 33  5  1  0
 31 12  1  0
 29 18  1  0
 28 23  1  0
  1 34  1  0
  1 35  1  0
  1 36  1  0
  4 37  1  0
  6 38  1  0
  7 39  1  0
  9 40  1  0
 12 41  1  0
 13 42  1  0
 13 43  1  0
 14 44  1  0
 14 45  1  0
 18 46  1  0
 19 47  1  0
 19 48  1  0
 24 49  1  0
 25 50  1  0
 26 51  1  0
 27 52  1  0
 28 53  1  0
 29 54  1  0
 29 55  1  0
 30 56  1  0
 30 57  1  0
 31 58  1  0
 31 59  1  0
 32 60  1  0
 33 61  1  0
M  END
$$$$
