
     RDKit          3D

 34 35  0  0  0  0  0  0  0  0999 V2000
    5.5376   -2.3079   -0.2921 C   0  0  0  0  0  0  0  0  0  0  0  0
    4.5000   -3.1072   -1.0678 C   0  0  0  0  0  0  0  0  0  0  0  0
    3.2646   -2.2775   -1.4119 C   0  0  0  0  0  0  0  0  0  0  0  0
    2.6161   -1.8919   -0.2004 O   0  0  0  0  0  0  0  0  0  0  0  0
    1.4890   -1.1272   -0.3116 C   0  0  0  0  0  0  0  0  0  0  0  0
    0.8935   -0.7075   -1.4994 C   0  0  0  0  0  0  0  0  0  0  0  0
   -0.2670    0.0770   -1.4652 C   0  0  0  0  0  0  0  0  0  0  0  0
   -0.8520    0.4544   -0.2474 C   0  0  0  0  0  0  0  0  0  0  0  0
   -2.0622    1.2725   -0.2495 C   0  0  0  0  0  0  0  0  0  0  0  0
   -2.7367    1.7555   -1.2770 N   0  0  0  0  0  0  0  0  0  0  0  0
   -3.7708    2.4425   -0.6833 C   0  0  0  0  0  0  0  0  0  0  0  0
   -4.7553    3.1334   -1.4469 C   0  0  0  0  0  0  0  0  0  0  0  0
   -5.5758    3.6984   -2.0451 N   0  0  0  0  0  0  0  0  0  0  0  0
   -3.6967    2.3469    0.6899 C   0  0  0  0  0  0  0  0  0  0  0  0
   -4.4344    2.8201    1.7189 N   0  0  0  0  0  0  0  0  0  0  0  0
   -4.2527    2.2922    3.0551 C   0  0  0  0  0  0  0  0  0  0  0  0
   -2.5924    1.5928    0.9741 O   0  0  0  0  0  0  0  0  0  0  0  0
   -0.2451    0.0267    0.9403 C   0  0  0  0  0  0  0  0  0  0  0  0
    0.9136   -0.7566    0.9052 C   0  0  0  0  0  0  0  0  0  0  0  0
    5.8638   -1.4325   -0.8627 H   0  0  0  0  0  0  0  0  0  0  0  0
    5.1402   -1.9642    0.6680 H   0  0  0  0  0  0  0  0  0  0  0  0
    6.4168   -2.9277   -0.0897 H   0  0  0  0  0  0  0  0  0  0  0  0
    4.2043   -3.9720   -0.4624 H   0  0  0  0  0  0  0  0  0  0  0  0
    4.9522   -3.4848   -1.9915 H   0  0  0  0  0  0  0  0  0  0  0  0
    3.5669   -1.3910   -1.9826 H   0  0  0  0  0  0  0  0  0  0  0  0
    2.5876   -2.8936   -2.0157 H   0  0  0  0  0  0  0  0  0  0  0  0
    1.3009   -0.9703   -2.4699 H   0  0  0  0  0  0  0  0  0  0  0  0
   -0.7162    0.3947   -2.4055 H   0  0  0  0  0  0  0  0  0  0  0  0
   -5.3581    3.2069    1.5362 H   0  0  0  0  0  0  0  0  0  0  0  0
   -4.5383    1.2362    3.0995 H   0  0  0  0  0  0  0  0  0  0  0  0
   -3.2158    2.4002    3.3904 H   0  0  0  0  0  0  0  0  0  0  0  0
   -4.8867    2.8447    3.7556 H   0  0  0  0  0  0  0  0  0  0  0  0
   -0.6634    0.2971    1.9074 H   0  0  0  0  0  0  0  0  0  0  0  0
    1.3723   -1.0800    1.8369 H   0  0  0  0  0  0  0  0  0  0  0  0
  1  2  1  0
  2  3  1  0
  3  4  1  0
  4  5  1  0
  5  6  2  0
  6  7  1  0
  7  8  2  0
  8  9  1  0
  9 10  2  0
 10 11  1  0
 11 12  1  0
 12 13  3  0
 11 14  2  0
 14 15  1  0
 15 16  1  0
 14 17  1  0
  8 18  1  0
 18 19  2  0
 19  5  1  0
 17  9  1  0
  1 20  1  0
  1 21  1  0
  1 22  1  0
  2 23  1  0
  2 24  1  0
  3 25  1  0
  3 26  1  0
  6 27  1  0
  7 28  1  0
 15 29  1  0
 16 30  1  0
 16 31  1  0
 16 32  1  0
 18 33  1  0
 19 34  1  0
M  END
$$$$
