
     RDKit          3D

 43 43  0  0  0  0  0  0  0  0999 V2000
    6.6323    0.9085   -0.7345 C   0  0  0  0  0  0  0  0  0  0  0  0
    5.3425    0.1164   -0.7589 C   0  0  0  0  0  0  0  0  0  0  0  0
    4.8803   -0.0808    0.6607 C   0  0  0  0  0  0  0  0  0  0  0  0
    3.6069   -0.8563    0.7868 C   0  0  0  0  0  0  0  0  0  0  0  0
    2.4443   -0.1946    0.0810 C   0  0  0  0  0  0  0  0  0  0  0  0
    1.1829   -1.0096    0.2365 C   0  0  0  0  0  0  0  0  0  0  0  0
    0.0049   -0.3963   -0.4462 C   0  0  0  0  0  0  0  0  0  0  0  0
   -0.2946    0.9589    0.0962 C   0  0  0  0  0  0  0  0  0  0  0  0
   -1.4758    1.6215   -0.5575 C   0  0  0  0  0  0  0  0  0  0  0  0
   -2.7299    0.8598   -0.4081 C   0  0  0  0  0  0  0  0  0  0  0  0
   -3.0951   -0.0838   -1.3458 C   0  0  0  0  0  0  0  0  0  0  0  0
   -4.2778   -0.8141   -1.2211 C   0  0  0  0  0  0  0  0  0  0  0  0
   -5.1242   -0.6156   -0.1516 C   0  0  0  0  0  0  0  0  0  0  0  0
   -6.4596   -1.4342   -0.0027 B   0  0  0  0  0  0  0  0  0  0  0  0
   -6.6943   -2.0609    1.3039 O   0  0  0  0  0  0  0  0  0  0  0  0
   -7.6654   -0.9744   -0.7147 O   0  0  0  0  0  0  0  0  0  0  0  0
   -4.7619    0.3266    0.7868 C   0  0  0  0  0  0  0  0  0  0  0  0
   -3.5841    1.0497    0.6571 C   0  0  0  0  0  0  0  0  0  0  0  0
    7.2484    0.7124   -1.6389 H   0  0  0  0  0  0  0  0  0  0  0  0
    7.2820    0.6180    0.1304 H   0  0  0  0  0  0  0  0  0  0  0  0
    6.4670    1.9949   -0.6801 H   0  0  0  0  0  0  0  0  0  0  0  0
    5.5392   -0.8270   -1.2638 H   0  0  0  0  0  0  0  0  0  0  0  0
    4.5832    0.7135   -1.3329 H   0  0  0  0  0  0  0  0  0  0  0  0
    5.6715   -0.6461    1.1860 H   0  0  0  0  0  0  0  0  0  0  0  0
    4.7940    0.9297    1.1146 H   0  0  0  0  0  0  0  0  0  0  0  0
    3.7988   -1.8628    0.3143 H   0  0  0  0  0  0  0  0  0  0  0  0
    3.4030   -1.0313    1.8531 H   0  0  0  0  0  0  0  0  0  0  0  0
    2.3129    0.8110    0.5688 H   0  0  0  0  0  0  0  0  0  0  0  0
    2.7291   -0.0276   -0.9574 H   0  0  0  0  0  0  0  0  0  0  0  0
    0.9449   -1.0774    1.3213 H   0  0  0  0  0  0  0  0  0  0  0  0
    1.4043   -2.0268   -0.1022 H   0  0  0  0  0  0  0  0  0  0  0  0
   -0.8637   -1.0715   -0.2843 H   0  0  0  0  0  0  0  0  0  0  0  0
    0.1998   -0.4092   -1.5367 H   0  0  0  0  0  0  0  0  0  0  0  0
   -0.3654    0.8946    1.1917 H   0  0  0  0  0  0  0  0  0  0  0  0
    0.5840    1.6372   -0.1157 H   0  0  0  0  0  0  0  0  0  0  0  0
   -1.5602    2.6448   -0.1005 H   0  0  0  0  0  0  0  0  0  0  0  0
   -1.2457    1.7770   -1.6144 H   0  0  0  0  0  0  0  0  0  0  0  0
   -2.4436   -0.2555   -2.1946 H   0  0  0  0  0  0  0  0  0  0  0  0
   -4.5760   -1.5588   -1.9517 H   0  0  0  0  0  0  0  0  0  0  0  0
   -7.2933   -1.5275    1.8692 H   0  0  0  0  0  0  0  0  0  0  0  0
   -7.7948    0.0016   -0.5871 H   0  0  0  0  0  0  0  0  0  0  0  0
   -5.4395    0.4803    1.6360 H   0  0  0  0  0  0  0  0  0  0  0  0
   -3.3115    1.7857    1.3999 H   0  0  0  0  0  0  0  0  0  0  0  0
  1  2  1  0
  2  3  1  0
  3  4  1  0
  4  5  1  0
  5  6  1  0
  6  7  1  0
  7  8  1  0
  8  9  1  0
  9 10  1  0
 10 11  2  0
 11 12  1  0
 12 13  2  0
 13 14  1  0
 14 15  1  0
 14 16  1  0
 13 17  1  0
 17 18  2  0
 18 10  1  0
  1 19  1  0
  1 20  1  0
  1 21  1  0
  2 22  1  0
  2 23  1  0
  3 24  1  0
  3 25  1  0
  4 26  1  0
  4 27  1  0
  5 28  1  0
  5 29  1  0
  6 30  1  0
  6 31  1  0
  7 32  1  0
  7 33  1  0
  8 34  1  0
  8 35  1  0
  9 36  1  0
  9 37  1  0
 11 38  1  0
 12 39  1  0
 15 40  1  0
 16 41  1  0
 17 42  1  0
 18 43  1  0
M  END
$$$$
