
     RDKit          3D

 31 33  0  0  0  0  0  0  0  0999 V2000
   -5.7550   -1.1897   -0.0404 C   0  0  0  0  0  0  0  0  0  0  0  0
   -4.5467   -0.4094    0.3898 C   0  0  0  0  0  0  0  0  0  0  0  0
   -4.6680    0.6730    1.2740 C   0  0  0  0  0  0  0  0  0  0  0  0
   -3.5534    1.4116    1.6936 C   0  0  0  0  0  0  0  0  0  0  0  0
   -2.3144    1.0157    1.1896 C   0  0  0  0  0  0  0  0  0  0  0  0
   -1.0419    1.4912    1.3765 N   0  0  0  0  0  0  0  0  0  0  0  0
   -0.1977    0.7184    0.6365 C   0  0  0  0  0  0  0  0  0  0  0  0
    1.4911    1.0519    0.6380 S   0  0  0  0  0  0  0  0  0  0  0  0
    2.1023   -0.4035   -0.2713 C   0  0  0  0  0  0  0  0  0  0  0  0
    3.5931   -0.3303   -0.5044 C   0  0  0  0  0  0  0  0  0  0  0  0
    4.1087    0.4752   -1.5200 C   0  0  0  0  0  0  0  0  0  0  0  0
    5.4872    0.5276   -1.7061 C   0  0  0  0  0  0  0  0  0  0  0  0
    6.3146   -0.2195   -0.8781 C   0  0  0  0  0  0  0  0  0  0  0  0
    5.7261   -0.9923    0.1077 C   0  0  0  0  0  0  0  0  0  0  0  0
    4.3926   -1.0638    0.3123 N   0  0  0  0  0  0  0  0  0  0  0  0
   -0.8279   -0.2220   -0.0220 N   0  0  0  0  0  0  0  0  0  0  0  0
   -2.1512   -0.0532    0.3128 C   0  0  0  0  0  0  0  0  0  0  0  0
   -3.2792   -0.7802   -0.0953 C   0  0  0  0  0  0  0  0  0  0  0  0
   -6.6772   -0.7593    0.3629 H   0  0  0  0  0  0  0  0  0  0  0  0
   -5.8359   -1.1868   -1.1319 H   0  0  0  0  0  0  0  0  0  0  0  0
   -5.6811   -2.2226    0.3143 H   0  0  0  0  0  0  0  0  0  0  0  0
   -5.6497    0.9556    1.6517 H   0  0  0  0  0  0  0  0  0  0  0  0
   -3.6580    2.2471    2.3768 H   0  0  0  0  0  0  0  0  0  0  0  0
   -0.7631    2.2682    1.9554 H   0  0  0  0  0  0  0  0  0  0  0  0
    1.5933   -0.4865   -1.2383 H   0  0  0  0  0  0  0  0  0  0  0  0
    1.8687   -1.3061    0.3044 H   0  0  0  0  0  0  0  0  0  0  0  0
    3.4484    1.0549   -2.1572 H   0  0  0  0  0  0  0  0  0  0  0  0
    5.9115    1.1461   -2.4916 H   0  0  0  0  0  0  0  0  0  0  0  0
    7.3918   -0.1998   -0.9966 H   0  0  0  0  0  0  0  0  0  0  0  0
    6.3286   -1.5954    0.7801 H   0  0  0  0  0  0  0  0  0  0  0  0
   -3.1576   -1.6161   -0.7758 H   0  0  0  0  0  0  0  0  0  0  0  0
  1  2  1  0
  2  3  2  0
  3  4  1  0
  4  5  2  0
  5  6  1  0
  6  7  1  0
  7  8  1  0
  8  9  1  0
  9 10  1  0
 10 11  2  0
 11 12  1  0
 12 13  2  0
 13 14  1  0
 14 15  2  0
  7 16  2  0
 16 17  1  0
 17 18  2  0
 18  2  1  0
 17  5  1  0
 15 10  1  0
  1 19  1  0
  1 20  1  0
  1 21  1  0
  3 22  1  0
  4 23  1  0
  6 24  1  0
  9 25  1  0
  9 26  1  0
 11 27  1  0
 12 28  1  0
 13 29  1  0
 14 30  1  0
 18 31  1  0
M  END
$$$$
