
     RDKit          3D

 52 55  0  0  0  0  0  0  0  0999 V2000
   -1.7564    4.1736   -4.5365 C   0  0  0  0  0  0  0  0  0  0  0  0
   -1.9386    3.4539   -3.2612 C   0  0  0  0  0  0  0  0  0  0  0  0
   -3.1450    3.1894   -2.7495 N   0  0  0  0  0  0  0  0  0  0  0  0
   -2.8209    2.5371   -1.6213 N   0  0  0  0  0  0  0  0  0  0  0  0
   -1.4646    2.4269   -1.4756 C   0  0  0  0  0  0  0  0  0  0  0  0
   -0.8375    1.7766   -0.2841 C   0  0  2  0  0  0  0  0  0  0  0  0
    0.6929    1.9027   -0.3148 C   0  0  0  0  0  0  0  0  0  0  0  0
    1.1746    0.6376    0.3847 C   0  0  2  0  0  0  0  0  0  0  0  0
    2.5580    0.3288    0.0747 N   0  0  0  0  0  0  0  0  0  0  0  0
    3.1580   -0.7963    0.6070 C   0  0  0  0  0  0  0  0  0  0  0  0
    2.5457   -1.6353    1.2578 O   0  0  0  0  0  0  0  0  0  0  0  0
    4.6235   -0.9300    0.3838 C   0  0  0  0  0  0  0  0  0  0  0  0
    5.2503   -0.3916   -0.7482 C   0  0  0  0  0  0  0  0  0  0  0  0
    6.6291   -0.5376   -0.9166 C   0  0  0  0  0  0  0  0  0  0  0  0
    7.3818   -1.2238    0.0371 C   0  0  0  0  0  0  0  0  0  0  0  0
    6.7587   -1.7752    1.1565 C   0  0  0  0  0  0  0  0  0  0  0  0
    5.3808   -1.6339    1.3280 C   0  0  0  0  0  0  0  0  0  0  0  0
    0.1615   -0.4068   -0.1043 C   0  0  0  0  0  0  0  0  0  0  0  0
   -1.0904    0.3314   -0.2439 N   0  0  0  0  0  0  0  0  0  0  0  0
   -2.3518   -0.1854   -0.0271 C   0  0  0  0  0  0  0  0  0  0  0  0
   -3.3333    0.5521    0.0790 O   0  0  0  0  0  0  0  0  0  0  0  0
   -2.4754   -1.6987    0.0096 C   0  0  0  0  0  0  0  0  0  0  0  0
   -3.9187   -2.1620    0.1887 C   0  0  0  0  0  0  0  0  0  0  0  0
   -4.3365   -2.1616    1.5783 N   0  0  0  0  0  0  0  0  0  0  0  0
   -4.1662   -3.1871    2.4668 C   0  0  0  0  0  0  0  0  0  0  0  0
   -4.7178   -2.7324    3.6415 C   0  0  0  0  0  0  0  0  0  0  0  0
   -5.2227   -1.4685    3.4833 N   0  0  0  0  0  0  0  0  0  0  0  0
   -4.9875   -1.1543    2.2289 C   0  0  0  0  0  0  0  0  0  0  0  0
   -0.8837    3.0044   -2.5098 N   0  0  0  0  0  0  0  0  0  0  0  0
   -2.2248    5.1617   -4.4916 H   0  0  0  0  0  0  0  0  0  0  0  0
   -2.2060    3.6129   -5.3616 H   0  0  0  0  0  0  0  0  0  0  0  0
   -0.6936    4.3114   -4.7585 H   0  0  0  0  0  0  0  0  0  0  0  0
   -3.5447    2.1566   -1.0142 H   0  0  0  0  0  0  0  0  0  0  0  0
   -1.2362    2.2132    0.6404 H   0  0  0  0  0  0  0  0  0  0  0  0
    1.0852    1.9259   -1.3403 H   0  0  0  0  0  0  0  0  0  0  0  0
    1.0410    2.8148    0.1821 H   0  0  0  0  0  0  0  0  0  0  0  0
    1.0858    0.7583    1.4723 H   0  0  0  0  0  0  0  0  0  0  0  0
    3.1659    1.1017   -0.1679 H   0  0  0  0  0  0  0  0  0  0  0  0
    4.6779    0.1170   -1.5186 H   0  0  0  0  0  0  0  0  0  0  0  0
    7.1168   -0.1243   -1.7964 H   0  0  0  0  0  0  0  0  0  0  0  0
    8.4549   -1.3376   -0.0968 H   0  0  0  0  0  0  0  0  0  0  0  0
    7.3448   -2.3178    1.8942 H   0  0  0  0  0  0  0  0  0  0  0  0
    4.8989   -2.0705    2.2008 H   0  0  0  0  0  0  0  0  0  0  0  0
    0.0694   -1.2386    0.5962 H   0  0  0  0  0  0  0  0  0  0  0  0
    0.4253   -0.8023   -1.0922 H   0  0  0  0  0  0  0  0  0  0  0  0
   -1.8532   -2.1005    0.8150 H   0  0  0  0  0  0  0  0  0  0  0  0
   -2.0995   -2.0764   -0.9486 H   0  0  0  0  0  0  0  0  0  0  0  0
   -4.6329   -1.5566   -0.3809 H   0  0  0  0  0  0  0  0  0  0  0  0
   -4.0183   -3.1961   -0.1633 H   0  0  0  0  0  0  0  0  0  0  0  0
   -3.6853   -4.1186    2.2056 H   0  0  0  0  0  0  0  0  0  0  0  0
   -4.7808   -3.2480    4.5913 H   0  0  0  0  0  0  0  0  0  0  0  0
   -5.2587   -0.2206    1.7520 H   0  0  0  0  0  0  0  0  0  0  0  0
  1  2  1  0
  2  3  2  0
  3  4  1  0
  4  5  1  0
  5  6  1  0
  6  7  1  0
  7  8  1  0
  8  9  1  0
  9 10  1  0
 10 11  2  0
 10 12  1  0
 12 13  2  0
 13 14  1  0
 14 15  2  0
 15 16  1  0
 16 17  2  0
  8 18  1  0
 18 19  1  0
 19 20  1  0
 20 21  2  0
 20 22  1  0
 22 23  1  0
 23 24  1  0
 24 25  1  0
 25 26  2  0
 26 27  1  0
 27 28  2  0
  5 29  2  0
 29  2  1  0
 19  6  1  0
 28 24  1  0
 17 12  1  0
  1 30  1  0
  1 31  1  0
  1 32  1  0
  4 33  1  0
  6 34  1  1
  7 35  1  0
  7 36  1  0
  8 37  1  1
  9 38  1  0
 13 39  1  0
 14 40  1  0
 15 41  1  0
 16 42  1  0
 17 43  1  0
 18 44  1  0
 18 45  1  0
 22 46  1  0
 22 47  1  0
 23 48  1  0
 23 49  1  0
 25 50  1  0
 26 51  1  0
 28 52  1  0
M  END
$$$$
