
     RDKit          3D

 42 45  0  0  0  0  0  0  0  0999 V2000
    2.5384    2.3044   -2.0340 O   0  0  0  0  0  0  0  0  0  0  0  0
    2.2817    1.3625   -1.2905 C   0  0  0  0  0  0  0  0  0  0  0  0
    3.1984    0.7926   -0.4380 N   0  0  0  0  0  0  0  0  0  0  0  0
    4.4967    1.3684   -0.2286 C   0  0  0  0  0  0  0  0  0  0  0  0
    5.3659    0.4521    0.5841 C   0  0  0  0  0  0  0  0  0  0  0  0
    6.0187   -0.6277   -0.0175 C   0  0  0  0  0  0  0  0  0  0  0  0
    6.7908   -1.4628    0.7743 C   0  0  0  0  0  0  0  0  0  0  0  0
    6.9495   -1.3007    2.1051 N   0  0  0  0  0  0  0  0  0  0  0  0
    6.3027   -0.2588    2.6691 C   0  0  0  0  0  0  0  0  0  0  0  0
    5.5077    0.6306    1.9628 C   0  0  0  0  0  0  0  0  0  0  0  0
    0.9521    0.7374   -1.2116 C   0  0  0  0  0  0  0  0  0  0  0  0
   -0.2045    1.0777   -1.9917 C   0  0  0  0  0  0  0  0  0  0  0  0
   -1.1699    0.2199   -1.5494 C   0  0  0  0  0  0  0  0  0  0  0  0
   -0.5961   -0.5210   -0.5782 N   0  0  0  0  0  0  0  0  0  0  0  0
    0.6878   -0.2757   -0.3428 N   0  0  0  0  0  0  0  0  0  0  0  0
   -1.4515   -1.5347    0.0079 C   0  0  0  0  0  0  0  0  0  0  0  0
   -2.8452   -1.1091   -0.5209 C   0  0  1  0  0  0  0  0  0  0  0  0
   -3.4987   -0.3780    0.5298 O   0  0  0  0  0  0  0  0  0  0  0  0
   -4.8544   -0.2399    0.4774 C   0  0  0  0  0  0  0  0  0  0  0  0
   -5.4292    0.4036    1.5715 C   0  0  0  0  0  0  0  0  0  0  0  0
   -6.8070    0.6014    1.6202 C   0  0  0  0  0  0  0  0  0  0  0  0
   -7.5713    0.1454    0.5603 C   0  0  0  0  0  0  0  0  0  0  0  0
   -7.0541   -0.4789   -0.5190 N   0  0  0  0  0  0  0  0  0  0  0  0
   -5.7094   -0.6539   -0.5360 C   0  0  0  0  0  0  0  0  0  0  0  0
   -2.5744   -0.1802   -1.7523 C   0  0  0  0  0  0  0  0  0  0  0  0
    2.8203    0.1031    0.2071 H   0  0  0  0  0  0  0  0  0  0  0  0
    4.3650    2.3329    0.2759 H   0  0  0  0  0  0  0  0  0  0  0  0
    4.9614    1.5808   -1.1988 H   0  0  0  0  0  0  0  0  0  0  0  0
    5.9251   -0.8192   -1.0818 H   0  0  0  0  0  0  0  0  0  0  0  0
    7.3157   -2.3117    0.3455 H   0  0  0  0  0  0  0  0  0  0  0  0
    6.4422   -0.1540    3.7413 H   0  0  0  0  0  0  0  0  0  0  0  0
    5.0104    1.4430    2.4823 H   0  0  0  0  0  0  0  0  0  0  0  0
   -0.2735    1.8370   -2.7585 H   0  0  0  0  0  0  0  0  0  0  0  0
   -1.1293   -2.4967   -0.4009 H   0  0  0  0  0  0  0  0  0  0  0  0
   -1.3547   -1.4969    1.0956 H   0  0  0  0  0  0  0  0  0  0  0  0
   -3.4221   -2.0052   -0.7772 H   0  0  0  0  0  0  0  0  0  0  0  0
   -4.8027    0.7529    2.3880 H   0  0  0  0  0  0  0  0  0  0  0  0
   -7.2703    1.1000    2.4641 H   0  0  0  0  0  0  0  0  0  0  0  0
   -8.6498    0.2749    0.5499 H   0  0  0  0  0  0  0  0  0  0  0  0
   -5.3570   -1.1498   -1.4330 H   0  0  0  0  0  0  0  0  0  0  0  0
   -2.6642   -0.7516   -2.6821 H   0  0  0  0  0  0  0  0  0  0  0  0
   -3.2408    0.6858   -1.7844 H   0  0  0  0  0  0  0  0  0  0  0  0
  1  2  2  0
  2  3  1  0
  3  4  1  0
  4  5  1  0
  5  6  2  0
  6  7  1  0
  7  8  2  0
  8  9  1  0
  9 10  2  0
  2 11  1  0
 11 12  1  0
 12 13  2  0
 13 14  1  0
 14 15  1  0
 14 16  1  0
 16 17  1  0
 17 18  1  0
 18 19  1  0
 19 20  2  0
 20 21  1  0
 21 22  2  0
 22 23  1  0
 23 24  2  0
 17 25  1  0
 10  5  1  0
 15 11  2  0
 24 19  1  0
 25 13  1  0
  3 26  1  0
  4 27  1  0
  4 28  1  0
  6 29  1  0
  7 30  1  0
  9 31  1  0
 10 32  1  0
 12 33  1  0
 16 34  1  0
 16 35  1  0
 17 36  1  6
 20 37  1  0
 21 38  1  0
 22 39  1  0
 24 40  1  0
 25 41  1  0
 25 42  1  0
M  END
$$$$
