
     RDKit          3D

 44 47  0  0  0  0  0  0  0  0999 V2000
    1.9171   -2.0418    1.0721 O   0  0  0  0  0  0  0  0  0  0  0  0
    1.7770   -0.8666    1.3742 C   0  0  0  0  0  0  0  0  0  0  0  0
    2.7841    0.0735    1.6376 N   0  0  0  0  0  0  0  0  0  0  0  0
    4.2002   -0.1525    1.4865 C   0  0  0  0  0  0  0  0  0  0  0  0
    4.6681    0.1341    0.0790 C   0  0  0  0  0  0  0  0  0  0  0  0
    4.6890   -0.8862   -0.8861 C   0  0  0  0  0  0  0  0  0  0  0  0
    5.1003   -0.6136   -2.1915 C   0  0  0  0  0  0  0  0  0  0  0  0
    5.4822    0.6777   -2.5344 C   0  0  0  0  0  0  0  0  0  0  0  0
    5.8737    0.9387   -3.7886 F   0  0  0  0  0  0  0  0  0  0  0  0
    5.4569    1.7043   -1.5982 C   0  0  0  0  0  0  0  0  0  0  0  0
    5.0459    1.4347   -0.2922 C   0  0  0  0  0  0  0  0  0  0  0  0
    2.2370    1.3227    1.8871 N   0  0  0  0  0  0  0  0  0  0  0  0
    0.9601    1.1136    1.8053 C   0  0  0  0  0  0  0  0  0  0  0  0
   -0.1292    2.0968    1.9865 C   0  0  0  0  0  0  0  0  0  0  0  0
   -1.3953    1.6683    1.8377 C   0  0  0  0  0  0  0  0  0  0  0  0
   -1.6905    0.2787    1.5066 C   0  0  0  0  0  0  0  0  0  0  0  0
   -3.3258   -0.2993    1.2956 S   0  0  0  0  0  6  0  0  0  0  0  0
   -4.2311    0.8312    1.2642 O   0  0  0  0  0  0  0  0  0  0  0  0
   -3.5496   -1.3688    2.2475 O   0  0  0  0  0  0  0  0  0  0  0  0
   -3.3699   -1.0069   -0.2581 N   0  0  0  0  0  0  0  0  0  0  0  0
   -3.1506   -0.1146   -1.4344 C   0  0  0  0  0  0  0  0  0  0  0  0
   -4.3881    0.6790   -1.8602 C   0  0  0  0  0  0  0  0  0  0  0  0
   -5.8095   -0.3876   -2.2617 S   0  0  0  0  0  0  0  0  0  0  0  0
   -5.8117   -1.3910   -0.7391 C   0  0  0  0  0  0  0  0  0  0  0  0
   -4.4432   -2.0187   -0.4881 C   0  0  0  0  0  0  0  0  0  0  0  0
   -0.6857   -0.6026    1.3585 C   0  0  0  0  0  0  0  0  0  0  0  0
    0.6025   -0.1646    1.5115 N   0  0  0  0  0  0  0  0  0  0  0  0
    4.7355    0.4770    2.2067 H   0  0  0  0  0  0  0  0  0  0  0  0
    4.4200   -1.1954    1.7436 H   0  0  0  0  0  0  0  0  0  0  0  0
    4.3766   -1.8964   -0.6252 H   0  0  0  0  0  0  0  0  0  0  0  0
    5.1202   -1.3977   -2.9415 H   0  0  0  0  0  0  0  0  0  0  0  0
    5.7512    2.7068   -1.8913 H   0  0  0  0  0  0  0  0  0  0  0  0
    5.0105    2.2430    0.4359 H   0  0  0  0  0  0  0  0  0  0  0  0
    0.1356    3.1163    2.2332 H   0  0  0  0  0  0  0  0  0  0  0  0
   -2.2286    2.3544    1.9682 H   0  0  0  0  0  0  0  0  0  0  0  0
   -2.7971   -0.7360   -2.2675 H   0  0  0  0  0  0  0  0  0  0  0  0
   -2.3298    0.5787   -1.2209 H   0  0  0  0  0  0  0  0  0  0  0  0
   -4.1498    1.2643   -2.7545 H   0  0  0  0  0  0  0  0  0  0  0  0
   -4.6983    1.3911   -1.0920 H   0  0  0  0  0  0  0  0  0  0  0  0
   -6.5612   -2.1795   -0.8601 H   0  0  0  0  0  0  0  0  0  0  0  0
   -6.1284   -0.7628    0.0986 H   0  0  0  0  0  0  0  0  0  0  0  0
   -4.1460   -2.6487   -1.3367 H   0  0  0  0  0  0  0  0  0  0  0  0
   -4.4992   -2.7005    0.3673 H   0  0  0  0  0  0  0  0  0  0  0  0
   -0.8250   -1.6531    1.1182 H   0  0  0  0  0  0  0  0  0  0  0  0
  1  2  2  0
  2  3  1  0
  3  4  1  0
  4  5  1  0
  5  6  2  0
  6  7  1  0
  7  8  2  0
  8  9  1  0
  8 10  1  0
 10 11  2  0
  3 12  1  0
 12 13  2  0
 13 14  1  0
 14 15  2  0
 15 16  1  0
 16 17  1  0
 17 18  2  0
 17 19  2  0
 17 20  1  0
 20 21  1  0
 21 22  1  0
 22 23  1  0
 23 24  1  0
 24 25  1  0
 16 26  2  0
 26 27  1  0
 27  2  1  0
 11  5  1  0
 27 13  1  0
 25 20  1  0
  4 28  1  0
  4 29  1  0
  6 30  1  0
  7 31  1  0
 10 32  1  0
 11 33  1  0
 14 34  1  0
 15 35  1  0
 21 36  1  0
 21 37  1  0
 22 38  1  0
 22 39  1  0
 24 40  1  0
 24 41  1  0
 25 42  1  0
 25 43  1  0
 26 44  1  0
M  END
$$$$
