
     RDKit          3D

 39 40  0  0  0  0  0  0  0  0999 V2000
   -6.0319    1.6281   -1.3107 C   0  0  0  0  0  0  0  0  0  0  0  0
   -5.4683    0.8059   -0.2994 O   0  0  0  0  0  0  0  0  0  0  0  0
   -4.1961    0.3299   -0.5012 C   0  0  0  0  0  0  0  0  0  0  0  0
   -3.3989    0.6491   -1.6049 C   0  0  0  0  0  0  0  0  0  0  0  0
   -2.1119    0.1192   -1.7243 C   0  0  0  0  0  0  0  0  0  0  0  0
   -1.6028   -0.7412   -0.7459 C   0  0  0  0  0  0  0  0  0  0  0  0
   -0.2020   -1.2797   -0.8638 C   0  0  0  0  0  0  0  0  0  0  0  0
    0.7593   -0.2871   -0.4401 N   0  0  0  0  0  0  0  0  0  0  0  0
    2.1058   -0.5741   -0.5450 C   0  0  0  0  0  0  0  0  0  0  0  0
    2.5152   -1.6129   -1.0445 O   0  0  0  0  0  0  0  0  0  0  0  0
    2.8598    0.4593   -0.0352 N   0  0  0  0  0  0  0  0  0  0  0  0
    4.2600    0.5138    0.1100 C   0  0  0  0  0  0  0  0  0  0  0  0
    5.1078   -0.5726   -0.1130 C   0  0  0  0  0  0  0  0  0  0  0  0
    6.4892   -0.4410    0.0625 C   0  0  0  0  0  0  0  0  0  0  0  0
    7.0332    0.7760    0.4660 C   0  0  0  0  0  0  0  0  0  0  0  0
    6.1959    1.8640    0.6966 C   0  0  0  0  0  0  0  0  0  0  0  0
    4.8157    1.7326    0.5210 C   0  0  0  0  0  0  0  0  0  0  0  0
   -2.3988   -1.0554    0.3664 C   0  0  0  0  0  0  0  0  0  0  0  0
   -3.6918   -0.5318    0.4936 C   0  0  0  0  0  0  0  0  0  0  0  0
   -4.5308   -0.7894    1.5500 O   0  0  0  0  0  0  0  0  0  0  0  0
   -4.1170   -1.7600    2.5004 C   0  0  0  0  0  0  0  0  0  0  0  0
   -7.0489    1.8885   -1.0019 H   0  0  0  0  0  0  0  0  0  0  0  0
   -5.4692    2.5610   -1.4194 H   0  0  0  0  0  0  0  0  0  0  0  0
   -6.1011    1.0933   -2.2637 H   0  0  0  0  0  0  0  0  0  0  0  0
   -3.7475    1.3116   -2.3898 H   0  0  0  0  0  0  0  0  0  0  0  0
   -1.5033    0.3856   -2.5868 H   0  0  0  0  0  0  0  0  0  0  0  0
   -0.0725   -2.1754   -0.2444 H   0  0  0  0  0  0  0  0  0  0  0  0
    0.0118   -1.5726   -1.8988 H   0  0  0  0  0  0  0  0  0  0  0  0
    0.4996    0.2539    0.3707 H   0  0  0  0  0  0  0  0  0  0  0  0
    2.3568    1.3192    0.1223 H   0  0  0  0  0  0  0  0  0  0  0  0
    4.7242   -1.5401   -0.4220 H   0  0  0  0  0  0  0  0  0  0  0  0
    7.1376   -1.2949   -0.1174 H   0  0  0  0  0  0  0  0  0  0  0  0
    8.1071    0.8742    0.6007 H   0  0  0  0  0  0  0  0  0  0  0  0
    6.6160    2.8152    1.0127 H   0  0  0  0  0  0  0  0  0  0  0  0
    4.1846    2.5971    0.7080 H   0  0  0  0  0  0  0  0  0  0  0  0
   -1.9852   -1.7113    1.1260 H   0  0  0  0  0  0  0  0  0  0  0  0
   -4.9292   -1.8886    3.2224 H   0  0  0  0  0  0  0  0  0  0  0  0
   -3.2346   -1.4188    3.0513 H   0  0  0  0  0  0  0  0  0  0  0  0
   -3.9378   -2.7305    2.0259 H   0  0  0  0  0  0  0  0  0  0  0  0
  1  2  1  0
  2  3  1  0
  3  4  2  0
  4  5  1  0
  5  6  2  0
  6  7  1  0
  7  8  1  0
  8  9  1  0
  9 10  2  0
  9 11  1  0
 11 12  1  0
 12 13  2  0
 13 14  1  0
 14 15  2  0
 15 16  1  0
 16 17  2  0
  6 18  1  0
 18 19  2  0
 19 20  1  0
 20 21  1  0
 19  3  1  0
 17 12  1  0
  1 22  1  0
  1 23  1  0
  1 24  1  0
  4 25  1  0
  5 26  1  0
  7 27  1  0
  7 28  1  0
  8 29  1  0
 11 30  1  0
 13 31  1  0
 14 32  1  0
 15 33  1  0
 16 34  1  0
 17 35  1  0
 18 36  1  0
 21 37  1  0
 21 38  1  0
 21 39  1  0
M  END
$$$$
