
     RDKit          3D

 54 56  0  0  0  0  0  0  0  0999 V2000
   -5.1225    1.8808   -1.9998 C   0  0  0  0  0  0  0  0  0  0  0  0
   -4.0338    1.0982   -1.5290 O   0  0  0  0  0  0  0  0  0  0  0  0
   -2.9752    1.9026   -1.0444 C   0  0  0  0  0  0  0  0  0  0  0  0
   -1.7357    1.1190   -0.6041 C   0  0  0  0  0  0  0  0  0  0  0  0
   -0.6639    1.3874   -1.1634 O   0  0  0  0  0  0  0  0  0  0  0  0
   -1.7897    0.1748    0.4269 N   0  0  0  0  0  0  0  0  0  0  0  0
   -2.9938   -0.3206    1.1448 C   0  0  0  0  0  0  0  0  0  0  0  0
   -3.7407   -1.4241    0.3911 C   0  0  0  0  0  0  0  0  0  0  0  0
   -4.8689   -1.9753    1.2564 C   0  0  0  0  0  0  0  0  0  0  0  0
   -5.7224   -0.9338    1.7295 O   0  0  0  0  0  0  0  0  0  0  0  0
   -5.0321    0.0198    2.5370 C   0  0  0  0  0  0  0  0  0  0  0  0
   -3.9576    0.7237    1.7159 C   0  0  0  0  0  0  0  0  0  0  0  0
   -0.5353   -0.5597    0.7256 C   0  0  0  0  0  0  0  0  0  0  0  0
    0.0776   -1.3175   -0.4690 C   0  0  0  0  0  0  0  0  0  0  0  0
    1.4905   -0.7698   -0.6217 C   0  0  0  0  0  0  0  0  0  0  0  0
    1.8148   -0.1932    0.6721 N   0  0  0  0  0  0  0  0  0  0  0  0
    3.0211    0.4015    1.0096 C   0  0  0  0  0  0  0  0  0  0  0  0
    3.1353    1.2276    1.9116 O   0  0  0  0  0  0  0  0  0  0  0  0
    4.2333    0.0264    0.2630 C   0  0  0  0  0  0  0  0  0  0  0  0
    4.6423   -1.2984    0.1210 C   0  0  0  0  0  0  0  0  0  0  0  0
    5.8192   -1.5695   -0.5733 C   0  0  0  0  0  0  0  0  0  0  0  0
    6.5485   -0.5040   -1.0834 C   0  0  0  0  0  0  0  0  0  0  0  0
    7.7029   -0.8295   -1.7665 O   0  0  0  0  0  0  0  0  0  0  0  0
    8.4148    0.3131   -2.2312 C   0  0  0  0  0  0  0  0  0  0  0  0
    6.1878    0.7904   -0.9404 N   0  0  0  0  0  0  0  0  0  0  0  0
    5.0413    1.0278   -0.2556 C   0  0  0  0  0  0  0  0  0  0  0  0
    0.6028    0.2999    1.2995 C   0  0  0  0  0  0  0  0  0  0  0  0
   -5.5274    2.4995   -1.1936 H   0  0  0  0  0  0  0  0  0  0  0  0
   -4.8090    2.5102   -2.8381 H   0  0  0  0  0  0  0  0  0  0  0  0
   -5.9071    1.2035   -2.3468 H   0  0  0  0  0  0  0  0  0  0  0  0
   -2.6523    2.5685   -1.8558 H   0  0  0  0  0  0  0  0  0  0  0  0
   -3.2960    2.5487   -0.2214 H   0  0  0  0  0  0  0  0  0  0  0  0
   -2.5929   -0.7986    2.0507 H   0  0  0  0  0  0  0  0  0  0  0  0
   -3.0577   -2.2347    0.1123 H   0  0  0  0  0  0  0  0  0  0  0  0
   -4.1655   -1.0367   -0.5371 H   0  0  0  0  0  0  0  0  0  0  0  0
   -5.4809   -2.6689    0.6708 H   0  0  0  0  0  0  0  0  0  0  0  0
   -4.4725   -2.5326    2.1135 H   0  0  0  0  0  0  0  0  0  0  0  0
   -5.7667    0.7496    2.8920 H   0  0  0  0  0  0  0  0  0  0  0  0
   -4.6093   -0.4792    3.4169 H   0  0  0  0  0  0  0  0  0  0  0  0
   -3.4215    1.4557    2.3290 H   0  0  0  0  0  0  0  0  0  0  0  0
   -4.4761    1.2620    0.9238 H   0  0  0  0  0  0  0  0  0  0  0  0
   -0.7624   -1.3247    1.4793 H   0  0  0  0  0  0  0  0  0  0  0  0
    0.1333   -2.3846   -0.2177 H   0  0  0  0  0  0  0  0  0  0  0  0
   -0.4961   -1.2459   -1.3980 H   0  0  0  0  0  0  0  0  0  0  0  0
    2.1953   -1.5521   -0.9094 H   0  0  0  0  0  0  0  0  0  0  0  0
    1.5377    0.0264   -1.3723 H   0  0  0  0  0  0  0  0  0  0  0  0
    4.0644   -2.1088    0.5545 H   0  0  0  0  0  0  0  0  0  0  0  0
    6.1688   -2.5869   -0.7072 H   0  0  0  0  0  0  0  0  0  0  0  0
    9.3120   -0.0414   -2.7481 H   0  0  0  0  0  0  0  0  0  0  0  0
    8.7401    0.9449   -1.3973 H   0  0  0  0  0  0  0  0  0  0  0  0
    7.8205    0.8858   -2.9517 H   0  0  0  0  0  0  0  0  0  0  0  0
    4.7820    2.0765   -0.1356 H   0  0  0  0  0  0  0  0  0  0  0  0
    0.6822    0.1999    2.3877 H   0  0  0  0  0  0  0  0  0  0  0  0
    0.4962    1.3664    1.0729 H   0  0  0  0  0  0  0  0  0  0  0  0
  1  2  1  0
  2  3  1  0
  3  4  1  0
  4  5  2  0
  4  6  1  0
  6  7  1  0
  7  8  1  0
  8  9  1  0
  9 10  1  0
 10 11  1  0
 11 12  1  0
  6 13  1  0
 13 14  1  0
 14 15  1  0
 15 16  1  0
 16 17  1  0
 17 18  2  0
 17 19  1  0
 19 20  2  0
 20 21  1  0
 21 22  2  0
 22 23  1  0
 23 24  1  0
 22 25  1  0
 25 26  2  0
 16 27  1  0
 12  7  1  0
 27 13  1  0
 26 19  1  0
  1 28  1  0
  1 29  1  0
  1 30  1  0
  3 31  1  0
  3 32  1  0
  7 33  1  0
  8 34  1  0
  8 35  1  0
  9 36  1  0
  9 37  1  0
 11 38  1  0
 11 39  1  0
 12 40  1  0
 12 41  1  0
 13 42  1  0
 14 43  1  0
 14 44  1  0
 15 45  1  0
 15 46  1  0
 20 47  1  0
 21 48  1  0
 24 49  1  0
 24 50  1  0
 24 51  1  0
 26 52  1  0
 27 53  1  0
 27 54  1  0
M  END
$$$$
