
     RDKit          3D

 41 43  0  0  0  0  0  0  0  0999 V2000
   -0.2500    1.3012   -2.3522 O   0  0  0  0  0  0  0  0  0  0  0  0
   -0.4437    1.7208   -1.2106 C   0  0  0  0  0  0  0  0  0  0  0  0
   -1.7854    1.5931   -0.5121 C   0  0  0  0  0  0  0  0  0  0  0  0
   -2.6826    0.5180   -1.1456 C   0  0  2  0  0  0  0  0  0  0  0  0
   -4.0787    0.5832   -0.6396 N   0  0  0  0  0  0  0  0  0  0  0  0
   -4.2013    0.1872    0.7655 C   0  0  0  0  0  0  0  0  0  0  0  0
   -3.6802   -1.2266    1.0115 C   0  0  0  0  0  0  0  0  0  0  0  0
   -2.2608   -1.4149    0.4761 C   0  0  0  0  0  0  0  0  0  0  0  0
   -2.1469   -0.9280   -0.9701 C   0  0  1  0  0  0  0  0  0  0  0  0
   -2.9292   -1.8042   -1.7953 O   0  0  0  0  0  0  0  0  0  0  0  0
    0.6597    2.4331   -0.4414 C   0  0  0  0  0  0  0  0  0  0  0  0
    1.8260    1.5678   -0.4065 N   0  0  0  0  0  0  0  0  0  0  0  0
    2.8080    1.6842   -1.3599 C   0  0  0  0  0  0  0  0  0  0  0  0
    3.8710    0.9542   -1.4111 N   0  0  0  0  0  0  0  0  0  0  0  0
    4.0259   -0.0467   -0.4430 C   0  0  0  0  0  0  0  0  0  0  0  0
    5.1722   -0.8430   -0.4753 C   0  0  0  0  0  0  0  0  0  0  0  0
    5.3602   -1.8593    0.4696 C   0  0  0  0  0  0  0  0  0  0  0  0
    6.9535   -2.8854    0.3432 Br  0  0  0  0  0  0  0  0  0  0  0  0
    4.3924   -2.0853    1.4571 C   0  0  0  0  0  0  0  0  0  0  0  0
    4.5528   -3.3168    2.6571 Cl  0  0  0  0  0  0  0  0  0  0  0  0
    3.2426   -1.2944    1.4959 C   0  0  0  0  0  0  0  0  0  0  0  0
    3.0712   -0.2821    0.5468 C   0  0  0  0  0  0  0  0  0  0  0  0
    1.8717    0.5744    0.5579 C   0  0  0  0  0  0  0  0  0  0  0  0
    0.9749    0.3842    1.3749 O   0  0  0  0  0  0  0  0  0  0  0  0
   -2.2673    2.5761   -0.5753 H   0  0  0  0  0  0  0  0  0  0  0  0
   -1.6026    1.3767    0.5448 H   0  0  0  0  0  0  0  0  0  0  0  0
   -2.7560    0.7146   -2.2232 H   0  0  0  0  0  0  0  0  0  0  0  0
   -4.4476    1.5265   -0.7625 H   0  0  0  0  0  0  0  0  0  0  0  0
   -5.2597    0.2267    1.0468 H   0  0  0  0  0  0  0  0  0  0  0  0
   -3.6823    0.9018    1.4143 H   0  0  0  0  0  0  0  0  0  0  0  0
   -3.7002   -1.4467    2.0850 H   0  0  0  0  0  0  0  0  0  0  0  0
   -4.3511   -1.9506    0.5319 H   0  0  0  0  0  0  0  0  0  0  0  0
   -1.5551   -0.8715    1.1134 H   0  0  0  0  0  0  0  0  0  0  0  0
   -2.0014   -2.4784    0.5362 H   0  0  0  0  0  0  0  0  0  0  0  0
   -1.1102   -1.0142   -1.3091 H   0  0  0  0  0  0  0  0  0  0  0  0
   -3.8435   -1.4614   -1.7383 H   0  0  0  0  0  0  0  0  0  0  0  0
    0.3302    2.6607    0.5770 H   0  0  0  0  0  0  0  0  0  0  0  0
    0.8861    3.3732   -0.9549 H   0  0  0  0  0  0  0  0  0  0  0  0
    2.6389    2.4752   -2.1083 H   0  0  0  0  0  0  0  0  0  0  0  0
    5.9148   -0.6613   -1.2493 H   0  0  0  0  0  0  0  0  0  0  0  0
    2.4836   -1.4620    2.2571 H   0  0  0  0  0  0  0  0  0  0  0  0
  1  2  2  0
  2  3  1  0
  3  4  1  0
  4  5  1  0
  5  6  1  0
  6  7  1  0
  7  8  1  0
  8  9  1  0
  9 10  1  0
  2 11  1  0
 11 12  1  0
 12 13  1  0
 13 14  2  0
 14 15  1  0
 15 16  2  0
 16 17  1  0
 17 18  1  0
 17 19  2  0
 19 20  1  0
 19 21  1  0
 21 22  2  0
 22 23  1  0
 23 24  2  0
  9  4  1  0
 23 12  1  0
 22 15  1  0
  3 25  1  0
  3 26  1  0
  4 27  1  6
  5 28  1  0
  6 29  1  0
  6 30  1  0
  7 31  1  0
  7 32  1  0
  8 33  1  0
  8 34  1  0
  9 35  1  6
 10 36  1  0
 11 37  1  0
 11 38  1  0
 13 39  1  0
 16 40  1  0
 21 41  1  0
M  END
$$$$
