
     RDKit          3D

 38 39  0  0  0  0  0  0  0  0999 V2000
    1.1618   -2.4338    1.5710 C   0  0  0  0  0  0  0  0  0  0  0  0
    0.6383   -1.3333    0.7525 N   0  0  0  0  0  0  0  0  0  0  0  0
    0.0320   -0.2291    1.5277 C   0  0  0  0  0  0  0  0  0  0  0  0
   -1.4719   -0.1810    1.2675 C   0  0  0  0  0  0  0  0  0  0  0  0
   -2.2610   -0.5377    2.1396 O   0  0  0  0  0  0  0  0  0  0  0  0
   -1.7997    0.3189    0.0150 N   0  0  0  0  0  0  0  0  0  0  0  0
   -3.0939    0.4677   -0.5503 C   0  0  0  0  0  0  0  0  0  0  0  0
   -4.2398   -0.0514    0.0676 C   0  0  0  0  0  0  0  0  0  0  0  0
   -5.5034    0.0795   -0.5198 C   0  0  0  0  0  0  0  0  0  0  0  0
   -5.6472    0.7347   -1.7366 C   0  0  0  0  0  0  0  0  0  0  0  0
   -4.5248    1.2671   -2.3647 C   0  0  0  0  0  0  0  0  0  0  0  0
   -3.2520    1.1415   -1.7804 C   0  0  0  0  0  0  0  0  0  0  0  0
   -2.1541    1.7749   -2.4544 C   0  0  0  0  0  0  0  0  0  0  0  0
   -1.2880    2.3271   -2.9953 N   0  0  0  0  0  0  0  0  0  0  0  0
    1.4377   -0.9352   -0.6777 S   0  0  0  0  0  6  0  0  0  0  0  0
    1.7741   -2.1568   -1.3739 O   0  0  0  0  0  0  0  0  0  0  0  0
    0.6400    0.0985   -1.3073 O   0  0  0  0  0  0  0  0  0  0  0  0
    2.9530   -0.1949   -0.1150 C   0  0  0  0  0  0  0  0  0  0  0  0
    4.0427   -1.0142    0.1972 C   0  0  0  0  0  0  0  0  0  0  0  0
    5.2396   -0.4353    0.6187 C   0  0  0  0  0  0  0  0  0  0  0  0
    5.3493    0.9532    0.7106 C   0  0  0  0  0  0  0  0  0  0  0  0
    4.2681    1.7685    0.3717 C   0  0  0  0  0  0  0  0  0  0  0  0
    3.0674    1.1973   -0.0504 C   0  0  0  0  0  0  0  0  0  0  0  0
    1.4982   -3.2679    0.9494 H   0  0  0  0  0  0  0  0  0  0  0  0
    1.9895   -2.0938    2.1996 H   0  0  0  0  0  0  0  0  0  0  0  0
    0.3677   -2.8205    2.2181 H   0  0  0  0  0  0  0  0  0  0  0  0
    0.1947   -0.3677    2.6028 H   0  0  0  0  0  0  0  0  0  0  0  0
    0.4688    0.7435    1.2812 H   0  0  0  0  0  0  0  0  0  0  0  0
   -1.0056    0.5488   -0.5900 H   0  0  0  0  0  0  0  0  0  0  0  0
   -4.1878   -0.5902    1.0089 H   0  0  0  0  0  0  0  0  0  0  0  0
   -6.3739   -0.3401   -0.0202 H   0  0  0  0  0  0  0  0  0  0  0  0
   -6.6297    0.8344   -2.1912 H   0  0  0  0  0  0  0  0  0  0  0  0
   -4.6463    1.7916   -3.3115 H   0  0  0  0  0  0  0  0  0  0  0  0
    3.9708   -2.0957    0.1051 H   0  0  0  0  0  0  0  0  0  0  0  0
    6.0923   -1.0642    0.8641 H   0  0  0  0  0  0  0  0  0  0  0  0
    6.2864    1.4025    1.0320 H   0  0  0  0  0  0  0  0  0  0  0  0
    4.3670    2.8504    0.4247 H   0  0  0  0  0  0  0  0  0  0  0  0
    2.2395    1.8426   -0.3359 H   0  0  0  0  0  0  0  0  0  0  0  0
  1  2  1  0
  2  3  1  0
  3  4  1  0
  4  5  2  0
  4  6  1  0
  6  7  1  0
  7  8  2  0
  8  9  1  0
  9 10  2  0
 10 11  1  0
 11 12  2  0
 12 13  1  0
 13 14  3  0
  2 15  1  0
 15 16  2  0
 15 17  2  0
 15 18  1  0
 18 19  2  0
 19 20  1  0
 20 21  2  0
 21 22  1  0
 22 23  2  0
 12  7  1  0
 23 18  1  0
  1 24  1  0
  1 25  1  0
  1 26  1  0
  3 27  1  0
  3 28  1  0
  6 29  1  0
  8 30  1  0
  9 31  1  0
 10 32  1  0
 11 33  1  0
 19 34  1  0
 20 35  1  0
 21 36  1  0
 22 37  1  0
 23 38  1  0
M  END
$$$$
