
     RDKit          3D

 62 64  0  0  0  0  0  0  0  0999 V2000
    3.5733    3.2033    1.9556 C   0  0  0  0  0  0  0  0  0  0  0  0
    3.4700    1.8373    1.5805 O   0  0  0  0  0  0  0  0  0  0  0  0
    4.5854    1.2406    1.0389 C   0  0  0  0  0  0  0  0  0  0  0  0
    5.7687    1.9192    0.7238 C   0  0  0  0  0  0  0  0  0  0  0  0
    6.8384    1.2358    0.1438 C   0  0  0  0  0  0  0  0  0  0  0  0
    6.7343   -0.1298   -0.1258 C   0  0  0  0  0  0  0  0  0  0  0  0
    5.5626   -0.8207    0.1918 C   0  0  0  0  0  0  0  0  0  0  0  0
    4.4856   -0.1458    0.7761 C   0  0  0  0  0  0  0  0  0  0  0  0
    3.3081   -0.7454    1.1467 O   0  0  0  0  0  0  0  0  0  0  0  0
    3.0657   -2.0860    0.7108 C   0  0  0  0  0  0  0  0  0  0  0  0
    1.6270   -2.4295    1.1061 C   0  0  0  0  0  0  0  0  0  0  0  0
    0.6784   -1.5194    0.4762 N   0  0  0  0  0  0  0  0  0  0  0  0
    0.3149   -1.7005   -0.8397 C   0  0  0  0  0  0  0  0  0  0  0  0
    0.6146   -2.7098   -1.4720 O   0  0  0  0  0  0  0  0  0  0  0  0
   -0.4765   -0.5626   -1.4772 C   0  0  2  0  0  0  0  0  0  0  0  0
    0.3759    0.7072   -1.5687 C   0  0  0  0  0  0  0  0  0  0  0  0
   -0.0737    1.7726   -0.5954 C   0  0  0  0  0  0  0  0  0  0  0  0
   -1.5267    2.0978   -0.8147 C   0  0  0  0  0  0  0  0  0  0  0  0
   -1.9015    3.2664   -0.8576 O   0  0  0  0  0  0  0  0  0  0  0  0
   -2.3855    0.9975   -0.9024 N   0  0  0  0  0  0  0  0  0  0  0  0
   -3.8237    1.2813   -0.7516 C   0  0  0  0  0  0  0  0  0  0  0  0
   -4.3866    1.3642    0.6864 C   0  0  0  0  0  0  0  0  0  0  0  0
   -4.5675    0.0054    1.3533 C   0  0  0  0  0  0  0  0  0  0  0  0
   -3.6085    2.3005    1.6055 C   0  0  0  0  0  0  0  0  0  0  0  0
   -1.8397   -0.3771   -0.7572 C   0  0  1  0  0  0  0  0  0  0  0  0
   -2.7708   -1.4853   -1.2275 C   0  0  0  0  0  0  0  0  0  0  0  0
   -3.0473   -2.5918   -0.4151 C   0  0  0  0  0  0  0  0  0  0  0  0
   -3.8694   -3.6111   -0.8857 C   0  0  0  0  0  0  0  0  0  0  0  0
   -4.3864   -3.4996   -2.1646 C   0  0  0  0  0  0  0  0  0  0  0  0
   -4.1329   -2.4600   -2.9858 N   0  0  0  0  0  0  0  0  0  0  0  0
   -3.3248   -1.4897   -2.5071 C   0  0  0  0  0  0  0  0  0  0  0  0
    2.6098    3.5131    2.3770 H   0  0  0  0  0  0  0  0  0  0  0  0
    3.7728    3.8388    1.0871 H   0  0  0  0  0  0  0  0  0  0  0  0
    4.3327    3.3386    2.7283 H   0  0  0  0  0  0  0  0  0  0  0  0
    5.8905    2.9829    0.9124 H   0  0  0  0  0  0  0  0  0  0  0  0
    7.7533    1.7732   -0.1004 H   0  0  0  0  0  0  0  0  0  0  0  0
    7.5673   -0.6586   -0.5815 H   0  0  0  0  0  0  0  0  0  0  0  0
    5.5213   -1.8833   -0.0267 H   0  0  0  0  0  0  0  0  0  0  0  0
    3.1844   -2.1611   -0.3776 H   0  0  0  0  0  0  0  0  0  0  0  0
    3.7531   -2.7743    1.2139 H   0  0  0  0  0  0  0  0  0  0  0  0
    1.4921   -2.3128    2.1865 H   0  0  0  0  0  0  0  0  0  0  0  0
    1.3864   -3.4606    0.8291 H   0  0  0  0  0  0  0  0  0  0  0  0
    0.7258   -0.5711    0.8274 H   0  0  0  0  0  0  0  0  0  0  0  0
   -0.6455   -0.8792   -2.5150 H   0  0  0  0  0  0  0  0  0  0  0  0
    1.4425    0.4957   -1.4245 H   0  0  0  0  0  0  0  0  0  0  0  0
    0.2773    1.1107   -2.5863 H   0  0  0  0  0  0  0  0  0  0  0  0
    0.0655    1.4696    0.4465 H   0  0  0  0  0  0  0  0  0  0  0  0
    0.5161    2.6820   -0.7552 H   0  0  0  0  0  0  0  0  0  0  0  0
   -4.4099    0.5675   -1.3338 H   0  0  0  0  0  0  0  0  0  0  0  0
   -4.0124    2.2501   -1.2329 H   0  0  0  0  0  0  0  0  0  0  0  0
   -5.3952    1.7869    0.5879 H   0  0  0  0  0  0  0  0  0  0  0  0
   -3.6114   -0.4561    1.5983 H   0  0  0  0  0  0  0  0  0  0  0  0
   -5.1279    0.1088    2.2906 H   0  0  0  0  0  0  0  0  0  0  0  0
   -5.1377   -0.6699    0.7119 H   0  0  0  0  0  0  0  0  0  0  0  0
   -4.1108    2.3909    2.5775 H   0  0  0  0  0  0  0  0  0  0  0  0
   -2.5933    1.9372    1.7921 H   0  0  0  0  0  0  0  0  0  0  0  0
   -3.5503    3.3029    1.1782 H   0  0  0  0  0  0  0  0  0  0  0  0
   -1.6977   -0.4887    0.3255 H   0  0  0  0  0  0  0  0  0  0  0  0
   -2.6187   -2.6748    0.5819 H   0  0  0  0  0  0  0  0  0  0  0  0
   -4.0957   -4.4753   -0.2715 H   0  0  0  0  0  0  0  0  0  0  0  0
   -5.0335   -4.2681   -2.5752 H   0  0  0  0  0  0  0  0  0  0  0  0
   -3.1323   -0.6800   -3.2074 H   0  0  0  0  0  0  0  0  0  0  0  0
  1  2  1  0
  2  3  1  0
  3  4  2  0
  4  5  1  0
  5  6  2  0
  6  7  1  0
  7  8  2  0
  8  9  1  0
  9 10  1  0
 10 11  1  0
 11 12  1  0
 12 13  1  0
 13 14  2  0
 13 15  1  0
 15 16  1  0
 16 17  1  0
 17 18  1  0
 18 19  2  0
 18 20  1  0
 20 21  1  0
 21 22  1  0
 22 23  1  0
 22 24  1  0
 20 25  1  0
 25 26  1  0
 26 27  2  0
 27 28  1  0
 28 29  2  0
 29 30  1  0
 30 31  2  0
  8  3  1  0
 25 15  1  0
 31 26  1  0
  1 32  1  0
  1 33  1  0
  1 34  1  0
  4 35  1  0
  5 36  1  0
  6 37  1  0
  7 38  1  0
 10 39  1  0
 10 40  1  0
 11 41  1  0
 11 42  1  0
 12 43  1  0
 15 44  1  6
 16 45  1  0
 16 46  1  0
 17 47  1  0
 17 48  1  0
 21 49  1  0
 21 50  1  0
 22 51  1  0
 23 52  1  0
 23 53  1  0
 23 54  1  0
 24 55  1  0
 24 56  1  0
 24 57  1  0
 25 58  1  1
 27 59  1  0
 28 60  1  0
 29 61  1  0
 31 62  1  0
M  END
$$$$
