
     RDKit          3D

 48 50  0  0  0  0  0  0  0  0999 V2000
   -1.8988   -3.7873    3.0865 N   0  0  0  0  0  0  0  0  0  0  0  0
   -2.0479   -2.4919    2.6670 C   0  0  0  0  0  0  0  0  0  0  0  0
   -2.9643   -1.7939    3.0832 O   0  0  0  0  0  0  0  0  0  0  0  0
   -1.0684   -1.9748    1.6970 C   0  0  0  0  0  0  0  0  0  0  0  0
    0.2585   -2.3332    1.7687 C   0  0  0  0  0  0  0  0  0  0  0  0
    1.2061   -1.8638    0.9340 N   0  0  0  0  0  0  0  0  0  0  0  0
    0.8054   -0.9826    0.0108 C   0  0  0  0  0  0  0  0  0  0  0  0
    1.7111   -0.4299   -0.8771 N   0  0  0  0  0  0  0  0  0  0  0  0
    2.8446   -1.2584   -1.2603 C   0  0  0  0  0  0  0  0  0  0  0  0
    4.0489   -1.0692   -0.3261 C   0  0  0  0  0  0  0  0  0  0  0  0
    4.7209    0.2776   -0.4816 C   0  0  0  0  0  0  0  0  0  0  0  0
    5.8211    0.4339   -1.3365 C   0  0  0  0  0  0  0  0  0  0  0  0
    6.4338    1.6813   -1.4857 C   0  0  0  0  0  0  0  0  0  0  0  0
    5.9462    2.7824   -0.7821 C   0  0  0  0  0  0  0  0  0  0  0  0
    6.5475    4.0026   -0.9297 O   0  0  0  0  0  0  0  0  0  0  0  0
    4.8472    2.6416    0.0693 C   0  0  0  0  0  0  0  0  0  0  0  0
    4.2140    3.9828    0.9520 Cl  0  0  0  0  0  0  0  0  0  0  0  0
    4.2377    1.3939    0.2175 C   0  0  0  0  0  0  0  0  0  0  0  0
   -0.4620   -0.5731   -0.1302 N   0  0  0  0  0  0  0  0  0  0  0  0
   -1.4011   -1.0488    0.7184 C   0  0  0  0  0  0  0  0  0  0  0  0
   -2.7440   -0.6846    0.5068 N   0  0  0  0  0  0  0  0  0  0  0  0
   -2.9390    0.4932   -0.3260 C   0  0  0  0  0  0  0  0  0  0  0  0
   -4.4113    0.8338   -0.3623 C   0  0  0  0  0  0  0  0  0  0  0  0
   -4.9176    1.9073    0.3844 C   0  0  0  0  0  0  0  0  0  0  0  0
   -6.2803    2.2096    0.3543 C   0  0  0  0  0  0  0  0  0  0  0  0
   -7.1502    1.4394   -0.4157 C   0  0  0  0  0  0  0  0  0  0  0  0
   -6.6605    0.3633   -1.1535 C   0  0  0  0  0  0  0  0  0  0  0  0
   -5.2986    0.0596   -1.1250 C   0  0  0  0  0  0  0  0  0  0  0  0
   -2.6594   -4.1515    3.6494 H   0  0  0  0  0  0  0  0  0  0  0  0
   -1.3595   -4.4640    2.5630 H   0  0  0  0  0  0  0  0  0  0  0  0
    0.6267   -3.0127    2.5313 H   0  0  0  0  0  0  0  0  0  0  0  0
    1.1674   -0.0480   -1.6434 H   0  0  0  0  0  0  0  0  0  0  0  0
    2.5627   -2.3185   -1.3006 H   0  0  0  0  0  0  0  0  0  0  0  0
    3.1353   -0.9846   -2.2823 H   0  0  0  0  0  0  0  0  0  0  0  0
    3.7686   -1.2093    0.7246 H   0  0  0  0  0  0  0  0  0  0  0  0
    4.7857   -1.8536   -0.5421 H   0  0  0  0  0  0  0  0  0  0  0  0
    6.2106   -0.4170   -1.8916 H   0  0  0  0  0  0  0  0  0  0  0  0
    7.2858    1.7734   -2.1523 H   0  0  0  0  0  0  0  0  0  0  0  0
    7.2894    3.9223   -1.5499 H   0  0  0  0  0  0  0  0  0  0  0  0
    3.3758    1.2880    0.8737 H   0  0  0  0  0  0  0  0  0  0  0  0
   -3.2226   -0.5950    1.4092 H   0  0  0  0  0  0  0  0  0  0  0  0
   -2.5971    0.3136   -1.3534 H   0  0  0  0  0  0  0  0  0  0  0  0
   -2.3748    1.3492    0.0666 H   0  0  0  0  0  0  0  0  0  0  0  0
   -4.2535    2.5134    0.9967 H   0  0  0  0  0  0  0  0  0  0  0  0
   -6.6638    3.0440    0.9358 H   0  0  0  0  0  0  0  0  0  0  0  0
   -8.2111    1.6740   -0.4355 H   0  0  0  0  0  0  0  0  0  0  0  0
   -7.3391   -0.2437   -1.7466 H   0  0  0  0  0  0  0  0  0  0  0  0
   -4.9260   -0.7905   -1.6926 H   0  0  0  0  0  0  0  0  0  0  0  0
  1  2  1  0
  2  3  2  0
  2  4  1  0
  4  5  2  0
  5  6  1  0
  6  7  2  0
  7  8  1  0
  8  9  1  0
  9 10  1  0
 10 11  1  0
 11 12  2  0
 12 13  1  0
 13 14  2  0
 14 15  1  0
 14 16  1  0
 16 17  1  0
 16 18  2  0
  7 19  1  0
 19 20  2  0
 20 21  1  0
 21 22  1  0
 22 23  1  0
 23 24  2  0
 24 25  1  0
 25 26  2  0
 26 27  1  0
 27 28  2  0
 20  4  1  0
 28 23  1  0
 18 11  1  0
  1 29  1  0
  1 30  1  0
  5 31  1  0
  8 32  1  0
  9 33  1  0
  9 34  1  0
 10 35  1  0
 10 36  1  0
 12 37  1  0
 13 38  1  0
 15 39  1  0
 18 40  1  0
 21 41  1  0
 22 42  1  0
 22 43  1  0
 24 44  1  0
 25 45  1  0
 26 46  1  0
 27 47  1  0
 28 48  1  0
M  END
$$$$
