
     RDKit          3D

 90 92  0  0  0  0  0  0  0  0999 V2000
    0.7561   -2.0905    1.1291 C   0  0  0  0  0  0  0  0  0  0  0  0
   -0.5741   -2.3752    0.8078 C   0  0  0  0  0  0  0  0  0  0  0  0
   -1.3855   -1.4105    0.1895 C   0  0  0  0  0  0  0  0  0  0  0  0
   -2.8082   -1.7775   -0.1970 C   0  0  0  0  0  0  0  0  0  0  0  0
   -3.7220   -0.6317   -0.3555 N   0  0  0  0  0  0  0  0  0  0  0  0
   -4.8803   -0.9795   -1.2112 C   0  0  0  0  0  0  0  0  0  0  0  0
   -5.7848   -2.1351   -0.7360 C   0  0  0  0  0  0  0  0  0  0  0  0
   -7.0032   -2.3259   -1.6504 C   0  0  0  0  0  0  0  0  0  0  0  0
   -7.8933   -1.1686   -1.6205 N   0  0  0  0  0  0  0  0  0  0  0  0
   -8.8494   -1.2044   -0.5038 C   0  0  0  0  0  0  0  0  0  0  0  0
   -9.3218    0.2192   -0.1242 C   0  0  0  0  0  0  0  0  0  0  0  0
   -8.3284    0.8870    0.7275 N   0  0  0  0  0  0  0  0  0  0  0  0
   -8.5942    2.3169    0.8955 C   0  0  0  0  0  0  0  0  0  0  0  0
   -7.3120    3.1564    0.7807 C   0  0  0  0  0  0  0  0  0  0  0  0
   -6.2630    2.9434    1.8849 C   0  0  0  0  0  0  0  0  0  0  0  0
   -5.6653    1.6058    1.9535 N   0  0  0  0  0  0  0  0  0  0  0  0
   -4.7115    1.3640    0.8547 C   0  0  0  0  0  0  0  0  0  0  0  0
   -4.1337   -0.0719    0.9494 C   0  0  0  0  0  0  0  0  0  0  0  0
   -0.8204   -0.1657   -0.1233 C   0  0  0  0  0  0  0  0  0  0  0  0
    0.5046    0.1259    0.2137 C   0  0  0  0  0  0  0  0  0  0  0  0
    1.3061   -0.8326    0.8465 C   0  0  0  0  0  0  0  0  0  0  0  0
    2.7404   -0.5246    1.2195 C   0  0  0  0  0  0  0  0  0  0  0  0
    3.7256   -1.2230    0.3715 N   0  0  0  0  0  0  0  0  0  0  0  0
    5.0366   -1.3128    1.0467 C   0  0  0  0  0  0  0  0  0  0  0  0
    5.6949    0.0007    1.5132 C   0  0  0  0  0  0  0  0  0  0  0  0
    7.1561   -0.2510    1.9164 C   0  0  0  0  0  0  0  0  0  0  0  0
    7.8456    0.9444    2.4078 N   0  0  0  0  0  0  0  0  0  0  0  0
    8.2227    1.9088    1.3583 C   0  0  0  0  0  0  0  0  0  0  0  0
    9.4560    1.5265    0.4920 C   0  0  0  0  0  0  0  0  0  0  0  0
    9.1454    0.6726   -0.6596 N   0  0  0  0  0  0  0  0  0  0  0  0
    8.6237    1.4346   -1.8005 C   0  0  0  0  0  0  0  0  0  0  0  0
    7.7870    0.5460   -2.7335 C   0  0  0  0  0  0  0  0  0  0  0  0
    6.6321   -0.0900   -1.9573 C   0  0  0  0  0  0  0  0  0  0  0  0
    5.6040   -0.6744   -2.8198 N   0  0  0  0  0  0  0  0  0  0  0  0
    4.6260   -1.4432   -2.0223 C   0  0  0  0  0  0  0  0  0  0  0  0
    3.7959   -0.6291   -0.9824 C   0  0  0  0  0  0  0  0  0  0  0  0
    1.3709   -2.8561    1.5994 H   0  0  0  0  0  0  0  0  0  0  0  0
   -0.9728   -3.3606    1.0376 H   0  0  0  0  0  0  0  0  0  0  0  0
   -2.7198   -2.3121   -1.1525 H   0  0  0  0  0  0  0  0  0  0  0  0
   -3.2163   -2.4861    0.5359 H   0  0  0  0  0  0  0  0  0  0  0  0
   -5.4826   -0.0826   -1.3818 H   0  0  0  0  0  0  0  0  0  0  0  0
   -4.4936   -1.2352   -2.2076 H   0  0  0  0  0  0  0  0  0  0  0  0
   -5.2113   -3.0703   -0.7303 H   0  0  0  0  0  0  0  0  0  0  0  0
   -6.1283   -1.9705    0.2890 H   0  0  0  0  0  0  0  0  0  0  0  0
   -6.6466   -2.4629   -2.6777 H   0  0  0  0  0  0  0  0  0  0  0  0
   -7.5423   -3.2439   -1.3868 H   0  0  0  0  0  0  0  0  0  0  0  0
   -8.4105   -1.1001   -2.4962 H   0  0  0  0  0  0  0  0  0  0  0  0
   -8.4306   -1.6947    0.3833 H   0  0  0  0  0  0  0  0  0  0  0  0
   -9.7187   -1.7983   -0.8100 H   0  0  0  0  0  0  0  0  0  0  0  0
   -9.5085    0.7916   -1.0421 H   0  0  0  0  0  0  0  0  0  0  0  0
  -10.2720    0.1490    0.4194 H   0  0  0  0  0  0  0  0  0  0  0  0
   -8.3470    0.4378    1.6442 H   0  0  0  0  0  0  0  0  0  0  0  0
   -9.0712    2.4888    1.8676 H   0  0  0  0  0  0  0  0  0  0  0  0
   -9.2952    2.6845    0.1359 H   0  0  0  0  0  0  0  0  0  0  0  0
   -7.6053    4.2151    0.8067 H   0  0  0  0  0  0  0  0  0  0  0  0
   -6.8627    3.0038   -0.2093 H   0  0  0  0  0  0  0  0  0  0  0  0
   -6.7445    3.1349    2.8518 H   0  0  0  0  0  0  0  0  0  0  0  0
   -5.4727    3.6979    1.7869 H   0  0  0  0  0  0  0  0  0  0  0  0
   -6.4251    0.9361    1.8029 H   0  0  0  0  0  0  0  0  0  0  0  0
   -3.8850    2.0820    0.9015 H   0  0  0  0  0  0  0  0  0  0  0  0
   -5.2153    1.5191   -0.1015 H   0  0  0  0  0  0  0  0  0  0  0  0
   -4.8400   -0.7455    1.4484 H   0  0  0  0  0  0  0  0  0  0  0  0
   -3.2737   -0.0108    1.6284 H   0  0  0  0  0  0  0  0  0  0  0  0
   -1.4144    0.5922   -0.6320 H   0  0  0  0  0  0  0  0  0  0  0  0
    0.9095    1.1042   -0.0320 H   0  0  0  0  0  0  0  0  0  0  0  0
    2.9117    0.5619    1.2179 H   0  0  0  0  0  0  0  0  0  0  0  0
    2.8570   -0.8433    2.2662 H   0  0  0  0  0  0  0  0  0  0  0  0
    5.7365   -1.8686    0.4156 H   0  0  0  0  0  0  0  0  0  0  0  0
    4.9103   -1.9569    1.9286 H   0  0  0  0  0  0  0  0  0  0  0  0
    5.1434    0.4050    2.3718 H   0  0  0  0  0  0  0  0  0  0  0  0
    5.6469    0.7574    0.7286 H   0  0  0  0  0  0  0  0  0  0  0  0
    7.7162   -0.7220    1.1032 H   0  0  0  0  0  0  0  0  0  0  0  0
    7.1516   -0.9796    2.7368 H   0  0  0  0  0  0  0  0  0  0  0  0
    8.6941    0.6475    2.8903 H   0  0  0  0  0  0  0  0  0  0  0  0
    7.3629    2.1852    0.7414 H   0  0  0  0  0  0  0  0  0  0  0  0
    8.4930    2.8296    1.8912 H   0  0  0  0  0  0  0  0  0  0  0  0
   10.1828    1.0041    1.1253 H   0  0  0  0  0  0  0  0  0  0  0  0
    9.9618    2.4401    0.1523 H   0  0  0  0  0  0  0  0  0  0  0  0
    9.9890    0.1790   -0.9560 H   0  0  0  0  0  0  0  0  0  0  0  0
    9.4549    1.8795   -2.3604 H   0  0  0  0  0  0  0  0  0  0  0  0
    7.9872    2.2635   -1.4644 H   0  0  0  0  0  0  0  0  0  0  0  0
    8.4126   -0.2335   -3.1892 H   0  0  0  0  0  0  0  0  0  0  0  0
    7.3983    1.1703   -3.5485 H   0  0  0  0  0  0  0  0  0  0  0  0
    6.1815    0.6897   -1.3388 H   0  0  0  0  0  0  0  0  0  0  0  0
    7.0415   -0.8651   -1.2982 H   0  0  0  0  0  0  0  0  0  0  0  0
    5.1211    0.0694   -3.3210 H   0  0  0  0  0  0  0  0  0  0  0  0
    5.1316   -2.3011   -1.5666 H   0  0  0  0  0  0  0  0  0  0  0  0
    3.9198   -1.8938   -2.7316 H   0  0  0  0  0  0  0  0  0  0  0  0
    4.1280    0.4122   -0.9234 H   0  0  0  0  0  0  0  0  0  0  0  0
    2.7844   -0.5725   -1.4048 H   0  0  0  0  0  0  0  0  0  0  0  0
  1  2  2  0
  2  3  1  0
  3  4  1  0
  4  5  1  0
  5  6  1  0
  6  7  1  0
  7  8  1  0
  8  9  1  0
  9 10  1  0
 10 11  1  0
 11 12  1  0
 12 13  1  0
 13 14  1  0
 14 15  1  0
 15 16  1  0
 16 17  1  0
 17 18  1  0
  3 19  2  0
 19 20  1  0
 20 21  2  0
 21 22  1  0
 22 23  1  0
 23 24  1  0
 24 25  1  0
 25 26  1  0
 26 27  1  0
 27 28  1  0
 28 29  1  0
 29 30  1  0
 30 31  1  0
 31 32  1  0
 32 33  1  0
 33 34  1  0
 34 35  1  0
 35 36  1  0
 21  1  1  0
 36 23  1  0
 18  5  1  0
  1 37  1  0
  2 38  1  0
  4 39  1  0
  4 40  1  0
  6 41  1  0
  6 42  1  0
  7 43  1  0
  7 44  1  0
  8 45  1  0
  8 46  1  0
  9 47  1  0
 10 48  1  0
 10 49  1  0
 11 50  1  0
 11 51  1  0
 12 52  1  0
 13 53  1  0
 13 54  1  0
 14 55  1  0
 14 56  1  0
 15 57  1  0
 15 58  1  0
 16 59  1  0
 17 60  1  0
 17 61  1  0
 18 62  1  0
 18 63  1  0
 19 64  1  0
 20 65  1  0
 22 66  1  0
 22 67  1  0
 24 68  1  0
 24 69  1  0
 25 70  1  0
 25 71  1  0
 26 72  1  0
 26 73  1  0
 27 74  1  0
 28 75  1  0
 28 76  1  0
 29 77  1  0
 29 78  1  0
 30 79  1  0
 31 80  1  0
 31 81  1  0
 32 82  1  0
 32 83  1  0
 33 84  1  0
 33 85  1  0
 34 86  1  0
 35 87  1  0
 35 88  1  0
 36 89  1  0
 36 90  1  0
M  END
$$$$
