
     RDKit          3D

 34 36  0  0  0  0  0  0  0  0999 V2000
    6.1560   -0.4969   -0.9960 C   0  0  0  0  0  0  0  0  0  0  0  0
    5.3136   -0.5495    0.1460 O   0  0  0  0  0  0  0  0  0  0  0  0
    3.9791   -0.3070   -0.0407 C   0  0  0  0  0  0  0  0  0  0  0  0
    3.3796   -0.0167   -1.2671 C   0  0  0  0  0  0  0  0  0  0  0  0
    1.9997    0.2164   -1.3454 C   0  0  0  0  0  0  0  0  0  0  0  0
    1.1928    0.1698   -0.1991 C   0  0  0  0  0  0  0  0  0  0  0  0
   -0.2630    0.4036   -0.2692 C   0  0  0  0  0  0  0  0  0  0  0  0
   -0.7822    1.4002   -1.0013 C   0  0  0  0  0  0  0  0  0  0  0  0
   -2.2400    1.5854   -1.0207 C   0  0  0  0  0  0  0  0  0  0  0  0
   -2.7670    2.4759   -1.6784 O   0  0  0  0  0  0  0  0  0  0  0  0
   -3.0431    0.6564   -0.2182 C   0  0  0  0  0  0  0  0  0  0  0  0
   -4.4384    0.7452   -0.1674 C   0  0  0  0  0  0  0  0  0  0  0  0
   -5.1505    1.6920   -0.8534 O   0  0  0  0  0  0  0  0  0  0  0  0
   -5.1709   -0.1526    0.6057 C   0  0  0  0  0  0  0  0  0  0  0  0
   -4.4965   -1.1362    1.3246 C   0  0  0  0  0  0  0  0  0  0  0  0
   -5.1698   -2.0370    2.0955 O   0  0  0  0  0  0  0  0  0  0  0  0
   -3.1082   -1.2339    1.2814 C   0  0  0  0  0  0  0  0  0  0  0  0
   -2.3803   -0.3321    0.5059 C   0  0  0  0  0  0  0  0  0  0  0  0
   -1.0148   -0.4718    0.5002 O   0  0  0  0  0  0  0  0  0  0  0  0
    1.7950   -0.1330    1.0297 C   0  0  0  0  0  0  0  0  0  0  0  0
    3.1712   -0.3644    1.1024 C   0  0  0  0  0  0  0  0  0  0  0  0
    3.7472   -0.6530    2.3120 O   0  0  0  0  0  0  0  0  0  0  0  0
    5.8766   -1.2613   -1.7285 H   0  0  0  0  0  0  0  0  0  0  0  0
    7.1782   -0.7091   -0.6681 H   0  0  0  0  0  0  0  0  0  0  0  0
    6.1516    0.5019   -1.4448 H   0  0  0  0  0  0  0  0  0  0  0  0
    3.9548    0.0315   -2.1858 H   0  0  0  0  0  0  0  0  0  0  0  0
    1.5655    0.4217   -2.3219 H   0  0  0  0  0  0  0  0  0  0  0  0
   -0.1938    2.0983   -1.5824 H   0  0  0  0  0  0  0  0  0  0  0  0
   -4.5143    2.2542   -1.3517 H   0  0  0  0  0  0  0  0  0  0  0  0
   -6.2528   -0.0695    0.6340 H   0  0  0  0  0  0  0  0  0  0  0  0
   -6.1232   -1.8576    2.0286 H   0  0  0  0  0  0  0  0  0  0  0  0
   -2.6007   -2.0094    1.8483 H   0  0  0  0  0  0  0  0  0  0  0  0
    1.1876   -0.1801    1.9295 H   0  0  0  0  0  0  0  0  0  0  0  0
    3.0609   -0.6815    2.9961 H   0  0  0  0  0  0  0  0  0  0  0  0
  1  2  1  0
  2  3  1  0
  3  4  2  0
  4  5  1  0
  5  6  2  0
  6  7  1  0
  7  8  2  0
  8  9  1  0
  9 10  2  0
  9 11  1  0
 11 12  2  0
 12 13  1  0
 12 14  1  0
 14 15  2  0
 15 16  1  0
 15 17  1  0
 17 18  2  0
 18 19  1  0
  6 20  1  0
 20 21  2  0
 21 22  1  0
 21  3  1  0
 19  7  1  0
 18 11  1  0
  1 23  1  0
  1 24  1  0
  1 25  1  0
  4 26  1  0
  5 27  1  0
  8 28  1  0
 13 29  1  0
 14 30  1  0
 16 31  1  0
 17 32  1  0
 20 33  1  0
 22 34  1  0
M  END
$$$$
