
     RDKit          3D

 40 43  0  0  0  0  0  0  0  0999 V2000
    0.9040    1.0449   -3.6136 N   0  0  0  0  0  0  0  0  0  0  0  0
    1.3492    0.7545   -2.5821 C   0  0  0  0  0  0  0  0  0  0  0  0
    1.8618    0.3779   -1.2986 C   0  0  0  0  0  0  0  0  0  0  0  0
    1.0725   -0.1743   -0.3035 C   0  0  0  0  0  0  0  0  0  0  0  0
   -0.2876   -0.4513   -0.3696 N   0  0  0  0  0  0  0  0  0  0  0  0
   -1.0766   -0.9798    0.6367 C   0  0  0  0  0  0  0  0  0  0  0  0
   -0.7608   -1.2985    1.7734 O   0  0  0  0  0  0  0  0  0  0  0  0
   -2.4918   -1.1551    0.2236 C   0  0  0  0  0  0  0  0  0  0  0  0
   -2.7522   -2.0712   -0.8069 C   0  0  0  0  0  0  0  0  0  0  0  0
   -4.0555   -2.2586   -1.2504 C   0  0  0  0  0  0  0  0  0  0  0  0
   -5.0954   -1.5343   -0.6679 C   0  0  0  0  0  0  0  0  0  0  0  0
   -4.8532   -0.6170    0.3695 C   0  0  0  0  0  0  0  0  0  0  0  0
   -5.9152    0.1027    0.9417 C   0  0  0  0  0  0  0  0  0  0  0  0
   -5.6916    1.0178    1.9699 C   0  0  0  0  0  0  0  0  0  0  0  0
   -4.4021    1.2254    2.4419 C   0  0  0  0  0  0  0  0  0  0  0  0
   -3.3349    0.5189    1.8844 C   0  0  0  0  0  0  0  0  0  0  0  0
   -3.5324   -0.4153    0.8398 C   0  0  0  0  0  0  0  0  0  0  0  0
    1.9835   -0.5084    1.0955 S   0  0  0  0  0  0  0  0  0  0  0  0
    3.4140    0.0831    0.3997 C   0  0  0  0  0  0  0  0  0  0  0  0
    3.2299    0.5257   -0.8956 C   0  0  0  0  0  0  0  0  0  0  0  0
    4.3589    1.1027   -1.7014 C   0  0  0  0  0  0  0  0  0  0  0  0
    5.7286    0.7639   -1.0915 C   0  0  0  0  0  0  0  0  0  0  0  0
    5.7411    0.9740    0.4294 C   0  0  0  0  0  0  0  0  0  0  0  0
    4.7178    0.0720    1.1365 C   0  0  0  0  0  0  0  0  0  0  0  0
   -0.7574   -0.2085   -1.2354 H   0  0  0  0  0  0  0  0  0  0  0  0
   -1.9451   -2.6498   -1.2505 H   0  0  0  0  0  0  0  0  0  0  0  0
   -4.2673   -2.9710   -2.0440 H   0  0  0  0  0  0  0  0  0  0  0  0
   -6.1098   -1.6963   -1.0292 H   0  0  0  0  0  0  0  0  0  0  0  0
   -6.9340   -0.0459    0.5893 H   0  0  0  0  0  0  0  0  0  0  0  0
   -6.5252    1.5640    2.4035 H   0  0  0  0  0  0  0  0  0  0  0  0
   -4.2218    1.9318    3.2483 H   0  0  0  0  0  0  0  0  0  0  0  0
   -2.3387    0.6975    2.2872 H   0  0  0  0  0  0  0  0  0  0  0  0
    4.2380    2.1925   -1.7373 H   0  0  0  0  0  0  0  0  0  0  0  0
    4.3223    0.7335   -2.7325 H   0  0  0  0  0  0  0  0  0  0  0  0
    6.5006    1.3834   -1.5617 H   0  0  0  0  0  0  0  0  0  0  0  0
    5.9793   -0.2820   -1.3105 H   0  0  0  0  0  0  0  0  0  0  0  0
    5.5157    2.0261    0.6469 H   0  0  0  0  0  0  0  0  0  0  0  0
    6.7419    0.7725    0.8276 H   0  0  0  0  0  0  0  0  0  0  0  0
    5.0999   -0.9559    1.1659 H   0  0  0  0  0  0  0  0  0  0  0  0
    4.5898    0.4085    2.1716 H   0  0  0  0  0  0  0  0  0  0  0  0
  1  2  3  0
  2  3  1  0
  3  4  2  0
  4  5  1  0
  5  6  1  0
  6  7  2  0
  6  8  1  0
  8  9  2  0
  9 10  1  0
 10 11  2  0
 11 12  1  0
 12 13  2  0
 13 14  1  0
 14 15  2  0
 15 16  1  0
 16 17  2  0
  4 18  1  0
 18 19  1  0
 19 20  2  0
 20 21  1  0
 21 22  1  0
 22 23  1  0
 23 24  1  0
 20  3  1  0
 17  8  1  0
 24 19  1  0
 17 12  1  0
  5 25  1  0
  9 26  1  0
 10 27  1  0
 11 28  1  0
 13 29  1  0
 14 30  1  0
 15 31  1  0
 16 32  1  0
 21 33  1  0
 21 34  1  0
 22 35  1  0
 22 36  1  0
 23 37  1  0
 23 38  1  0
 24 39  1  0
 24 40  1  0
M  END
$$$$
