
     RDKit          3D

 33 35  0  0  0  0  0  0  0  0999 V2000
    5.9852    0.2416    0.4032 C   0  0  0  0  0  0  0  0  0  0  0  0
    5.2717   -0.5153   -0.5676 O   0  0  0  0  0  0  0  0  0  0  0  0
    3.9067   -0.4747   -0.5062 C   0  0  0  0  0  0  0  0  0  0  0  0
    3.2563   -1.2368   -1.4793 C   0  0  0  0  0  0  0  0  0  0  0  0
    1.8592   -1.2851   -1.5321 C   0  0  0  0  0  0  0  0  0  0  0  0
    1.2709   -2.0428   -2.5041 O   0  0  0  0  0  0  0  0  0  0  0  0
    1.0896   -0.5690   -0.6072 C   0  0  0  0  0  0  0  0  0  0  0  0
   -0.3968   -0.5764   -0.6024 C   0  0  0  0  0  0  0  0  0  0  0  0
   -1.0584   -1.2098   -1.4158 O   0  0  0  0  0  0  0  0  0  0  0  0
   -1.0661    0.2364    0.4586 C   0  0  0  0  0  0  0  0  0  0  0  0
   -2.5352    0.3352    0.5742 C   0  0  0  0  0  0  0  0  0  0  0  0
   -3.1783    0.1428    1.8082 C   0  0  0  0  0  0  0  0  0  0  0  0
   -4.5677    0.2486    1.9121 C   0  0  0  0  0  0  0  0  0  0  0  0
   -5.3223    0.5395    0.7834 C   0  0  0  0  0  0  0  0  0  0  0  0
   -6.6747    0.6293    0.9282 O   0  0  0  0  0  0  0  0  0  0  0  0
   -4.7115    0.7266   -0.4509 C   0  0  0  0  0  0  0  0  0  0  0  0
   -3.3208    0.6239   -0.5523 C   0  0  0  0  0  0  0  0  0  0  0  0
   -0.2769    0.9162    1.3025 C   0  0  0  0  0  0  0  0  0  0  0  0
    1.0925    0.9330    1.3117 O   0  0  0  0  0  0  0  0  0  0  0  0
    1.7490    0.1911    0.3614 C   0  0  0  0  0  0  0  0  0  0  0  0
    3.1479    0.2410    0.4158 C   0  0  0  0  0  0  0  0  0  0  0  0
    5.7728   -0.1161    1.4161 H   0  0  0  0  0  0  0  0  0  0  0  0
    5.7680    1.3106    0.3070 H   0  0  0  0  0  0  0  0  0  0  0  0
    7.0542    0.1007    0.2172 H   0  0  0  0  0  0  0  0  0  0  0  0
    3.8586   -1.7905   -2.1951 H   0  0  0  0  0  0  0  0  0  0  0  0
    1.9444   -2.4861   -3.0436 H   0  0  0  0  0  0  0  0  0  0  0  0
   -2.6074   -0.1046    2.7002 H   0  0  0  0  0  0  0  0  0  0  0  0
   -5.0587    0.0956    2.8689 H   0  0  0  0  0  0  0  0  0  0  0  0
   -7.0676    0.7841    0.0534 H   0  0  0  0  0  0  0  0  0  0  0  0
   -5.2912    0.9456   -1.3418 H   0  0  0  0  0  0  0  0  0  0  0  0
   -2.8540    0.7614   -1.5264 H   0  0  0  0  0  0  0  0  0  0  0  0
   -0.6487    1.5567    2.0938 H   0  0  0  0  0  0  0  0  0  0  0  0
    3.6094    0.8472    1.1884 H   0  0  0  0  0  0  0  0  0  0  0  0
  1  2  1  0
  2  3  1  0
  3  4  2  0
  4  5  1  0
  5  6  1  0
  5  7  2  0
  7  8  1  0
  8  9  2  0
  8 10  1  0
 10 11  1  0
 11 12  2  0
 12 13  1  0
 13 14  2  0
 14 15  1  0
 14 16  1  0
 16 17  2  0
 10 18  2  0
 18 19  1  0
 19 20  1  0
 20 21  2  0
 21  3  1  0
 20  7  1  0
 17 11  1  0
  1 22  1  0
  1 23  1  0
  1 24  1  0
  4 25  1  0
  6 26  1  0
 12 27  1  0
 13 28  1  0
 15 29  1  0
 16 30  1  0
 17 31  1  0
 18 32  1  0
 21 33  1  0
M  END
$$$$
