
     RDKit          3D

 51 55  0  0  0  0  0  0  0  0999 V2000
    7.5610    1.6330   -0.3463 C   0  0  0  0  0  0  0  0  0  0  0  0
    6.3764    1.8254    0.4165 O   0  0  0  0  0  0  0  0  0  0  0  0
    5.3925    0.8816    0.2825 C   0  0  0  0  0  0  0  0  0  0  0  0
    5.4566   -0.2587   -0.5162 C   0  0  0  0  0  0  0  0  0  0  0  0
    4.3856   -1.1632   -0.5785 C   0  0  0  0  0  0  0  0  0  0  0  0
    3.2428   -0.8920    0.1892 C   0  0  0  0  0  0  0  0  0  0  0  0
    3.1524    0.2455    0.9942 C   0  0  0  0  0  0  0  0  0  0  0  0
    4.2428    1.1362    1.0415 C   0  0  0  0  0  0  0  0  0  0  0  0
    1.8779    0.2196    1.6187 C   0  0  0  0  0  0  0  0  0  0  0  0
    1.1973   -0.8975    1.1681 C   0  0  0  0  0  0  0  0  0  0  0  0
   -0.1414   -1.3169    1.5131 C   0  0  0  0  0  0  0  0  0  0  0  0
   -0.3719   -1.9296    2.5537 O   0  0  0  0  0  0  0  0  0  0  0  0
   -1.1564   -1.0141    0.5914 N   0  0  0  0  0  0  0  0  0  0  0  0
   -2.5218   -1.2993    1.0369 C   0  0  0  0  0  0  0  0  0  0  0  0
   -3.6064   -1.1087   -0.0417 C   0  0  2  0  0  0  0  0  0  0  0  0
   -2.9843   -1.3069   -1.4198 C   0  0  0  0  0  0  0  0  0  0  0  0
   -2.0101   -0.1531   -1.6287 C   0  0  2  0  0  0  0  0  0  0  0  0
   -0.9727   -0.0440   -0.4926 C   0  0  0  0  0  0  0  0  0  0  0  0
   -2.8236    1.1392   -1.7392 C   0  0  0  0  0  0  0  0  0  0  0  0
   -3.8209    1.3284   -0.6882 N   0  0  0  0  0  0  0  0  0  0  0  0
   -4.2705    0.2567    0.0896 C   0  0  0  0  0  0  0  0  0  0  0  0
   -5.2862    0.4419    0.9530 C   0  0  0  0  0  0  0  0  0  0  0  0
   -5.9032    1.7326    1.1084 C   0  0  0  0  0  0  0  0  0  0  0  0
   -5.4943    2.7732    0.3757 C   0  0  0  0  0  0  0  0  0  0  0  0
   -4.4076    2.5985   -0.6209 C   0  0  0  0  0  0  0  0  0  0  0  0
   -4.0881    3.5520   -1.3279 O   0  0  0  0  0  0  0  0  0  0  0  0
    2.0611   -1.5905    0.3460 N   0  0  0  0  0  0  0  0  0  0  0  0
    1.7728   -2.8681   -0.2723 C   0  0  0  0  0  0  0  0  0  0  0  0
    7.3473    1.6699   -1.4207 H   0  0  0  0  0  0  0  0  0  0  0  0
    8.0621    0.6974   -0.0739 H   0  0  0  0  0  0  0  0  0  0  0  0
    8.2459    2.4548   -0.1133 H   0  0  0  0  0  0  0  0  0  0  0  0
    6.3336   -0.4832   -1.1147 H   0  0  0  0  0  0  0  0  0  0  0  0
    4.4535   -2.0482   -1.2035 H   0  0  0  0  0  0  0  0  0  0  0  0
    4.1927    2.0253    1.6646 H   0  0  0  0  0  0  0  0  0  0  0  0
    1.4862    0.9519    2.3137 H   0  0  0  0  0  0  0  0  0  0  0  0
   -2.7217   -0.6944    1.9307 H   0  0  0  0  0  0  0  0  0  0  0  0
   -2.5377   -2.3476    1.3627 H   0  0  0  0  0  0  0  0  0  0  0  0
   -4.3760   -1.8786    0.1058 H   0  0  0  0  0  0  0  0  0  0  0  0
   -2.4638   -2.2711   -1.4790 H   0  0  0  0  0  0  0  0  0  0  0  0
   -3.7562   -1.3129   -2.2005 H   0  0  0  0  0  0  0  0  0  0  0  0
   -1.4743   -0.2945   -2.5760 H   0  0  0  0  0  0  0  0  0  0  0  0
   -0.9671    0.9533   -0.0341 H   0  0  0  0  0  0  0  0  0  0  0  0
    0.0192   -0.1825   -0.9360 H   0  0  0  0  0  0  0  0  0  0  0  0
   -3.3733    1.1433   -2.6909 H   0  0  0  0  0  0  0  0  0  0  0  0
   -2.1558    2.0102   -1.7661 H   0  0  0  0  0  0  0  0  0  0  0  0
   -5.6598   -0.3684    1.5733 H   0  0  0  0  0  0  0  0  0  0  0  0
   -6.6999    1.8424    1.8368 H   0  0  0  0  0  0  0  0  0  0  0  0
   -5.9280    3.7612    0.4585 H   0  0  0  0  0  0  0  0  0  0  0  0
    0.9818   -3.3806    0.2800 H   0  0  0  0  0  0  0  0  0  0  0  0
    2.6741   -3.4872   -0.2509 H   0  0  0  0  0  0  0  0  0  0  0  0
    1.4572   -2.6816   -1.3025 H   0  0  0  0  0  0  0  0  0  0  0  0
  1  2  1  0
  2  3  1  0
  3  4  1  0
  4  5  2  0
  5  6  1  0
  6  7  2  0
  7  8  1  0
  7  9  1  0
  9 10  2  0
 10 11  1  0
 11 12  2  0
 11 13  1  0
 13 14  1  0
 14 15  1  0
 15 16  1  0
 16 17  1  0
 17 18  1  0
 17 19  1  0
 19 20  1  0
 20 21  1  0
 21 22  2  0
 22 23  1  0
 23 24  2  0
 24 25  1  0
 25 26  2  0
 10 27  1  0
 27 28  1  0
  8  3  2  0
 18 13  1  0
 25 20  1  0
 27  6  1  0
 21 15  1  0
  1 29  1  0
  1 30  1  0
  1 31  1  0
  4 32  1  0
  5 33  1  0
  8 34  1  0
  9 35  1  0
 14 36  1  0
 14 37  1  0
 15 38  1  1
 16 39  1  0
 16 40  1  0
 17 41  1  6
 18 42  1  0
 18 43  1  0
 19 44  1  0
 19 45  1  0
 22 46  1  0
 23 47  1  0
 24 48  1  0
 28 49  1  0
 28 50  1  0
 28 51  1  0
M  END
$$$$
