
     RDKit          3D

 57 60  0  0  0  0  0  0  0  0999 V2000
    9.7974   -0.7355    0.1074 N   0  0  0  0  0  0  0  0  0  0  0  0
    8.4989   -0.3212   -0.2142 C   0  0  0  0  0  0  0  0  0  0  0  0
    7.3913   -1.0472    0.2416 C   0  0  0  0  0  0  0  0  0  0  0  0
    6.0936   -0.7201   -0.1754 C   0  0  0  0  0  0  0  0  0  0  0  0
    5.8975    0.3270   -1.0777 C   0  0  0  0  0  0  0  0  0  0  0  0
    4.6688    0.7054   -1.5790 O   0  0  0  0  0  0  0  0  0  0  0  0
    3.5692    0.5068   -0.7813 C   0  0  0  0  0  0  0  0  0  0  0  0
    3.4059    1.1903    0.4223 C   0  0  0  0  0  0  0  0  0  0  0  0
    2.2532    0.9885    1.1904 C   0  0  0  0  0  0  0  0  0  0  0  0
    1.2400    0.1095    0.7606 C   0  0  0  0  0  0  0  0  0  0  0  0
   -0.0534   -0.1636    1.5882 C   0  0  0  0  0  0  0  0  0  0  0  0
   -1.3081    0.0350    0.6828 C   0  0  0  0  0  0  0  0  0  0  0  0
   -2.2582   -0.9797    0.4619 C   0  0  0  0  0  0  0  0  0  0  0  0
   -3.3670   -0.7645   -0.3648 C   0  0  0  0  0  0  0  0  0  0  0  0
   -3.5607    0.4760   -0.9713 C   0  0  0  0  0  0  0  0  0  0  0  0
   -4.6156    0.7466   -1.8137 O   0  0  0  0  0  0  0  0  0  0  0  0
   -5.8587    0.2933   -1.4380 C   0  0  0  0  0  0  0  0  0  0  0  0
   -6.3866    0.5152   -0.1665 C   0  0  0  0  0  0  0  0  0  0  0  0
   -7.6682    0.0514    0.1445 C   0  0  0  0  0  0  0  0  0  0  0  0
   -8.4183   -0.6591   -0.7986 C   0  0  0  0  0  0  0  0  0  0  0  0
   -9.7444   -1.0110   -0.5195 N   0  0  0  0  0  0  0  0  0  0  0  0
   -7.9076   -0.8057   -2.0935 C   0  0  0  0  0  0  0  0  0  0  0  0
   -6.6276   -0.3433   -2.4106 C   0  0  0  0  0  0  0  0  0  0  0  0
   -2.6222    1.4871   -0.7900 C   0  0  0  0  0  0  0  0  0  0  0  0
   -1.5106    1.2719    0.0306 C   0  0  0  0  0  0  0  0  0  0  0  0
    0.0770   -1.5641    2.2068 C   0  0  0  0  0  0  0  0  0  0  0  0
   -0.9655   -1.8884    3.0059 F   0  0  0  0  0  0  0  0  0  0  0  0
    1.1976   -1.7019    2.9551 F   0  0  0  0  0  0  0  0  0  0  0  0
    0.1393   -2.5359    1.2579 F   0  0  0  0  0  0  0  0  0  0  0  0
   -0.2239    0.7219    2.8325 C   0  0  0  0  0  0  0  0  0  0  0  0
   -1.3889    0.4874    3.4813 F   0  0  0  0  0  0  0  0  0  0  0  0
    0.7654    0.5581    3.7424 F   0  0  0  0  0  0  0  0  0  0  0  0
   -0.2258    2.0439    2.5191 F   0  0  0  0  0  0  0  0  0  0  0  0
    1.4271   -0.5532   -0.4749 C   0  0  0  0  0  0  0  0  0  0  0  0
    2.5746   -0.3470   -1.2434 C   0  0  0  0  0  0  0  0  0  0  0  0
    7.0038    1.0095   -1.5918 C   0  0  0  0  0  0  0  0  0  0  0  0
    8.2972    0.6740   -1.1750 C   0  0  0  0  0  0  0  0  0  0  0  0
    9.8665   -1.2275    0.9931 H   0  0  0  0  0  0  0  0  0  0  0  0
   10.5024   -0.0093    0.0069 H   0  0  0  0  0  0  0  0  0  0  0  0
    7.5274   -1.8820    0.9232 H   0  0  0  0  0  0  0  0  0  0  0  0
    5.2572   -1.3082    0.1967 H   0  0  0  0  0  0  0  0  0  0  0  0
    4.1725    1.8795    0.7684 H   0  0  0  0  0  0  0  0  0  0  0  0
    2.1851    1.5384    2.1268 H   0  0  0  0  0  0  0  0  0  0  0  0
   -2.1711   -1.9665    0.9142 H   0  0  0  0  0  0  0  0  0  0  0  0
   -4.0720   -1.5767   -0.5307 H   0  0  0  0  0  0  0  0  0  0  0  0
   -5.8199    1.0729    0.5769 H   0  0  0  0  0  0  0  0  0  0  0  0
   -8.0777    0.2510    1.1309 H   0  0  0  0  0  0  0  0  0  0  0  0
   -9.9312   -1.1652    0.4676 H   0  0  0  0  0  0  0  0  0  0  0  0
  -10.1053   -1.7584   -1.1051 H   0  0  0  0  0  0  0  0  0  0  0  0
   -8.5060   -1.2817   -2.8668 H   0  0  0  0  0  0  0  0  0  0  0  0
   -6.2404   -0.4628   -3.4176 H   0  0  0  0  0  0  0  0  0  0  0  0
   -2.7552    2.4458   -1.2853 H   0  0  0  0  0  0  0  0  0  0  0  0
   -0.7973    2.0888    0.1453 H   0  0  0  0  0  0  0  0  0  0  0  0
    0.6736   -1.2402   -0.8629 H   0  0  0  0  0  0  0  0  0  0  0  0
    2.6952   -0.8615   -2.1956 H   0  0  0  0  0  0  0  0  0  0  0  0
    6.8624    1.7946   -2.3296 H   0  0  0  0  0  0  0  0  0  0  0  0
    9.1472    1.1975   -1.6085 H   0  0  0  0  0  0  0  0  0  0  0  0
  1  2  1  0
  2  3  2  0
  3  4  1  0
  4  5  2  0
  5  6  1  0
  6  7  1  0
  7  8  2  0
  8  9  1  0
  9 10  2  0
 10 11  1  0
 11 12  1  0
 12 13  2  0
 13 14  1  0
 14 15  2  0
 15 16  1  0
 16 17  1  0
 17 18  2  0
 18 19  1  0
 19 20  2  0
 20 21  1  0
 20 22  1  0
 22 23  2  0
 15 24  1  0
 24 25  2  0
 11 26  1  0
 26 27  1  0
 26 28  1  0
 26 29  1  0
 11 30  1  0
 30 31  1  0
 30 32  1  0
 30 33  1  0
 10 34  1  0
 34 35  2  0
  5 36  1  0
 36 37  2  0
 37  2  1  0
 35  7  1  0
 25 12  1  0
 23 17  1  0
  1 38  1  0
  1 39  1  0
  3 40  1  0
  4 41  1  0
  8 42  1  0
  9 43  1  0
 13 44  1  0
 14 45  1  0
 18 46  1  0
 19 47  1  0
 21 48  1  0
 21 49  1  0
 22 50  1  0
 23 51  1  0
 24 52  1  0
 25 53  1  0
 34 54  1  0
 35 55  1  0
 36 56  1  0
 37 57  1  0
M  END
$$$$
