
     RDKit          3D

 31 33  0  0  0  0  0  0  0  0999 V2000
    5.1437    0.0536   -0.0682 N   0  0  0  0  0  0  0  0  0  0  0  0
    3.8026   -0.3019   -0.0099 C   0  0  0  0  0  0  0  0  0  0  0  0
    3.4922   -1.6135    0.0586 N   0  0  0  0  0  0  0  0  0  0  0  0
    2.1867   -1.9428    0.1028 C   0  0  0  0  0  0  0  0  0  0  0  0
    1.8517   -3.6203    0.1816 Cl  0  0  0  0  0  0  0  0  0  0  0  0
    1.1031   -1.1442    0.1064 N   0  0  0  0  0  0  0  0  0  0  0  0
    1.4657    0.1476    0.0551 C   0  0  0  0  0  0  0  0  0  0  0  0
    2.7600    0.6429   -0.0026 C   0  0  0  0  0  0  0  0  0  0  0  0
    2.7584    2.0214   -0.0329 N   0  0  0  0  0  0  0  0  0  0  0  0
    1.4859    2.3554   -0.0042 C   0  0  0  0  0  0  0  0  0  0  0  0
    0.6640    1.2572    0.0443 N   0  0  0  0  0  0  0  0  0  0  0  0
   -0.7807    1.3137    0.0679 C   0  0  2  0  0  0  0  0  0  0  0  0
   -1.3002    0.4125    1.0675 O   0  0  0  0  0  0  0  0  0  0  0  0
   -2.4670   -0.2299    0.5107 C   0  0  2  0  0  0  0  0  0  0  0  0
   -2.1787   -1.7167    0.2888 C   0  0  0  0  0  0  0  0  0  0  0  0
   -3.3677   -2.3814   -0.1263 O   0  0  0  0  0  0  0  0  0  0  0  0
   -2.8128    0.5066   -0.7889 C   0  0  1  0  0  0  0  0  0  0  0  0
   -3.6472    1.6429   -0.5223 O   0  0  0  0  0  0  0  0  0  0  0  0
   -1.4640    1.0017   -1.2564 C   0  0  2  0  0  0  0  0  0  0  0  0
   -0.8333    0.0046   -1.9289 F   0  0  0  0  0  0  0  0  0  0  0  0
    5.3266    1.0109    0.2118 H   0  0  0  0  0  0  0  0  0  0  0  0
    5.7562   -0.6690    0.2864 H   0  0  0  0  0  0  0  0  0  0  0  0
    1.1074    3.3704   -0.0159 H   0  0  0  0  0  0  0  0  0  0  0  0
   -1.0644    2.3196    0.4029 H   0  0  0  0  0  0  0  0  0  0  0  0
   -3.2816   -0.1243    1.2366 H   0  0  0  0  0  0  0  0  0  0  0  0
   -1.8229   -2.1751    1.2177 H   0  0  0  0  0  0  0  0  0  0  0  0
   -1.4097   -1.8731   -0.4724 H   0  0  0  0  0  0  0  0  0  0  0  0
   -3.1338   -3.3216   -0.2326 H   0  0  0  0  0  0  0  0  0  0  0  0
   -3.3172   -0.1205   -1.5295 H   0  0  0  0  0  0  0  0  0  0  0  0
   -4.5166    1.2958   -0.2462 H   0  0  0  0  0  0  0  0  0  0  0  0
   -1.5062    1.8771   -1.9112 H   0  0  0  0  0  0  0  0  0  0  0  0
  1  2  1  0
  2  3  2  0
  3  4  1  0
  4  5  1  0
  4  6  2  0
  6  7  1  0
  7  8  2  0
  8  9  1  0
  9 10  2  0
 10 11  1  0
 11 12  1  0
 12 13  1  0
 13 14  1  0
 14 15  1  0
 15 16  1  0
 14 17  1  0
 17 18  1  0
 17 19  1  0
 19 20  1  0
  8  2  1  0
 19 12  1  0
 11  7  1  0
  1 21  1  0
  1 22  1  0
 10 23  1  0
 12 24  1  1
 14 25  1  1
 15 26  1  0
 15 27  1  0
 16 28  1  0
 17 29  1  6
 18 30  1  0
 19 31  1  6
M  END
$$$$
