
     RDKit          3D

 63 69  0  0  0  0  0  0  0  0999 V2000
   -2.0955    2.8622   -3.4564 O   0  0  0  0  0  0  0  0  0  0  0  0
   -2.6668    3.1962   -2.4342 C   0  0  0  0  0  0  0  0  0  0  0  0
   -3.5148    4.2381   -2.3129 N   0  0  0  0  0  0  0  0  0  0  0  0
   -3.9848    4.3292   -1.0543 C   0  0  0  0  0  0  0  0  0  0  0  0
   -4.7506    5.1729   -0.6280 O   0  0  0  0  0  0  0  0  0  0  0  0
   -3.3984    3.2091   -0.2879 C   0  0  0  0  0  0  0  0  0  0  0  0
   -3.6536    2.9780    1.0798 C   0  0  0  0  0  0  0  0  0  0  0  0
   -3.5771    3.8080    2.1827 C   0  0  0  0  0  0  0  0  0  0  0  0
   -3.8692    3.1411    3.3401 N   0  0  0  0  0  0  0  0  0  0  0  0
   -4.1845    1.9208    2.9659 C   0  0  0  0  0  0  0  0  0  0  0  0
   -4.5913    0.7930    3.7338 C   0  0  0  0  0  0  0  0  0  0  0  0
   -4.9324   -0.3529    3.1153 C   0  0  0  0  0  0  0  0  0  0  0  0
   -4.9016   -0.4689    1.6679 C   0  0  0  0  0  0  0  0  0  0  0  0
   -4.4994    0.5841    0.9365 C   0  0  0  0  0  0  0  0  0  0  0  0
   -4.1183    1.7691    1.5782 N   0  0  0  0  0  0  0  0  0  0  0  0
   -2.5655    2.5411   -1.1028 C   0  0  0  0  0  0  0  0  0  0  0  0
   -1.7233    1.4216   -0.8536 C   0  0  0  0  0  0  0  0  0  0  0  0
   -1.7051    0.2918   -1.6341 C   0  0  0  0  0  0  0  0  0  0  0  0
   -0.7973   -0.5925   -1.1019 N   0  0  0  0  0  0  0  0  0  0  0  0
   -0.2181   -0.0591    0.0398 C   0  0  0  0  0  0  0  0  0  0  0  0
    0.7425   -0.5765    0.9521 C   0  0  0  0  0  0  0  0  0  0  0  0
    1.1303    0.2763    2.0086 C   0  0  0  0  0  0  0  0  0  0  0  0
    0.6210    1.5554    2.1381 C   0  0  0  0  0  0  0  0  0  0  0  0
    1.0419    2.3298    3.1467 F   0  0  0  0  0  0  0  0  0  0  0  0
   -0.3195    2.0484    1.2475 C   0  0  0  0  0  0  0  0  0  0  0  0
   -0.7681    1.2305    0.1898 C   0  0  0  0  0  0  0  0  0  0  0  0
    1.3305   -1.9725    0.9567 C   0  0  0  0  0  0  0  0  0  0  0  0
    1.3251   -2.6322   -0.3352 N   0  0  0  0  0  0  0  0  0  0  0  0
    2.4458   -3.0868   -1.0047 C   0  0  0  0  0  0  0  0  0  0  0  0
    2.3682   -3.9882   -1.8411 O   0  0  0  0  0  0  0  0  0  0  0  0
    3.6627   -2.4948   -0.6979 N   0  0  0  0  0  0  0  0  0  0  0  0
    4.8591   -3.2270   -1.1114 C   0  0  0  0  0  0  0  0  0  0  0  0
    6.1275   -2.5704   -0.5849 C   0  0  0  0  0  0  0  0  0  0  0  0
    6.2749   -1.1388   -1.1035 C   0  0  0  0  0  0  0  0  0  0  0  0
    4.9390   -0.5166   -1.5113 C   0  0  0  0  0  0  0  0  0  0  0  0
    3.7879   -1.0313   -0.6499 C   0  0  0  0  0  0  0  0  0  0  0  0
    0.0102   -2.9625   -0.8671 C   0  0  0  0  0  0  0  0  0  0  0  0
   -0.4846   -1.8475   -1.7723 C   0  0  0  0  0  0  0  0  0  0  0  0
   -3.7528    4.8699   -3.0590 H   0  0  0  0  0  0  0  0  0  0  0  0
   -3.2981    4.8549    2.2013 H   0  0  0  0  0  0  0  0  0  0  0  0
   -4.6213    0.8885    4.8132 H   0  0  0  0  0  0  0  0  0  0  0  0
   -5.2472   -1.2188    3.6899 H   0  0  0  0  0  0  0  0  0  0  0  0
   -5.2075   -1.4032    1.2095 H   0  0  0  0  0  0  0  0  0  0  0  0
   -4.4659    0.5511   -0.1434 H   0  0  0  0  0  0  0  0  0  0  0  0
   -2.2482    0.0479   -2.5399 H   0  0  0  0  0  0  0  0  0  0  0  0
    1.8503   -0.0608    2.7517 H   0  0  0  0  0  0  0  0  0  0  0  0
   -0.6940    3.0565    1.3874 H   0  0  0  0  0  0  0  0  0  0  0  0
    2.3431   -1.9620    1.3703 H   0  0  0  0  0  0  0  0  0  0  0  0
    0.7396   -2.5902    1.6456 H   0  0  0  0  0  0  0  0  0  0  0  0
    4.7794   -4.2553   -0.7394 H   0  0  0  0  0  0  0  0  0  0  0  0
    4.8777   -3.2766   -2.2076 H   0  0  0  0  0  0  0  0  0  0  0  0
    7.0087   -3.1592   -0.8623 H   0  0  0  0  0  0  0  0  0  0  0  0
    6.0929   -2.5504    0.5120 H   0  0  0  0  0  0  0  0  0  0  0  0
    6.9518   -1.1208   -1.9663 H   0  0  0  0  0  0  0  0  0  0  0  0
    6.7511   -0.5276   -0.3273 H   0  0  0  0  0  0  0  0  0  0  0  0
    5.0037    0.5755   -1.4483 H   0  0  0  0  0  0  0  0  0  0  0  0
    4.7367   -0.7600   -2.5625 H   0  0  0  0  0  0  0  0  0  0  0  0
    2.8584   -0.5623   -0.9860 H   0  0  0  0  0  0  0  0  0  0  0  0
    3.9670   -0.7511    0.3939 H   0  0  0  0  0  0  0  0  0  0  0  0
   -0.6870   -3.1495   -0.0415 H   0  0  0  0  0  0  0  0  0  0  0  0
    0.0642   -3.8890   -1.4491 H   0  0  0  0  0  0  0  0  0  0  0  0
    0.2541   -1.6050   -2.5459 H   0  0  0  0  0  0  0  0  0  0  0  0
   -1.4033   -2.1806   -2.2697 H   0  0  0  0  0  0  0  0  0  0  0  0
  1  2  2  0
  2  3  1  0
  3  4  1  0
  4  5  2  0
  4  6  1  0
  6  7  1  0
  7  8  2  0
  8  9  1  0
  9 10  2  0
 10 11  1  0
 11 12  2  0
 12 13  1  0
 13 14  2  0
 14 15  1  0
  6 16  2  0
 16 17  1  0
 17 18  2  0
 18 19  1  0
 19 20  1  0
 20 21  2  0
 21 22  1  0
 22 23  2  0
 23 24  1  0
 23 25  1  0
 25 26  2  0
 21 27  1  0
 27 28  1  0
 28 29  1  0
 29 30  2  0
 29 31  1  0
 31 32  1  0
 32 33  1  0
 33 34  1  0
 34 35  1  0
 35 36  1  0
 28 37  1  0
 37 38  1  0
 16  2  1  0
 26 17  1  0
 36 31  1  0
 15  7  1  0
 38 19  1  0
 15 10  1  0
 26 20  1  0
  3 39  1  0
  8 40  1  0
 11 41  1  0
 12 42  1  0
 13 43  1  0
 14 44  1  0
 18 45  1  0
 22 46  1  0
 25 47  1  0
 27 48  1  0
 27 49  1  0
 32 50  1  0
 32 51  1  0
 33 52  1  0
 33 53  1  0
 34 54  1  0
 34 55  1  0
 35 56  1  0
 35 57  1  0
 36 58  1  0
 36 59  1  0
 37 60  1  0
 37 61  1  0
 38 62  1  0
 38 63  1  0
M  END
$$$$
