
     RDKit          3D

 51 53  0  0  0  0  0  0  0  0999 V2000
    7.4081    0.5175   -0.9066 C   0  0  0  0  0  0  0  0  0  0  0  0
    6.2836    0.0540    0.0200 C   0  0  0  0  0  0  0  0  0  0  0  0
    6.8687   -0.6471    1.2464 C   0  0  0  0  0  0  0  0  0  0  0  0
    5.5056    1.2320    0.4098 N   0  0  0  0  0  0  0  0  0  0  0  0
    4.2907    1.0183    1.0484 C   0  0  0  0  0  0  0  0  0  0  0  0
    3.2873    0.2234    0.5082 C   0  0  0  0  0  0  0  0  0  0  0  0
    2.0750    0.0624    1.1963 C   0  0  0  0  0  0  0  0  0  0  0  0
    1.0414   -0.7693    0.6000 C   0  0  0  0  0  0  0  0  0  0  0  0
    1.2485   -2.0771    0.2138 C   0  0  0  0  0  0  0  0  0  0  0  0
    0.0749   -2.5567   -0.3031 N   0  0  0  0  0  0  0  0  0  0  0  0
   -0.8972   -1.5790   -0.2816 C   0  0  0  0  0  0  0  0  0  0  0  0
   -2.2297   -1.8362   -0.7819 C   0  0  0  0  0  0  0  0  0  0  0  0
   -2.5589   -2.9323   -1.2278 O   0  0  0  0  0  0  0  0  0  0  0  0
   -3.0918   -0.7693   -0.7388 N   0  0  0  0  0  0  0  0  0  0  0  0
   -4.3885   -0.8233   -1.3932 C   0  0  2  0  0  0  0  0  0  0  0  0
   -4.2564   -0.7078   -2.9332 C   0  0  0  0  0  0  0  0  0  0  0  0
   -3.4405    0.4022   -3.3232 O   0  0  0  0  0  0  0  0  0  0  0  0
   -5.3189    0.2038   -0.7655 C   0  0  0  0  0  0  0  0  0  0  0  0
   -5.2141    1.5776   -1.0372 C   0  0  0  0  0  0  0  0  0  0  0  0
   -6.0712    2.4976   -0.4271 C   0  0  0  0  0  0  0  0  0  0  0  0
   -7.0410    2.0597    0.4725 C   0  0  0  0  0  0  0  0  0  0  0  0
   -7.1458    0.7025    0.7630 C   0  0  0  0  0  0  0  0  0  0  0  0
   -8.3363    0.1582    1.8804 Cl  0  0  0  0  0  0  0  0  0  0  0  0
   -6.2924   -0.2203    0.1564 C   0  0  0  0  0  0  0  0  0  0  0  0
   -0.3101   -0.4574    0.2834 C   0  0  0  0  0  0  0  0  0  0  0  0
    1.9088    0.7225    2.4147 C   0  0  0  0  0  0  0  0  0  0  0  0
    0.4931    0.5983    3.3914 Cl  0  0  0  0  0  0  0  0  0  0  0  0
    2.9592    1.5053    2.8696 C   0  0  0  0  0  0  0  0  0  0  0  0
    4.1345    1.6686    2.2144 N   0  0  0  0  0  0  0  0  0  0  0  0
    8.0123   -0.3316   -1.2429 H   0  0  0  0  0  0  0  0  0  0  0  0
    8.0716    1.2311   -0.4051 H   0  0  0  0  0  0  0  0  0  0  0  0
    6.9993    1.0140   -1.7937 H   0  0  0  0  0  0  0  0  0  0  0  0
    5.6674   -0.6566   -0.5430 H   0  0  0  0  0  0  0  0  0  0  0  0
    6.0779   -1.0284    1.9011 H   0  0  0  0  0  0  0  0  0  0  0  0
    7.4885    0.0353    1.8386 H   0  0  0  0  0  0  0  0  0  0  0  0
    7.4904   -1.4976    0.9473 H   0  0  0  0  0  0  0  0  0  0  0  0
    6.0252    1.8493    1.0341 H   0  0  0  0  0  0  0  0  0  0  0  0
    3.4307   -0.2451   -0.4598 H   0  0  0  0  0  0  0  0  0  0  0  0
    2.1208   -2.7150    0.2728 H   0  0  0  0  0  0  0  0  0  0  0  0
   -0.0836   -3.4927   -0.6572 H   0  0  0  0  0  0  0  0  0  0  0  0
   -2.6975    0.1499   -0.6077 H   0  0  0  0  0  0  0  0  0  0  0  0
   -4.8150   -1.8177   -1.2033 H   0  0  0  0  0  0  0  0  0  0  0  0
   -3.7804   -1.6099   -3.3330 H   0  0  0  0  0  0  0  0  0  0  0  0
   -5.2394   -0.5995   -3.4039 H   0  0  0  0  0  0  0  0  0  0  0  0
   -3.3275    0.3373   -4.2877 H   0  0  0  0  0  0  0  0  0  0  0  0
   -4.4576    1.9504   -1.7252 H   0  0  0  0  0  0  0  0  0  0  0  0
   -5.9774    3.5572   -0.6523 H   0  0  0  0  0  0  0  0  0  0  0  0
   -7.7042    2.7784    0.9456 H   0  0  0  0  0  0  0  0  0  0  0  0
   -6.3831   -1.2751    0.4081 H   0  0  0  0  0  0  0  0  0  0  0  0
   -0.7954    0.4941    0.4587 H   0  0  0  0  0  0  0  0  0  0  0  0
    2.8902    2.0442    3.8107 H   0  0  0  0  0  0  0  0  0  0  0  0
  1  2  1  0
  2  3  1  0
  2  4  1  0
  4  5  1  0
  5  6  2  0
  6  7  1  0
  7  8  1  0
  8  9  2  0
  9 10  1  0
 10 11  1  0
 11 12  1  0
 12 13  2  0
 12 14  1  0
 14 15  1  0
 15 16  1  0
 16 17  1  0
 15 18  1  0
 18 19  2  0
 19 20  1  0
 20 21  2  0
 21 22  1  0
 22 23  1  0
 22 24  2  0
 11 25  2  0
  7 26  2  0
 26 27  1  0
 26 28  1  0
 28 29  2  0
 29  5  1  0
 25  8  1  0
 24 18  1  0
  1 30  1  0
  1 31  1  0
  1 32  1  0
  2 33  1  0
  3 34  1  0
  3 35  1  0
  3 36  1  0
  4 37  1  0
  6 38  1  0
  9 39  1  0
 10 40  1  0
 14 41  1  0
 15 42  1  6
 16 43  1  0
 16 44  1  0
 17 45  1  0
 19 46  1  0
 20 47  1  0
 21 48  1  0
 24 49  1  0
 25 50  1  0
 28 51  1  0
M  END
$$$$
