
     RDKit          3D

 48 50  0  0  0  0  0  0  0  0999 V2000
    8.0018   -0.1412    1.7003 C   0  0  0  0  0  0  0  0  0  0  0  0
    6.8157    0.5290    2.1078 O   0  0  0  0  0  0  0  0  0  0  0  0
    5.8078    0.6172    1.1870 C   0  0  0  0  0  0  0  0  0  0  0  0
    5.8110    0.0541   -0.0932 C   0  0  0  0  0  0  0  0  0  0  0  0
    4.7058    0.2164   -0.9341 C   0  0  0  0  0  0  0  0  0  0  0  0
    3.5938    0.9318   -0.4800 C   0  0  0  0  0  0  0  0  0  0  0  0
    2.4259    1.0951   -1.3635 C   0  0  0  0  0  0  0  0  0  0  0  0
    2.4797    1.9688   -2.2272 O   0  0  0  0  0  0  0  0  0  0  0  0
    1.3272    0.2700   -1.1542 N   0  0  0  0  0  0  0  0  0  0  0  0
    0.1357    0.4654   -1.9837 C   0  0  0  0  0  0  0  0  0  0  0  0
   -1.1595    0.1008   -1.2450 C   0  0  0  0  0  0  0  0  0  0  0  0
   -1.1291   -1.2525   -0.6699 N   0  0  0  0  0  0  0  0  0  0  0  0
   -2.2439   -2.0374   -0.4467 C   0  0  0  0  0  0  0  0  0  0  0  0
   -2.1946   -3.2365   -0.1883 O   0  0  0  0  0  0  0  0  0  0  0  0
   -3.5706   -1.3855   -0.5419 C   0  0  0  0  0  0  0  0  0  0  0  0
   -3.9166   -0.4468    0.3537 C   0  0  0  0  0  0  0  0  0  0  0  0
   -5.2197    0.2355    0.4090 C   0  0  0  0  0  0  0  0  0  0  0  0
   -6.3998   -0.3269   -0.0990 C   0  0  0  0  0  0  0  0  0  0  0  0
   -7.6207    0.3490    0.0104 C   0  0  0  0  0  0  0  0  0  0  0  0
   -7.6688    1.5897    0.6375 C   0  0  0  0  0  0  0  0  0  0  0  0
   -9.3145    2.5066    0.7858 Br  0  0  0  0  0  0  0  0  0  0  0  0
   -6.5110    2.1587    1.1594 C   0  0  0  0  0  0  0  0  0  0  0  0
   -5.2926    1.4807    1.0484 C   0  0  0  0  0  0  0  0  0  0  0  0
    0.1911   -1.8555   -0.4785 C   0  0  0  0  0  0  0  0  0  0  0  0
    1.2749   -0.8142   -0.1636 C   0  0  0  0  0  0  0  0  0  0  0  0
    3.5808    1.5060    0.7912 C   0  0  0  0  0  0  0  0  0  0  0  0
    4.6928    1.3475    1.6196 C   0  0  0  0  0  0  0  0  0  0  0  0
    7.8054   -1.1875    1.4410 H   0  0  0  0  0  0  0  0  0  0  0  0
    8.6966   -0.1332    2.5453 H   0  0  0  0  0  0  0  0  0  0  0  0
    8.4830    0.3883    0.8714 H   0  0  0  0  0  0  0  0  0  0  0  0
    6.6569   -0.5160   -0.4664 H   0  0  0  0  0  0  0  0  0  0  0  0
    4.7047   -0.2220   -1.9297 H   0  0  0  0  0  0  0  0  0  0  0  0
    0.2577   -0.1792   -2.8627 H   0  0  0  0  0  0  0  0  0  0  0  0
    0.0845    1.5021   -2.3357 H   0  0  0  0  0  0  0  0  0  0  0  0
   -2.0110    0.1964   -1.9259 H   0  0  0  0  0  0  0  0  0  0  0  0
   -1.3089    0.7951   -0.4108 H   0  0  0  0  0  0  0  0  0  0  0  0
   -4.2303   -1.7798   -1.3037 H   0  0  0  0  0  0  0  0  0  0  0  0
   -3.1996   -0.1495    1.1163 H   0  0  0  0  0  0  0  0  0  0  0  0
   -6.3948   -1.3052   -0.5720 H   0  0  0  0  0  0  0  0  0  0  0  0
   -8.5233   -0.1059   -0.3906 H   0  0  0  0  0  0  0  0  0  0  0  0
   -6.5433    3.1286    1.6518 H   0  0  0  0  0  0  0  0  0  0  0  0
   -4.3990    1.9400    1.4686 H   0  0  0  0  0  0  0  0  0  0  0  0
    0.4353   -2.3802   -1.4103 H   0  0  0  0  0  0  0  0  0  0  0  0
    0.1464   -2.6018    0.3223 H   0  0  0  0  0  0  0  0  0  0  0  0
    1.0637   -0.3429    0.8047 H   0  0  0  0  0  0  0  0  0  0  0  0
    2.2511   -1.3056   -0.0951 H   0  0  0  0  0  0  0  0  0  0  0  0
    2.7231    2.0775    1.1319 H   0  0  0  0  0  0  0  0  0  0  0  0
    4.6990    1.8004    2.6086 H   0  0  0  0  0  0  0  0  0  0  0  0
  1  2  1  0
  2  3  1  0
  3  4  2  0
  4  5  1  0
  5  6  2  0
  6  7  1  0
  7  8  2  0
  7  9  1  0
  9 10  1  0
 10 11  1  0
 11 12  1  0
 12 13  1  0
 13 14  2  0
 13 15  1  0
 15 16  2  0
 16 17  1  0
 17 18  2  0
 18 19  1  0
 19 20  2  0
 20 21  1  0
 20 22  1  0
 22 23  2  0
 12 24  1  0
 24 25  1  0
  6 26  1  0
 26 27  2  0
 27  3  1  0
 25  9  1  0
 23 17  1  0
  1 28  1  0
  1 29  1  0
  1 30  1  0
  4 31  1  0
  5 32  1  0
 10 33  1  0
 10 34  1  0
 11 35  1  0
 11 36  1  0
 15 37  1  0
 16 38  1  0
 18 39  1  0
 19 40  1  0
 22 41  1  0
 23 42  1  0
 24 43  1  0
 24 44  1  0
 25 45  1  0
 25 46  1  0
 26 47  1  0
 27 48  1  0
M  END
$$$$
