
     RDKit          3D

 48 51  0  0  0  0  0  0  0  0999 V2000
    7.0874    1.4988   -1.1724 C   0  0  0  0  0  0  0  0  0  0  0  0
    6.0953    0.4789   -0.9470 N   0  0  0  0  0  0  0  0  0  0  0  0
    4.7632    0.8148   -0.8157 C   0  0  0  0  0  0  0  0  0  0  0  0
    4.3557    1.9636   -0.9557 O   0  0  0  0  0  0  0  0  0  0  0  0
    3.8790   -0.2797   -0.4436 C   0  0  0  0  0  0  0  0  0  0  0  0
    4.0173   -1.6303   -0.7379 C   0  0  0  0  0  0  0  0  0  0  0  0
    4.9980   -2.4297   -1.5054 C   0  0  0  0  0  0  0  0  0  0  0  0
    2.9848   -2.3440   -0.2057 O   0  0  0  0  0  0  0  0  0  0  0  0
    2.1527   -1.4611    0.4038 C   0  0  0  0  0  0  0  0  0  0  0  0
    0.9696   -1.7922    1.0588 C   0  0  0  0  0  0  0  0  0  0  0  0
    0.2343   -0.7336    1.6064 C   0  0  0  0  0  0  0  0  0  0  0  0
   -0.9365   -1.1131    2.2348 O   0  0  0  0  0  0  0  0  0  0  0  0
   -1.9101   -0.1467    2.3944 C   0  0  0  0  0  0  0  0  0  0  0  0
   -1.9010    0.4862    3.5822 N   0  0  0  0  0  0  0  0  0  0  0  0
   -2.8706    1.3867    3.7466 C   0  0  0  0  0  0  0  0  0  0  0  0
   -3.8231    1.6952    2.8543 N   0  0  0  0  0  0  0  0  0  0  0  0
   -3.8145    1.0305    1.6905 C   0  0  0  0  0  0  0  0  0  0  0  0
   -4.7956    1.3106    0.7478 C   0  0  0  0  0  0  0  0  0  0  0  0
   -4.8503    0.6501   -0.4866 C   0  0  0  0  0  0  0  0  0  0  0  0
   -5.7955    0.8890   -1.4532 O   0  0  0  0  0  0  0  0  0  0  0  0
   -6.7980    1.8562   -1.1739 C   0  0  0  0  0  0  0  0  0  0  0  0
   -3.8878   -0.3262   -0.7927 C   0  0  0  0  0  0  0  0  0  0  0  0
   -4.0020   -0.9325   -2.0170 O   0  0  0  0  0  0  0  0  0  0  0  0
   -2.9605   -1.8124   -2.4179 C   0  0  0  0  0  0  0  0  0  0  0  0
   -2.9014   -0.6230    0.1476 C   0  0  0  0  0  0  0  0  0  0  0  0
   -2.8587    0.0596    1.3878 C   0  0  0  0  0  0  0  0  0  0  0  0
    0.6996    0.5836    1.5145 C   0  0  0  0  0  0  0  0  0  0  0  0
    1.9010    0.8796    0.8504 C   0  0  0  0  0  0  0  0  0  0  0  0
    2.6444   -0.1702    0.2771 C   0  0  0  0  0  0  0  0  0  0  0  0
    7.2513    2.0422   -0.2383 H   0  0  0  0  0  0  0  0  0  0  0  0
    6.7459    2.1951   -1.9431 H   0  0  0  0  0  0  0  0  0  0  0  0
    8.0150    1.0173   -1.4896 H   0  0  0  0  0  0  0  0  0  0  0  0
    6.4022   -0.3939   -0.5418 H   0  0  0  0  0  0  0  0  0  0  0  0
    5.8762   -2.6492   -0.8910 H   0  0  0  0  0  0  0  0  0  0  0  0
    5.3221   -1.8946   -2.4031 H   0  0  0  0  0  0  0  0  0  0  0  0
    4.5637   -3.3821   -1.8268 H   0  0  0  0  0  0  0  0  0  0  0  0
    0.6370   -2.8204    1.1297 H   0  0  0  0  0  0  0  0  0  0  0  0
   -2.8923    1.9211    4.6903 H   0  0  0  0  0  0  0  0  0  0  0  0
   -5.5254    2.0699    1.0109 H   0  0  0  0  0  0  0  0  0  0  0  0
   -6.3595    2.8489   -1.0300 H   0  0  0  0  0  0  0  0  0  0  0  0
   -7.4621    1.9096   -2.0420 H   0  0  0  0  0  0  0  0  0  0  0  0
   -7.4026    1.5601   -0.3105 H   0  0  0  0  0  0  0  0  0  0  0  0
   -3.1733   -2.1387   -3.4404 H   0  0  0  0  0  0  0  0  0  0  0  0
   -2.9344   -2.7039   -1.7833 H   0  0  0  0  0  0  0  0  0  0  0  0
   -1.9908   -1.3036   -2.4263 H   0  0  0  0  0  0  0  0  0  0  0  0
   -2.1518   -1.3816   -0.0524 H   0  0  0  0  0  0  0  0  0  0  0  0
    0.1517    1.4081    1.9646 H   0  0  0  0  0  0  0  0  0  0  0  0
    2.2506    1.9071    0.7828 H   0  0  0  0  0  0  0  0  0  0  0  0
  1  2  1  0
  2  3  1  0
  3  4  2  0
  3  5  1  0
  5  6  2  0
  6  7  1  0
  6  8  1  0
  8  9  1  0
  9 10  2  0
 10 11  1  0
 11 12  1  0
 12 13  1  0
 13 14  2  0
 14 15  1  0
 15 16  2  0
 16 17  1  0
 17 18  2  0
 18 19  1  0
 19 20  1  0
 20 21  1  0
 19 22  2  0
 22 23  1  0
 23 24  1  0
 22 25  1  0
 25 26  2  0
 11 27  2  0
 27 28  1  0
 28 29  2  0
 29  5  1  0
 29  9  1  0
 26 13  1  0
 26 17  1  0
  1 30  1  0
  1 31  1  0
  1 32  1  0
  2 33  1  0
  7 34  1  0
  7 35  1  0
  7 36  1  0
 10 37  1  0
 15 38  1  0
 18 39  1  0
 21 40  1  0
 21 41  1  0
 21 42  1  0
 24 43  1  0
 24 44  1  0
 24 45  1  0
 25 46  1  0
 27 47  1  0
 28 48  1  0
M  END
$$$$
