
     RDKit          3D

 51 54  0  0  0  0  0  0  0  0999 V2000
   -9.8740   -2.0243    0.1914 C   0  0  0  0  0  0  0  0  0  0  0  0
   -9.0512   -1.4462   -0.8142 O   0  0  0  0  0  0  0  0  0  0  0  0
   -7.7634   -1.1496   -0.4644 C   0  0  0  0  0  0  0  0  0  0  0  0
   -7.1841   -1.3533    0.7873 C   0  0  0  0  0  0  0  0  0  0  0  0
   -5.8458   -1.0015    1.0105 C   0  0  0  0  0  0  0  0  0  0  0  0
   -5.0676   -0.4414   -0.0130 C   0  0  0  0  0  0  0  0  0  0  0  0
   -3.6742   -0.0727    0.2127 C   0  0  0  0  0  0  0  0  0  0  0  0
   -3.0356   -0.2253    1.3797 N   0  0  0  0  0  0  0  0  0  0  0  0
   -1.7584    0.2495    1.1235 O   0  0  0  0  0  0  0  0  0  0  0  0
   -1.7135    0.6650   -0.1942 C   0  0  0  0  0  0  0  0  0  0  0  0
   -0.5453    1.2254   -0.8132 C   0  0  0  0  0  0  0  0  0  0  0  0
   -0.5022    1.6477   -2.2059 C   0  0  0  0  0  0  0  0  0  0  0  0
    0.6116    2.1450   -2.7582 C   0  0  0  0  0  0  0  0  0  0  0  0
    1.8476    2.2882   -1.9485 C   0  0  0  0  0  0  0  0  0  0  0  0
    2.8632    2.7414   -2.4683 O   0  0  0  0  0  0  0  0  0  0  0  0
    1.7441    1.9033   -0.6147 N   0  0  0  0  0  0  0  0  0  0  0  0
    2.9546    1.9669    0.2075 C   0  0  0  0  0  0  0  0  0  0  0  0
    3.7460    0.6410    0.2028 C   0  0  0  0  0  0  0  0  0  0  0  0
    3.2159   -0.3794   -0.2456 O   0  0  0  0  0  0  0  0  0  0  0  0
    5.0477    0.6891    0.7525 N   0  0  0  0  0  0  0  0  0  0  0  0
    5.6469    1.9575    1.1735 C   0  0  0  0  0  0  0  0  0  0  0  0
    5.8965   -0.4802    0.7913 C   0  0  0  0  0  0  0  0  0  0  0  0
    7.2978   -0.3551    0.7815 C   0  0  0  0  0  0  0  0  0  0  0  0
    8.1338   -1.4772    0.8353 C   0  0  0  0  0  0  0  0  0  0  0  0
    7.5863   -2.7523    0.9053 C   0  0  0  0  0  0  0  0  0  0  0  0
    6.2049   -2.9026    0.9217 C   0  0  0  0  0  0  0  0  0  0  0  0
    5.3714   -1.7784    0.8666 C   0  0  0  0  0  0  0  0  0  0  0  0
    0.5771    1.3687   -0.0815 C   0  0  0  0  0  0  0  0  0  0  0  0
   -2.8886    0.4777   -0.7743 N   0  0  0  0  0  0  0  0  0  0  0  0
   -5.6583   -0.2409   -1.2670 C   0  0  0  0  0  0  0  0  0  0  0  0
   -6.9939   -0.5925   -1.4875 C   0  0  0  0  0  0  0  0  0  0  0  0
   -9.4763   -2.9901    0.5201 H   0  0  0  0  0  0  0  0  0  0  0  0
  -10.8611   -2.2024   -0.2460 H   0  0  0  0  0  0  0  0  0  0  0  0
  -10.0030   -1.3405    1.0369 H   0  0  0  0  0  0  0  0  0  0  0  0
   -7.7410   -1.7831    1.6133 H   0  0  0  0  0  0  0  0  0  0  0  0
   -5.4184   -1.1720    1.9972 H   0  0  0  0  0  0  0  0  0  0  0  0
   -1.4062    1.5369   -2.7985 H   0  0  0  0  0  0  0  0  0  0  0  0
    0.6675    2.4539   -3.7937 H   0  0  0  0  0  0  0  0  0  0  0  0
    2.6689    2.2059    1.2383 H   0  0  0  0  0  0  0  0  0  0  0  0
    3.5879    2.7712   -0.1792 H   0  0  0  0  0  0  0  0  0  0  0  0
    6.1258    2.4280    0.3095 H   0  0  0  0  0  0  0  0  0  0  0  0
    6.3709    1.8011    1.9796 H   0  0  0  0  0  0  0  0  0  0  0  0
    4.8946    2.6388    1.5770 H   0  0  0  0  0  0  0  0  0  0  0  0
    7.7800    0.6139    0.6936 H   0  0  0  0  0  0  0  0  0  0  0  0
    9.2132   -1.3506    0.8125 H   0  0  0  0  0  0  0  0  0  0  0  0
    8.2317   -3.6255    0.9440 H   0  0  0  0  0  0  0  0  0  0  0  0
    5.7647   -3.8950    0.9796 H   0  0  0  0  0  0  0  0  0  0  0  0
    4.3012   -1.9563    0.9156 H   0  0  0  0  0  0  0  0  0  0  0  0
    0.6329    1.0611    0.9600 H   0  0  0  0  0  0  0  0  0  0  0  0
   -5.0850    0.1903   -2.0853 H   0  0  0  0  0  0  0  0  0  0  0  0
   -7.4372   -0.4305   -2.4673 H   0  0  0  0  0  0  0  0  0  0  0  0
  1  2  1  0
  2  3  1  0
  3  4  2  0
  4  5  1  0
  5  6  2  0
  6  7  1  0
  7  8  2  0
  8  9  1  0
  9 10  1  0
 10 11  1  0
 11 12  1  0
 12 13  2  0
 13 14  1  0
 14 15  2  0
 14 16  1  0
 16 17  1  0
 17 18  1  0
 18 19  2  0
 18 20  1  0
 20 21  1  0
 20 22  1  0
 22 23  2  0
 23 24  1  0
 24 25  2  0
 25 26  1  0
 26 27  2  0
 16 28  1  0
 10 29  2  0
  6 30  1  0
 30 31  2  0
 31  3  1  0
 29  7  1  0
 28 11  2  0
 27 22  1  0
  1 32  1  0
  1 33  1  0
  1 34  1  0
  4 35  1  0
  5 36  1  0
 12 37  1  0
 13 38  1  0
 17 39  1  0
 17 40  1  0
 21 41  1  0
 21 42  1  0
 21 43  1  0
 23 44  1  0
 24 45  1  0
 25 46  1  0
 26 47  1  0
 27 48  1  0
 28 49  1  0
 30 50  1  0
 31 51  1  0
M  END
$$$$
