
     RDKit          3D

 54 55  0  0  0  0  0  0  0  0999 V2000
   -6.5144    0.9002    0.8463 C   0  0  0  0  0  0  0  0  0  0  0  0
   -5.1591    0.4565    1.3766 C   0  0  0  0  0  0  0  0  0  0  0  0
   -4.0628    0.3873    0.2928 C   0  0  0  0  0  0  0  0  0  0  0  0
   -4.3762   -0.5919   -0.8571 C   0  0  0  0  0  0  0  0  0  0  0  0
   -4.6364   -2.0314   -0.4301 C   0  0  0  0  0  0  0  0  0  0  0  0
   -2.8063    0.0260    0.9619 N   0  0  0  0  0  0  0  0  0  0  0  0
   -1.5419    0.2071    0.3903 C   0  0  0  0  0  0  0  0  0  0  0  0
   -1.3225    1.0766   -0.6833 C   0  0  0  0  0  0  0  0  0  0  0  0
   -0.0404    1.2539   -1.1944 C   0  0  0  0  0  0  0  0  0  0  0  0
    0.1880    2.1715   -2.3573 C   0  0  0  0  0  0  0  0  0  0  0  0
    1.0351    0.6280   -0.6855 N   0  0  0  0  0  0  0  0  0  0  0  0
    0.8382   -0.1743    0.3837 C   0  0  0  0  0  0  0  0  0  0  0  0
    1.9314   -0.8368    0.9437 O   0  0  0  0  0  0  0  0  0  0  0  0
    3.1654   -0.5869    0.3844 C   0  0  0  0  0  0  0  0  0  0  0  0
    3.9589    0.4506    0.9017 C   0  0  0  0  0  0  0  0  0  0  0  0
    3.4539    1.3496    1.9928 C   0  0  0  0  0  0  0  0  0  0  0  0
    5.2245    0.6745    0.3416 C   0  0  0  0  0  0  0  0  0  0  0  0
    5.7139   -0.1442   -0.6842 C   0  0  0  0  0  0  0  0  0  0  0  0
    7.0545    0.1317   -1.2988 C   0  0  0  0  0  0  0  0  0  0  0  0
    4.9138   -1.1862   -1.1703 C   0  0  0  0  0  0  0  0  0  0  0  0
    3.6442   -1.4334   -0.6294 C   0  0  0  0  0  0  0  0  0  0  0  0
    2.8015   -2.5488   -1.1761 C   0  0  0  0  0  0  0  0  0  0  0  0
   -0.4106   -0.3984    0.9772 C   0  0  0  0  0  0  0  0  0  0  0  0
   -0.5355   -1.2944    2.1795 C   0  0  0  0  0  0  0  0  0  0  0  0
   -6.9423    0.1590    0.1653 H   0  0  0  0  0  0  0  0  0  0  0  0
   -6.4360    1.8548    0.3166 H   0  0  0  0  0  0  0  0  0  0  0  0
   -7.2170    1.0307    1.6758 H   0  0  0  0  0  0  0  0  0  0  0  0
   -5.2653   -0.5083    1.8869 H   0  0  0  0  0  0  0  0  0  0  0  0
   -4.8438    1.1692    2.1502 H   0  0  0  0  0  0  0  0  0  0  0  0
   -3.9816    1.3979   -0.1243 H   0  0  0  0  0  0  0  0  0  0  0  0
   -3.5477   -0.5961   -1.5753 H   0  0  0  0  0  0  0  0  0  0  0  0
   -5.2490   -0.2303   -1.4135 H   0  0  0  0  0  0  0  0  0  0  0  0
   -4.8159   -2.6533   -1.3134 H   0  0  0  0  0  0  0  0  0  0  0  0
   -3.7802   -2.4540    0.1037 H   0  0  0  0  0  0  0  0  0  0  0  0
   -5.5196   -2.1091    0.2101 H   0  0  0  0  0  0  0  0  0  0  0  0
   -2.8814   -0.8436    1.4824 H   0  0  0  0  0  0  0  0  0  0  0  0
   -2.1365    1.6231   -1.1437 H   0  0  0  0  0  0  0  0  0  0  0  0
   -0.1210    3.1898   -2.1019 H   0  0  0  0  0  0  0  0  0  0  0  0
   -0.3822    1.8292   -3.2265 H   0  0  0  0  0  0  0  0  0  0  0  0
    1.2473    2.1958   -2.6330 H   0  0  0  0  0  0  0  0  0  0  0  0
    2.7439    2.0756    1.5848 H   0  0  0  0  0  0  0  0  0  0  0  0
    2.9649    0.7684    2.7814 H   0  0  0  0  0  0  0  0  0  0  0  0
    4.2748    1.9004    2.4643 H   0  0  0  0  0  0  0  0  0  0  0  0
    5.8357    1.4972    0.7075 H   0  0  0  0  0  0  0  0  0  0  0  0
    6.9469    0.8341   -2.1309 H   0  0  0  0  0  0  0  0  0  0  0  0
    7.7420    0.5586   -0.5610 H   0  0  0  0  0  0  0  0  0  0  0  0
    7.5114   -0.7912   -1.6711 H   0  0  0  0  0  0  0  0  0  0  0  0
    5.2831   -1.8113   -1.9809 H   0  0  0  0  0  0  0  0  0  0  0  0
    3.4084   -3.2636   -1.7422 H   0  0  0  0  0  0  0  0  0  0  0  0
    2.3223   -3.1079   -0.3659 H   0  0  0  0  0  0  0  0  0  0  0  0
    2.0325   -2.1481   -1.8437 H   0  0  0  0  0  0  0  0  0  0  0  0
   -1.1773   -0.8352    2.9391 H   0  0  0  0  0  0  0  0  0  0  0  0
    0.4245   -1.4802    2.6703 H   0  0  0  0  0  0  0  0  0  0  0  0
   -0.9583   -2.2596    1.8830 H   0  0  0  0  0  0  0  0  0  0  0  0
  1  2  1  0
  2  3  1  0
  3  4  1  0
  4  5  1  0
  3  6  1  0
  6  7  1  0
  7  8  2  0
  8  9  1  0
  9 10  1  0
  9 11  2  0
 11 12  1  0
 12 13  1  0
 13 14  1  0
 14 15  2  0
 15 16  1  0
 15 17  1  0
 17 18  2  0
 18 19  1  0
 18 20  1  0
 20 21  2  0
 21 22  1  0
 12 23  2  0
 23 24  1  0
 23  7  1  0
 21 14  1  0
  1 25  1  0
  1 26  1  0
  1 27  1  0
  2 28  1  0
  2 29  1  0
  3 30  1  0
  4 31  1  0
  4 32  1  0
  5 33  1  0
  5 34  1  0
  5 35  1  0
  6 36  1  0
  8 37  1  0
 10 38  1  0
 10 39  1  0
 10 40  1  0
 16 41  1  0
 16 42  1  0
 16 43  1  0
 17 44  1  0
 19 45  1  0
 19 46  1  0
 19 47  1  0
 20 48  1  0
 22 49  1  0
 22 50  1  0
 22 51  1  0
 24 52  1  0
 24 53  1  0
 24 54  1  0
M  END
$$$$
