
     RDKit          3D

 45 48  0  0  0  0  0  0  0  0999 V2000
   -5.3188   -1.8581    1.7639 O   0  0  0  0  0  0  0  0  0  0  0  0
   -4.9239   -0.7343    1.4988 C   0  0  0  0  0  0  0  0  0  0  0  0
   -3.6339   -0.3455    1.3751 O   0  0  0  0  0  0  0  0  0  0  0  0
   -2.6555   -1.3812    1.5338 C   0  0  0  0  0  0  0  0  0  0  0  0
   -2.2251   -1.8581    0.2148 C   0  0  0  0  0  0  0  0  0  0  0  0
   -1.8701   -2.2453   -0.8662 C   0  0  0  0  0  0  0  0  0  0  0  0
   -1.4309   -2.7204   -2.1839 C   0  0  0  0  0  0  0  0  0  0  0  0
   -0.5468   -1.4426   -3.1185 S   0  0  0  0  0  0  0  0  0  0  0  0
    0.9718   -1.4185   -2.2793 C   0  0  0  0  0  0  0  0  0  0  0  0
    1.4068   -2.3536   -1.4609 N   0  0  0  0  0  0  0  0  0  0  0  0
    2.6532   -1.9531   -1.0293 N   0  0  0  0  0  0  0  0  0  0  0  0
    2.9041   -0.7976   -1.6114 C   0  0  0  0  0  0  0  0  0  0  0  0
    4.0654    0.0934   -1.5360 C   0  0  0  0  0  0  0  0  0  0  0  0
    4.3072    0.9626   -2.6208 C   0  0  0  0  0  0  0  0  0  0  0  0
    5.4003    1.8222   -2.6298 C   0  0  0  0  0  0  0  0  0  0  0  0
    6.2763    1.8309   -1.5520 C   0  0  0  0  0  0  0  0  0  0  0  0
    6.0727    0.9886   -0.4506 C   0  0  0  0  0  0  0  0  0  0  0  0
    6.9791    1.0320    0.6222 C   0  0  0  0  0  0  0  0  0  0  0  0
    6.8112    0.2198    1.7406 C   0  0  0  0  0  0  0  0  0  0  0  0
    5.7301   -0.6458    1.8011 C   0  0  0  0  0  0  0  0  0  0  0  0
    4.8202   -0.7012    0.7412 C   0  0  0  0  0  0  0  0  0  0  0  0
    4.9600    0.1035   -0.4197 C   0  0  0  0  0  0  0  0  0  0  0  0
    1.8755   -0.4011   -2.4305 O   0  0  0  0  0  0  0  0  0  0  0  0
   -5.8380    0.4198    1.2722 C   0  0  0  0  0  0  0  0  0  0  0  0
   -5.3705    1.6889    0.8947 C   0  0  0  0  0  0  0  0  0  0  0  0
   -6.2732    2.7368    0.6928 C   0  0  0  0  0  0  0  0  0  0  0  0
   -7.6350    2.5153    0.8670 C   0  0  0  0  0  0  0  0  0  0  0  0
   -8.4967    3.5218    0.6725 F   0  0  0  0  0  0  0  0  0  0  0  0
   -8.1152    1.2650    1.2390 C   0  0  0  0  0  0  0  0  0  0  0  0
   -7.2169    0.2146    1.4414 C   0  0  0  0  0  0  0  0  0  0  0  0
   -1.8049   -0.9344    2.0603 H   0  0  0  0  0  0  0  0  0  0  0  0
   -3.0153   -2.2040    2.1618 H   0  0  0  0  0  0  0  0  0  0  0  0
   -2.3099   -3.0022   -2.7735 H   0  0  0  0  0  0  0  0  0  0  0  0
   -0.8151   -3.6211   -2.0935 H   0  0  0  0  0  0  0  0  0  0  0  0
    3.6425    0.9688   -3.4836 H   0  0  0  0  0  0  0  0  0  0  0  0
    5.5709    2.4812   -3.4774 H   0  0  0  0  0  0  0  0  0  0  0  0
    7.1276    2.5091   -1.5777 H   0  0  0  0  0  0  0  0  0  0  0  0
    7.8324    1.7073    0.5957 H   0  0  0  0  0  0  0  0  0  0  0  0
    7.5220    0.2660    2.5611 H   0  0  0  0  0  0  0  0  0  0  0  0
    5.5872   -1.2829    2.6704 H   0  0  0  0  0  0  0  0  0  0  0  0
    3.9889   -1.3944    0.8472 H   0  0  0  0  0  0  0  0  0  0  0  0
   -4.3088    1.8756    0.7508 H   0  0  0  0  0  0  0  0  0  0  0  0
   -5.9229    3.7219    0.3999 H   0  0  0  0  0  0  0  0  0  0  0  0
   -9.1825    1.1149    1.3684 H   0  0  0  0  0  0  0  0  0  0  0  0
   -7.5952   -0.7645    1.7311 H   0  0  0  0  0  0  0  0  0  0  0  0
  1  2  2  0
  2  3  1  0
  3  4  1  0
  4  5  1  0
  5  6  3  0
  6  7  1  0
  7  8  1  0
  8  9  1  0
  9 10  2  0
 10 11  1  0
 11 12  2  0
 12 13  1  0
 13 14  2  0
 14 15  1  0
 15 16  2  0
 16 17  1  0
 17 18  2  0
 18 19  1  0
 19 20  2  0
 20 21  1  0
 21 22  2  0
 12 23  1  0
  2 24  1  0
 24 25  2  0
 25 26  1  0
 26 27  2  0
 27 28  1  0
 27 29  1  0
 29 30  2  0
 23  9  1  0
 30 24  1  0
 22 13  1  0
 22 17  1  0
  4 31  1  0
  4 32  1  0
  7 33  1  0
  7 34  1  0
 14 35  1  0
 15 36  1  0
 16 37  1  0
 18 38  1  0
 19 39  1  0
 20 40  1  0
 21 41  1  0
 25 42  1  0
 26 43  1  0
 29 44  1  0
 30 45  1  0
M  END
$$$$
