
     RDKit          3D

 48 49  0  0  0  0  0  0  0  0999 V2000
   -8.4005    0.3547   -1.5598 C   0  0  0  0  0  0  0  0  0  0  0  0
   -8.0668    0.0967   -0.0987 C   0  0  0  0  0  0  0  0  0  0  0  0
   -7.4058    1.2900    0.5984 C   0  0  0  0  0  0  0  0  0  0  0  0
   -6.0596    1.7053    0.0100 C   0  0  0  0  0  0  0  0  0  0  0  0
   -5.0729    0.6512    0.1077 N   0  0  0  0  0  0  0  0  0  0  0  0
   -3.9095    0.6915   -0.6293 C   0  0  0  0  0  0  0  0  0  0  0  0
   -3.7141    1.5117   -1.5246 O   0  0  0  0  0  0  0  0  0  0  0  0
   -2.8910   -0.4030   -0.3312 C   0  0  0  0  0  0  0  0  0  0  0  0
   -3.0577   -1.1020    1.3494 S   0  0  0  0  0  0  0  0  0  0  0  0
   -1.8114   -2.4305    1.2445 C   0  0  0  0  0  0  0  0  0  0  0  0
   -0.4130   -1.9168    1.1385 C   0  0  0  0  0  0  0  0  0  0  0  0
    0.2246   -1.2482    2.0799 N   0  0  0  0  0  0  0  0  0  0  0  0
    1.5092   -0.9116    1.7061 N   0  0  0  0  0  0  0  0  0  0  0  0
    1.8005   -1.3507    0.4965 C   0  0  0  0  0  0  0  0  0  0  0  0
    3.0951   -1.1341   -0.1370 C   0  0  0  0  0  0  0  0  0  0  0  0
    3.3733   -1.5580   -1.2555 O   0  0  0  0  0  0  0  0  0  0  0  0
    3.9566   -0.4042    0.6718 N   0  0  0  0  0  0  0  0  0  0  0  0
    5.2785   -0.0020    0.4071 C   0  0  0  0  0  0  0  0  0  0  0  0
    5.9647   -0.2874   -0.7736 C   0  0  0  0  0  0  0  0  0  0  0  0
    7.2843    0.1515   -0.9587 C   0  0  0  0  0  0  0  0  0  0  0  0
    7.9316    0.8811    0.0363 C   0  0  0  0  0  0  0  0  0  0  0  0
    9.2089    1.3643   -0.0184 O   0  0  0  0  0  0  0  0  0  0  0  0
    9.9415    1.1081   -1.2102 C   0  0  0  0  0  0  0  0  0  0  0  0
    7.2476    1.1672    1.2174 C   0  0  0  0  0  0  0  0  0  0  0  0
    5.9323    0.7308    1.4032 C   0  0  0  0  0  0  0  0  0  0  0  0
    0.5325   -2.2040   -0.2728 S   0  0  0  0  0  0  0  0  0  0  0  0
   -9.0171    1.2524   -1.6696 H   0  0  0  0  0  0  0  0  0  0  0  0
   -8.9582   -0.4919   -1.9729 H   0  0  0  0  0  0  0  0  0  0  0  0
   -7.4955    0.4793   -2.1618 H   0  0  0  0  0  0  0  0  0  0  0  0
   -7.4268   -0.7898   -0.0226 H   0  0  0  0  0  0  0  0  0  0  0  0
   -8.9956   -0.1423    0.4339 H   0  0  0  0  0  0  0  0  0  0  0  0
   -7.2718    1.0374    1.6578 H   0  0  0  0  0  0  0  0  0  0  0  0
   -8.0863    2.1495    0.5640 H   0  0  0  0  0  0  0  0  0  0  0  0
   -5.6651    2.5640    0.5653 H   0  0  0  0  0  0  0  0  0  0  0  0
   -6.1599    2.0181   -1.0344 H   0  0  0  0  0  0  0  0  0  0  0  0
   -5.0100    0.1331    0.9797 H   0  0  0  0  0  0  0  0  0  0  0  0
   -3.0246   -1.1956   -1.0733 H   0  0  0  0  0  0  0  0  0  0  0  0
   -1.8958    0.0392   -0.4324 H   0  0  0  0  0  0  0  0  0  0  0  0
   -2.0739   -3.0939    0.4136 H   0  0  0  0  0  0  0  0  0  0  0  0
   -1.8936   -3.0262    2.1603 H   0  0  0  0  0  0  0  0  0  0  0  0
    3.5671   -0.1309    1.5708 H   0  0  0  0  0  0  0  0  0  0  0  0
    5.5064   -0.8508   -1.5803 H   0  0  0  0  0  0  0  0  0  0  0  0
    7.7720   -0.0975   -1.8955 H   0  0  0  0  0  0  0  0  0  0  0  0
   10.9321    1.5595   -1.0972 H   0  0  0  0  0  0  0  0  0  0  0  0
   10.0813    0.0330   -1.3641 H   0  0  0  0  0  0  0  0  0  0  0  0
    9.4606    1.5730   -2.0774 H   0  0  0  0  0  0  0  0  0  0  0  0
    7.7424    1.7357    2.0014 H   0  0  0  0  0  0  0  0  0  0  0  0
    5.4334    0.9748    2.3376 H   0  0  0  0  0  0  0  0  0  0  0  0
  1  2  1  0
  2  3  1  0
  3  4  1  0
  4  5  1  0
  5  6  1  0
  6  7  2  0
  6  8  1  0
  8  9  1  0
  9 10  1  0
 10 11  1  0
 11 12  2  0
 12 13  1  0
 13 14  2  0
 14 15  1  0
 15 16  2  0
 15 17  1  0
 17 18  1  0
 18 19  2  0
 19 20  1  0
 20 21  2  0
 21 22  1  0
 22 23  1  0
 21 24  1  0
 24 25  2  0
 14 26  1  0
 26 11  1  0
 25 18  1  0
  1 27  1  0
  1 28  1  0
  1 29  1  0
  2 30  1  0
  2 31  1  0
  3 32  1  0
  3 33  1  0
  4 34  1  0
  4 35  1  0
  5 36  1  0
  8 37  1  0
  8 38  1  0
 10 39  1  0
 10 40  1  0
 17 41  1  0
 19 42  1  0
 20 43  1  0
 23 44  1  0
 23 45  1  0
 23 46  1  0
 24 47  1  0
 25 48  1  0
M  END
$$$$
