
     RDKit          3D

 60 64  0  0  0  0  0  0  0  0999 V2000
   -2.0403   -4.4588   -2.3302 C   0  0  0  0  0  0  0  0  0  0  0  0
   -0.9841   -3.6394   -1.8466 O   0  0  0  0  0  0  0  0  0  0  0  0
   -1.3382   -2.4850   -1.1816 C   0  0  0  0  0  0  0  0  0  0  0  0
   -2.6554   -2.0385   -1.0009 C   0  0  0  0  0  0  0  0  0  0  0  0
   -2.9474   -0.8462   -0.3159 C   0  0  0  0  0  0  0  0  0  0  0  0
   -4.2857   -0.4483   -0.1615 N   0  0  0  0  0  0  0  0  0  0  0  0
   -4.9909   -0.2003   -1.4421 C   0  0  0  0  0  0  0  0  0  0  0  0
   -6.5106   -0.0121   -1.2086 C   0  0  0  0  0  0  0  0  0  0  0  0
   -6.8851    0.9918   -0.1881 N   0  0  0  0  0  0  0  0  0  0  0  0
   -6.6581    2.3540   -0.6645 C   0  0  0  0  0  0  0  0  0  0  0  0
   -6.1267    0.7105    1.0516 C   0  0  0  0  0  0  0  0  0  0  0  0
   -4.5966    0.5599    0.8728 C   0  0  0  0  0  0  0  0  0  0  0  0
   -1.8637   -0.1317    0.2054 C   0  0  0  0  0  0  0  0  0  0  0  0
   -0.5425   -0.5669    0.0284 C   0  0  0  0  0  0  0  0  0  0  0  0
   -0.2555   -1.7401   -0.6673 C   0  0  0  0  0  0  0  0  0  0  0  0
    1.0451   -2.2243   -0.8707 N   0  0  0  0  0  0  0  0  0  0  0  0
    2.3153   -1.8261   -0.4838 C   0  0  0  0  0  0  0  0  0  0  0  0
    3.3134   -2.5833   -0.9485 N   0  0  0  0  0  0  0  0  0  0  0  0
    4.5586   -2.2239   -0.5909 C   0  0  0  0  0  0  0  0  0  0  0  0
    4.8686   -1.1322    0.1988 C   0  0  0  0  0  0  0  0  0  0  0  0
    3.7812   -0.4096    0.6622 C   0  0  0  0  0  0  0  0  0  0  0  0
    2.5176   -0.7679    0.3137 N   0  0  0  0  0  0  0  0  0  0  0  0
    3.9353    0.6713    1.5648 N   0  0  0  0  0  0  0  0  0  0  0  0
    2.6999    0.9723    2.2974 C   0  0  0  0  0  0  0  0  0  0  0  0
    4.8674    1.7160    1.4006 C   0  0  0  0  0  0  0  0  0  0  0  0
    4.4564    3.0690    1.4847 C   0  0  0  0  0  0  0  0  0  0  0  0
    5.3469    4.1386    1.3469 C   0  0  0  0  0  0  0  0  0  0  0  0
    6.6894    3.8904    1.1221 C   0  0  0  0  0  0  0  0  0  0  0  0
    7.1268    2.5736    1.0293 C   0  0  0  0  0  0  0  0  0  0  0  0
    6.2295    1.4878    1.1555 C   0  0  0  0  0  0  0  0  0  0  0  0
    6.8560    0.1507    1.0603 C   0  0  0  0  0  0  0  0  0  0  0  0
    8.0463    0.0167    1.3544 O   0  0  0  0  0  0  0  0  0  0  0  0
    6.2129   -0.9301    0.5292 N   0  0  0  0  0  0  0  0  0  0  0  0
   -1.5906   -5.3348   -2.8075 H   0  0  0  0  0  0  0  0  0  0  0  0
   -2.6719   -4.8156   -1.5102 H   0  0  0  0  0  0  0  0  0  0  0  0
   -2.6306   -3.9345   -3.0887 H   0  0  0  0  0  0  0  0  0  0  0  0
   -3.4894   -2.6274   -1.3657 H   0  0  0  0  0  0  0  0  0  0  0  0
   -4.8695   -1.0381   -2.1380 H   0  0  0  0  0  0  0  0  0  0  0  0
   -4.5721    0.6905   -1.9274 H   0  0  0  0  0  0  0  0  0  0  0  0
   -6.9303   -0.9764   -0.8917 H   0  0  0  0  0  0  0  0  0  0  0  0
   -7.0005    0.2225   -2.1617 H   0  0  0  0  0  0  0  0  0  0  0  0
   -6.9737    3.0792    0.0938 H   0  0  0  0  0  0  0  0  0  0  0  0
   -7.2667    2.5507   -1.5542 H   0  0  0  0  0  0  0  0  0  0  0  0
   -5.6133    2.5598   -0.9170 H   0  0  0  0  0  0  0  0  0  0  0  0
   -6.3335    1.4852    1.8002 H   0  0  0  0  0  0  0  0  0  0  0  0
   -6.5191   -0.2232    1.4763 H   0  0  0  0  0  0  0  0  0  0  0  0
   -4.1736    0.2514    1.8369 H   0  0  0  0  0  0  0  0  0  0  0  0
   -4.1646    1.5319    0.6048 H   0  0  0  0  0  0  0  0  0  0  0  0
   -2.0108    0.7962    0.7486 H   0  0  0  0  0  0  0  0  0  0  0  0
    0.2539    0.0414    0.4420 H   0  0  0  0  0  0  0  0  0  0  0  0
    1.0869   -3.0655   -1.4332 H   0  0  0  0  0  0  0  0  0  0  0  0
    5.3354   -2.8735   -0.9850 H   0  0  0  0  0  0  0  0  0  0  0  0
    2.9054    1.5889    3.1813 H   0  0  0  0  0  0  0  0  0  0  0  0
    1.9690    1.4937    1.6678 H   0  0  0  0  0  0  0  0  0  0  0  0
    2.2352    0.0586    2.6904 H   0  0  0  0  0  0  0  0  0  0  0  0
    3.4109    3.3242    1.6391 H   0  0  0  0  0  0  0  0  0  0  0  0
    4.9837    5.1610    1.4151 H   0  0  0  0  0  0  0  0  0  0  0  0
    7.3943    4.7108    1.0189 H   0  0  0  0  0  0  0  0  0  0  0  0
    8.1863    2.3870    0.8564 H   0  0  0  0  0  0  0  0  0  0  0  0
    6.8637   -1.6820    0.3351 H   0  0  0  0  0  0  0  0  0  0  0  0
  1  2  1  0
  2  3  1  0
  3  4  2  0
  4  5  1  0
  5  6  1  0
  6  7  1  0
  7  8  1  0
  8  9  1  0
  9 10  1  0
  9 11  1  0
 11 12  1  0
  5 13  2  0
 13 14  1  0
 14 15  2  0
 15 16  1  0
 16 17  1  0
 17 18  2  0
 18 19  1  0
 19 20  2  0
 20 21  1  0
 21 22  2  0
 21 23  1  0
 23 24  1  0
 23 25  1  0
 25 26  2  0
 26 27  1  0
 27 28  2  0
 28 29  1  0
 29 30  2  0
 30 31  1  0
 31 32  2  0
 31 33  1  0
 15  3  1  0
 22 17  1  0
 30 25  1  0
 12  6  1  0
 33 20  1  0
  1 34  1  0
  1 35  1  0
  1 36  1  0
  4 37  1  0
  7 38  1  0
  7 39  1  0
  8 40  1  0
  8 41  1  0
 10 42  1  0
 10 43  1  0
 10 44  1  0
 11 45  1  0
 11 46  1  0
 12 47  1  0
 12 48  1  0
 13 49  1  0
 14 50  1  0
 16 51  1  0
 19 52  1  0
 24 53  1  0
 24 54  1  0
 24 55  1  0
 26 56  1  0
 27 57  1  0
 28 58  1  0
 29 59  1  0
 33 60  1  0
M  END
$$$$
