
     RDKit          3D

 26 27  0  0  0  0  0  0  0  0999 V2000
    5.2283    0.7948   -0.4836 C   0  0  0  0  0  0  0  0  0  0  0  0
    3.9357   -0.0013   -0.5011 C   0  0  0  0  0  0  0  0  0  0  0  0
    2.8678    0.8867   -0.1742 O   0  0  0  0  0  0  0  0  0  0  0  0
    1.6040    0.3620   -0.1352 C   0  0  0  0  0  0  0  0  0  0  0  0
    1.2650   -0.9648   -0.3868 C   0  0  0  0  0  0  0  0  0  0  0  0
   -0.0708   -1.3854   -0.3161 C   0  0  0  0  0  0  0  0  0  0  0  0
   -1.0846   -0.4643    0.0115 C   0  0  0  0  0  0  0  0  0  0  0  0
   -2.4350   -0.7472    0.1145 N   0  0  0  0  0  0  0  0  0  0  0  0
   -3.0796    0.3572    0.4374 C   0  0  0  0  0  0  0  0  0  0  0  0
   -4.8294    0.5070    0.6848 S   0  0  0  0  0  6  0  0  0  0  0  0
   -5.5611   -0.9941    0.4429 N   0  0  0  0  0  0  0  0  0  0  0  0
   -5.0314    0.8132    2.0838 O   0  0  0  0  0  0  0  0  0  0  0  0
   -5.3323    1.3558   -0.3727 O   0  0  0  0  0  0  0  0  0  0  0  0
   -2.1428    1.7689    0.6345 S   0  0  0  0  0  0  0  0  0  0  0  0
   -0.7257    0.8626    0.2607 C   0  0  0  0  0  0  0  0  0  0  0  0
    0.6095    1.2922    0.1921 C   0  0  0  0  0  0  0  0  0  0  0  0
    5.3924    1.2418    0.5025 H   0  0  0  0  0  0  0  0  0  0  0  0
    6.0822    0.1572   -0.7291 H   0  0  0  0  0  0  0  0  0  0  0  0
    5.1834    1.6187   -1.2036 H   0  0  0  0  0  0  0  0  0  0  0  0
    4.0012   -0.8062    0.2399 H   0  0  0  0  0  0  0  0  0  0  0  0
    3.7878   -0.4213   -1.5027 H   0  0  0  0  0  0  0  0  0  0  0  0
    2.0130   -1.7084   -0.6427 H   0  0  0  0  0  0  0  0  0  0  0  0
   -0.3333   -2.4207   -0.5126 H   0  0  0  0  0  0  0  0  0  0  0  0
   -6.0064   -1.2955    1.3095 H   0  0  0  0  0  0  0  0  0  0  0  0
   -6.2088   -0.9306   -0.3425 H   0  0  0  0  0  0  0  0  0  0  0  0
    0.8708    2.3281    0.3889 H   0  0  0  0  0  0  0  0  0  0  0  0
  1  2  1  0
  2  3  1  0
  3  4  1  0
  4  5  2  0
  5  6  1  0
  6  7  2  0
  7  8  1  0
  8  9  2  0
  9 10  1  0
 10 11  1  0
 10 12  2  0
 10 13  2  0
  9 14  1  0
 14 15  1  0
 15 16  2  0
 16  4  1  0
 15  7  1  0
  1 17  1  0
  1 18  1  0
  1 19  1  0
  2 20  1  0
  2 21  1  0
  5 22  1  0
  6 23  1  0
 11 24  1  0
 11 25  1  0
 16 26  1  0
M  END
$$$$
