
     RDKit          3D

 67 70  0  0  0  0  0  0  0  0999 V2000
   -7.5210    3.5285   -0.2409 C   0  0  0  0  0  0  0  0  0  0  0  0
   -8.3263    2.2732    0.0860 C   0  0  0  0  0  0  0  0  0  0  0  0
   -7.9219    1.0766   -0.6696 N   0  0  0  0  0  0  0  0  0  0  0  0
   -8.7901   -0.0812   -0.3835 C   0  0  0  0  0  0  0  0  0  0  0  0
  -10.2446    0.0847   -0.8576 C   0  0  0  0  0  0  0  0  0  0  0  0
  -10.9472   -1.1498   -0.7369 O   0  0  0  0  0  0  0  0  0  0  0  0
   -6.4955    0.7273   -0.5237 C   0  0  0  0  0  0  0  0  0  0  0  0
   -6.0451    0.2960    0.8798 C   0  0  0  0  0  0  0  0  0  0  0  0
   -4.5245    0.2464    0.9954 C   0  0  0  0  0  0  0  0  0  0  0  0
   -3.9896   -0.6892    0.0574 O   0  0  0  0  0  0  0  0  0  0  0  0
   -2.6261   -0.8073    0.0243 C   0  0  0  0  0  0  0  0  0  0  0  0
   -2.1341   -1.7651   -0.8584 C   0  0  0  0  0  0  0  0  0  0  0  0
   -0.7588   -1.9657   -0.9845 C   0  0  0  0  0  0  0  0  0  0  0  0
    0.1537   -1.1888   -0.2250 C   0  0  0  0  0  0  0  0  0  0  0  0
    1.5583   -1.2876   -0.2561 C   0  0  0  0  0  0  0  0  0  0  0  0
    2.1928   -2.2798   -1.0985 N   0  0  0  0  0  0  0  0  0  0  0  0
    3.5497   -2.3052   -1.1797 C   0  0  0  0  0  0  0  0  0  0  0  0
    4.9282   -2.3356   -1.2429 C   0  0  0  0  0  0  0  0  0  0  0  0
    5.6142   -2.6426   -0.0615 C   0  0  0  0  0  0  0  0  0  0  0  0
    7.0285   -2.4215    0.3296 C   0  0  0  0  0  0  0  0  0  0  0  0
    7.3653   -0.9375    0.4446 C   0  0  0  0  0  0  0  0  0  0  0  0
    6.5202   -0.0701    0.6259 O   0  0  0  0  0  0  0  0  0  0  0  0
    8.7338   -0.7004    0.3500 N   0  0  0  0  0  0  0  0  0  0  0  0
    9.3801    0.5582    0.3443 C   0  0  0  0  0  0  0  0  0  0  0  0
   10.7843    0.5563    0.3530 C   0  0  0  0  0  0  0  0  0  0  0  0
   11.5027    1.7573    0.3303 C   0  0  0  0  0  0  0  0  0  0  0  0
   10.8220    2.9714    0.2974 C   0  0  0  0  0  0  0  0  0  0  0  0
    9.4319    2.9730    0.2919 C   0  0  0  0  0  0  0  0  0  0  0  0
    8.7754    4.1423    0.2507 F   0  0  0  0  0  0  0  0  0  0  0  0
    8.7083    1.7808    0.3181 C   0  0  0  0  0  0  0  0  0  0  0  0
    4.7712   -3.3070    0.7011 N   0  0  0  0  0  0  0  0  0  0  0  0
    3.6430   -3.1890    0.0027 N   0  0  0  0  0  0  0  0  0  0  0  0
    2.3421   -0.5313    0.5343 N   0  0  0  0  0  0  0  0  0  0  0  0
    1.7448    0.3477    1.3381 C   0  0  0  0  0  0  0  0  0  0  0  0
    0.4290    0.5371    1.4363 N   0  0  0  0  0  0  0  0  0  0  0  0
   -0.3517   -0.2271    0.6658 C   0  0  0  0  0  0  0  0  0  0  0  0
   -1.7241   -0.0558    0.7802 C   0  0  0  0  0  0  0  0  0  0  0  0
   -6.4987    3.4682    0.1393 H   0  0  0  0  0  0  0  0  0  0  0  0
   -7.9939    4.4058    0.2197 H   0  0  0  0  0  0  0  0  0  0  0  0
   -7.4835    3.7047   -1.3196 H   0  0  0  0  0  0  0  0  0  0  0  0
   -9.3709    2.5178   -0.1554 H   0  0  0  0  0  0  0  0  0  0  0  0
   -8.2900    2.0948    1.1656 H   0  0  0  0  0  0  0  0  0  0  0  0
   -8.7880   -0.3265    0.6881 H   0  0  0  0  0  0  0  0  0  0  0  0
   -8.3917   -0.9673   -0.8956 H   0  0  0  0  0  0  0  0  0  0  0  0
  -10.2885    0.4031   -1.9029 H   0  0  0  0  0  0  0  0  0  0  0  0
  -10.7783    0.8215   -0.2462 H   0  0  0  0  0  0  0  0  0  0  0  0
  -10.5451   -1.7706   -1.3708 H   0  0  0  0  0  0  0  0  0  0  0  0
   -6.2698   -0.0763   -1.2385 H   0  0  0  0  0  0  0  0  0  0  0  0
   -5.8823    1.5662   -0.8683 H   0  0  0  0  0  0  0  0  0  0  0  0
   -6.4239    0.9798    1.6465 H   0  0  0  0  0  0  0  0  0  0  0  0
   -6.4500   -0.6999    1.0963 H   0  0  0  0  0  0  0  0  0  0  0  0
   -4.2658   -0.0755    2.0154 H   0  0  0  0  0  0  0  0  0  0  0  0
   -4.1208    1.2509    0.8089 H   0  0  0  0  0  0  0  0  0  0  0  0
   -2.8277   -2.3605   -1.4483 H   0  0  0  0  0  0  0  0  0  0  0  0
   -0.4069   -2.7352   -1.6683 H   0  0  0  0  0  0  0  0  0  0  0  0
    1.7559   -2.1338   -2.0155 H   0  0  0  0  0  0  0  0  0  0  0  0
    5.4301   -1.9074   -2.1111 H   0  0  0  0  0  0  0  0  0  0  0  0
    7.2400   -2.8787    1.3118 H   0  0  0  0  0  0  0  0  0  0  0  0
    7.6865   -2.8928   -0.4087 H   0  0  0  0  0  0  0  0  0  0  0  0
    9.3395   -1.5116    0.3476 H   0  0  0  0  0  0  0  0  0  0  0  0
   11.3411   -0.3795    0.3837 H   0  0  0  0  0  0  0  0  0  0  0  0
   12.5904    1.7405    0.3338 H   0  0  0  0  0  0  0  0  0  0  0  0
   11.3634    3.9143    0.2704 H   0  0  0  0  0  0  0  0  0  0  0  0
    7.6265    1.8566    0.3132 H   0  0  0  0  0  0  0  0  0  0  0  0
    2.8094   -3.5813    0.4121 H   0  0  0  0  0  0  0  0  0  0  0  0
    2.3807    0.9608    1.9652 H   0  0  0  0  0  0  0  0  0  0  0  0
   -2.0664    0.6932    1.4906 H   0  0  0  0  0  0  0  0  0  0  0  0
  1  2  1  0
  2  3  1  0
  3  4  1  0
  4  5  1  0
  5  6  1  0
  3  7  1  0
  7  8  1  0
  8  9  1  0
  9 10  1  0
 10 11  1  0
 11 12  2  0
 12 13  1  0
 13 14  2  0
 14 15  1  0
 15 16  1  0
 16 17  1  0
 17 18  2  0
 18 19  1  0
 19 20  1  0
 20 21  1  0
 21 22  2  0
 21 23  1  0
 23 24  1  0
 24 25  2  0
 25 26  1  0
 26 27  2  0
 27 28  1  0
 28 29  1  0
 28 30  2  0
 19 31  2  0
 31 32  1  0
 15 33  2  0
 33 34  1  0
 34 35  2  0
 35 36  1  0
 36 37  2  0
 37 11  1  0
 36 14  1  0
 32 17  1  0
 30 24  1  0
  1 38  1  0
  1 39  1  0
  1 40  1  0
  2 41  1  0
  2 42  1  0
  4 43  1  0
  4 44  1  0
  5 45  1  0
  5 46  1  0
  6 47  1  0
  7 48  1  0
  7 49  1  0
  8 50  1  0
  8 51  1  0
  9 52  1  0
  9 53  1  0
 12 54  1  0
 13 55  1  0
 16 56  1  0
 18 57  1  0
 20 58  1  0
 20 59  1  0
 23 60  1  0
 25 61  1  0
 26 62  1  0
 27 63  1  0
 30 64  1  0
 32 65  1  0
 34 66  1  0
 37 67  1  0
M  END
$$$$
