
     RDKit          3D

 41 44  0  0  0  0  0  0  0  0999 V2000
    5.8383    2.6479   -0.8045 N   0  0  0  0  0  0  0  0  0  0  0  0
    5.1460    1.8185    0.0392 C   0  0  0  0  0  0  0  0  0  0  0  0
    4.8399    2.1767    1.1663 O   0  0  0  0  0  0  0  0  0  0  0  0
    4.8302    0.4826   -0.4964 C   0  0  0  0  0  0  0  0  0  0  0  0
    5.8389   -0.2882   -1.1054 C   0  0  0  0  0  0  0  0  0  0  0  0
    5.5595   -1.5627   -1.6022 C   0  0  0  0  0  0  0  0  0  0  0  0
    4.2746   -2.1078   -1.5115 C   0  0  0  0  0  0  0  0  0  0  0  0
    3.2916   -1.3185   -0.9076 C   0  0  0  0  0  0  0  0  0  0  0  0
    1.9608   -1.5418   -0.6629 N   0  0  0  0  0  0  0  0  0  0  0  0
    1.4279   -0.4288   -0.0563 C   0  0  0  0  0  0  0  0  0  0  0  0
    0.0254   -0.3253    0.3303 C   0  0  0  0  0  0  0  0  0  0  0  0
   -0.9940   -0.6630   -0.5704 C   0  0  0  0  0  0  0  0  0  0  0  0
   -2.3422   -0.5554   -0.2014 C   0  0  0  0  0  0  0  0  0  0  0  0
   -2.7075   -0.1134    1.0783 C   0  0  0  0  0  0  0  0  0  0  0  0
   -4.1472    0.0493    1.5392 C   0  0  2  0  0  0  0  0  0  0  0  0
   -5.2252   -0.7072    0.7627 C   0  0  0  0  0  0  0  0  0  0  0  0
   -5.7416    0.2768   -0.2821 C   0  0  0  0  0  0  0  0  0  0  0  0
   -5.1049    1.6113    0.0705 C   0  0  0  0  0  0  0  0  0  0  0  0
   -4.6020    1.4407    1.4297 N   0  0  0  0  0  0  0  0  0  0  0  0
   -1.6789    0.2298    1.9724 C   0  0  0  0  0  0  0  0  0  0  0  0
   -0.3383    0.1242    1.6003 C   0  0  0  0  0  0  0  0  0  0  0  0
    0.5936    0.4354    2.5129 F   0  0  0  0  0  0  0  0  0  0  0  0
    2.3610    0.4878    0.1034 N   0  0  0  0  0  0  0  0  0  0  0  0
    3.5297   -0.0437   -0.3971 C   0  0  0  0  0  0  0  0  0  0  0  0
    5.9221    3.6069   -0.4915 H   0  0  0  0  0  0  0  0  0  0  0  0
    5.8594    2.4757   -1.7996 H   0  0  0  0  0  0  0  0  0  0  0  0
    6.8533    0.0996   -1.1678 H   0  0  0  0  0  0  0  0  0  0  0  0
    6.3571   -2.1466   -2.0583 H   0  0  0  0  0  0  0  0  0  0  0  0
    4.0592   -3.1008   -1.8926 H   0  0  0  0  0  0  0  0  0  0  0  0
    1.4535   -2.3873   -0.8755 H   0  0  0  0  0  0  0  0  0  0  0  0
   -0.7539   -0.9853   -1.5812 H   0  0  0  0  0  0  0  0  0  0  0  0
   -3.0971   -0.8089   -0.9415 H   0  0  0  0  0  0  0  0  0  0  0  0
   -4.1941   -0.2698    2.5882 H   0  0  0  0  0  0  0  0  0  0  0  0
   -4.8842   -1.6472    0.3182 H   0  0  0  0  0  0  0  0  0  0  0  0
   -6.0543   -0.9569    1.4384 H   0  0  0  0  0  0  0  0  0  0  0  0
   -6.8350    0.3332   -0.2388 H   0  0  0  0  0  0  0  0  0  0  0  0
   -5.4632   -0.0337   -1.2946 H   0  0  0  0  0  0  0  0  0  0  0  0
   -4.2837    1.8380   -0.6192 H   0  0  0  0  0  0  0  0  0  0  0  0
   -5.8255    2.4326    0.0147 H   0  0  0  0  0  0  0  0  0  0  0  0
   -3.8404    2.0901    1.6193 H   0  0  0  0  0  0  0  0  0  0  0  0
   -1.9088    0.5853    2.9743 H   0  0  0  0  0  0  0  0  0  0  0  0
  1  2  1  0
  2  3  2  0
  2  4  1  0
  4  5  2  0
  5  6  1  0
  6  7  2  0
  7  8  1  0
  8  9  1  0
  9 10  1  0
 10 11  1  0
 11 12  2  0
 12 13  1  0
 13 14  2  0
 14 15  1  0
 15 16  1  0
 16 17  1  0
 17 18  1  0
 18 19  1  0
 14 20  1  0
 20 21  2  0
 21 22  1  0
 10 23  2  0
 23 24  1  0
 24  4  1  0
 24  8  2  0
 21 11  1  0
 19 15  1  0
  1 25  1  0
  1 26  1  0
  5 27  1  0
  6 28  1  0
  7 29  1  0
  9 30  1  0
 12 31  1  0
 13 32  1  0
 15 33  1  1
 16 34  1  0
 16 35  1  0
 17 36  1  0
 17 37  1  0
 18 38  1  0
 18 39  1  0
 19 40  1  0
 20 41  1  0
M  END
$$$$
