
     RDKit          3D

 58 62  0  0  0  0  0  0  0  0999 V2000
   -7.1607   -2.6384   -0.6120 C   0  0  0  0  0  0  0  0  0  0  0  0
   -6.4995   -1.3586   -0.5964 N   0  0  0  0  0  0  0  0  0  0  0  0
   -6.8808   -0.3759    0.2920 C   0  0  0  0  0  0  0  0  0  0  0  0
   -7.7322   -0.5157    1.1609 O   0  0  0  0  0  0  0  0  0  0  0  0
   -6.2369    0.9433    0.0859 C   0  0  0  0  0  0  0  0  0  0  0  0
   -7.1072    2.0178   -0.1451 C   0  0  0  0  0  0  0  0  0  0  0  0
   -6.5947    3.2837   -0.3988 C   0  0  0  0  0  0  0  0  0  0  0  0
   -5.2145    3.4801   -0.4139 C   0  0  0  0  0  0  0  0  0  0  0  0
   -4.3257    2.4217   -0.1570 C   0  0  0  0  0  0  0  0  0  0  0  0
   -2.9401    2.6517   -0.1521 C   0  0  0  0  0  0  0  0  0  0  0  0
   -2.0444    1.6246    0.1417 C   0  0  0  0  0  0  0  0  0  0  0  0
   -0.7049    1.9429    0.1043 O   0  0  0  0  0  0  0  0  0  0  0  0
    0.0972    1.4050    1.0910 C   0  0  0  0  0  0  0  0  0  0  0  0
   -0.1944    1.6311    2.4329 C   0  0  0  0  0  0  0  0  0  0  0  0
    0.6579    1.0875    3.3682 C   0  0  0  0  0  0  0  0  0  0  0  0
    1.7566    0.3688    3.0535 N   0  0  0  0  0  0  0  0  0  0  0  0
    2.0483    0.1796    1.7546 C   0  0  0  0  0  0  0  0  0  0  0  0
    3.1829   -0.5467    1.4282 C   0  0  0  0  0  0  0  0  0  0  0  0
    3.5557   -0.7659    0.0980 C   0  0  0  0  0  0  0  0  0  0  0  0
    4.6556   -1.5128   -0.2433 O   0  0  0  0  0  0  0  0  0  0  0  0
    5.8251   -1.2455    0.5382 C   0  0  0  0  0  0  0  0  0  0  0  0
    7.0452   -1.6765   -0.2725 C   0  0  0  0  0  0  0  0  0  0  0  0
    7.1199   -1.1664   -1.6616 N   0  0  0  0  0  0  0  0  0  0  0  0
    8.3543   -1.8513    0.4596 C   0  0  0  0  0  0  0  0  0  0  0  0
    7.6076   -3.0585   -0.0309 C   0  0  0  0  0  0  0  0  0  0  0  0
    2.7629   -0.2752   -0.9474 C   0  0  0  0  0  0  0  0  0  0  0  0
    3.2046   -0.5390   -2.2179 O   0  0  0  0  0  0  0  0  0  0  0  0
    2.3844   -0.1185   -3.2986 C   0  0  0  0  0  0  0  0  0  0  0  0
    1.6140    0.4517   -0.6331 C   0  0  0  0  0  0  0  0  0  0  0  0
    1.2479    0.6867    0.7134 C   0  0  0  0  0  0  0  0  0  0  0  0
   -2.5175    0.3421    0.4000 C   0  0  0  0  0  0  0  0  0  0  0  0
   -3.8933    0.0988    0.3954 C   0  0  0  0  0  0  0  0  0  0  0  0
   -4.8286    1.1228    0.1082 C   0  0  0  0  0  0  0  0  0  0  0  0
   -7.3377   -2.9874    0.4088 H   0  0  0  0  0  0  0  0  0  0  0  0
   -8.1166   -2.5300   -1.1302 H   0  0  0  0  0  0  0  0  0  0  0  0
   -6.5277   -3.3502   -1.1459 H   0  0  0  0  0  0  0  0  0  0  0  0
   -5.9391   -1.0933   -1.3975 H   0  0  0  0  0  0  0  0  0  0  0  0
   -8.1843    1.8595   -0.1335 H   0  0  0  0  0  0  0  0  0  0  0  0
   -7.2679    4.1173   -0.5847 H   0  0  0  0  0  0  0  0  0  0  0  0
   -4.8347    4.4804   -0.6160 H   0  0  0  0  0  0  0  0  0  0  0  0
   -2.5467    3.6439   -0.3634 H   0  0  0  0  0  0  0  0  0  0  0  0
   -1.0560    2.2110    2.7412 H   0  0  0  0  0  0  0  0  0  0  0  0
    0.4811    1.2192    4.4321 H   0  0  0  0  0  0  0  0  0  0  0  0
    3.7698   -0.9596    2.2430 H   0  0  0  0  0  0  0  0  0  0  0  0
    5.9170   -0.1731    0.7556 H   0  0  0  0  0  0  0  0  0  0  0  0
    5.7706   -1.8047    1.4794 H   0  0  0  0  0  0  0  0  0  0  0  0
    6.2537   -1.4371   -2.1397 H   0  0  0  0  0  0  0  0  0  0  0  0
    7.0981   -0.1466   -1.6603 H   0  0  0  0  0  0  0  0  0  0  0  0
    9.2703   -1.5833   -0.0554 H   0  0  0  0  0  0  0  0  0  0  0  0
    8.3832   -1.6744    1.5268 H   0  0  0  0  0  0  0  0  0  0  0  0
    8.0180   -3.5986   -0.8771 H   0  0  0  0  0  0  0  0  0  0  0  0
    7.1254   -3.6961    0.7017 H   0  0  0  0  0  0  0  0  0  0  0  0
    2.2922    0.9721   -3.3234 H   0  0  0  0  0  0  0  0  0  0  0  0
    2.8706   -0.4321   -4.2279 H   0  0  0  0  0  0  0  0  0  0  0  0
    1.4012   -0.5981   -3.2582 H   0  0  0  0  0  0  0  0  0  0  0  0
    0.9792    0.8523   -1.4173 H   0  0  0  0  0  0  0  0  0  0  0  0
   -1.8350   -0.4769    0.6081 H   0  0  0  0  0  0  0  0  0  0  0  0
   -4.2293   -0.9092    0.6347 H   0  0  0  0  0  0  0  0  0  0  0  0
  1  2  1  0
  2  3  1  0
  3  4  2  0
  3  5  1  0
  5  6  2  0
  6  7  1  0
  7  8  2  0
  8  9  1  0
  9 10  2  0
 10 11  1  0
 11 12  1  0
 12 13  1  0
 13 14  2  0
 14 15  1  0
 15 16  2  0
 16 17  1  0
 17 18  2  0
 18 19  1  0
 19 20  1  0
 20 21  1  0
 21 22  1  0
 22 23  1  0
 22 24  1  0
 24 25  1  0
 19 26  2  0
 26 27  1  0
 27 28  1  0
 26 29  1  0
 29 30  2  0
 11 31  2  0
 31 32  1  0
 32 33  2  0
 33  5  1  0
 33  9  1  0
 30 13  1  0
 30 17  1  0
 25 22  1  0
  1 34  1  0
  1 35  1  0
  1 36  1  0
  2 37  1  0
  6 38  1  0
  7 39  1  0
  8 40  1  0
 10 41  1  0
 14 42  1  0
 15 43  1  0
 18 44  1  0
 21 45  1  0
 21 46  1  0
 23 47  1  0
 23 48  1  0
 24 49  1  0
 24 50  1  0
 25 51  1  0
 25 52  1  0
 28 53  1  0
 28 54  1  0
 28 55  1  0
 29 56  1  0
 31 57  1  0
 32 58  1  0
M  END
$$$$
