
     RDKit          3D

 62 66  0  0  0  0  0  0  0  0999 V2000
   -4.6181    2.6787    2.1765 C   0  0  0  0  0  0  0  0  0  0  0  0
   -3.5735    1.9445    2.5853 C   0  0  0  0  0  0  0  0  0  0  0  0
   -3.0161    0.7709    1.8564 C   0  0  0  0  0  0  0  0  0  0  0  0
   -2.5431   -0.1466    2.5146 O   0  0  0  0  0  0  0  0  0  0  0  0
   -3.0472    0.8998    0.4853 N   0  0  0  0  0  0  0  0  0  0  0  0
   -2.6159   -0.0373   -0.4846 C   0  0  0  0  0  0  0  0  0  0  0  0
   -2.1818   -1.3259   -0.1396 C   0  0  0  0  0  0  0  0  0  0  0  0
   -1.7362   -2.2422   -1.1109 C   0  0  0  0  0  0  0  0  0  0  0  0
   -1.2998   -3.5611   -0.7440 N   0  0  0  0  0  0  0  0  0  0  0  0
   -1.9478   -4.6404   -1.3658 C   0  0  0  0  0  0  0  0  0  0  0  0
   -2.5948   -4.5998   -2.4125 O   0  0  0  0  0  0  0  0  0  0  0  0
   -1.9101   -5.9447   -0.6637 C   0  0  0  0  0  0  0  0  0  0  0  0
   -1.3321   -6.0886    0.5289 C   0  0  0  0  0  0  0  0  0  0  0  0
   -0.6097   -4.9711    1.1174 C   0  0  0  0  0  0  0  0  0  0  0  0
    0.0257   -5.1211    2.3389 C   0  0  0  0  0  0  0  0  0  0  0  0
    0.7880   -4.1742    2.9153 N   0  0  0  0  0  0  0  0  0  0  0  0
    1.0098   -3.0460    2.2315 C   0  0  0  0  0  0  0  0  0  0  0  0
    1.8759   -2.1281    2.8063 C   0  0  0  0  0  0  0  0  0  0  0  0
    2.2579   -0.9551    2.1523 C   0  0  0  0  0  0  0  0  0  0  0  0
    1.7909   -0.6832    0.8690 C   0  0  0  0  0  0  0  0  0  0  0  0
    2.2022    0.5263    0.1383 C   0  0  0  0  0  0  0  0  0  0  0  0
    3.5585    0.8587   -0.0153 C   0  0  0  0  0  0  0  0  0  0  0  0
    3.9446    2.0034   -0.7191 C   0  0  0  0  0  0  0  0  0  0  0  0
    2.9767    2.8239   -1.2909 C   0  0  0  0  0  0  0  0  0  0  0  0
    3.3684    4.0063   -1.9831 N   0  0  0  0  0  0  0  0  0  0  0  0
    3.5801    5.4070   -1.0533 S   0  0  0  0  0  6  0  0  0  0  0  0
    5.3526    5.4757   -0.9389 C   0  0  0  0  0  0  0  0  0  0  0  0
    3.0267    5.2282    0.2689 O   0  0  0  0  0  0  0  0  0  0  0  0
    3.1541    6.4961   -1.9072 O   0  0  0  0  0  0  0  0  0  0  0  0
    1.6254    2.5279   -1.1347 C   0  0  0  0  0  0  0  0  0  0  0  0
    1.2444    1.3843   -0.4283 C   0  0  0  0  0  0  0  0  0  0  0  0
    0.9063   -1.6110    0.2929 C   0  0  0  0  0  0  0  0  0  0  0  0
    0.4402   -2.7789    0.9656 C   0  0  0  0  0  0  0  0  0  0  0  0
   -0.4975   -3.7416    0.4535 C   0  0  0  0  0  0  0  0  0  0  0  0
   -1.7787   -1.8606   -2.4543 C   0  0  0  0  0  0  0  0  0  0  0  0
   -2.2150   -0.5862   -2.8165 C   0  0  0  0  0  0  0  0  0  0  0  0
   -2.6314    0.3376   -1.8447 C   0  0  0  0  0  0  0  0  0  0  0  0
   -3.0855    1.6966   -2.3053 C   0  0  0  0  0  0  0  0  0  0  0  0
   -5.1578    2.4781    1.2567 H   0  0  0  0  0  0  0  0  0  0  0  0
   -4.9852    3.4916    2.7963 H   0  0  0  0  0  0  0  0  0  0  0  0
   -3.1109    2.1271    3.5511 H   0  0  0  0  0  0  0  0  0  0  0  0
   -3.3685    1.7901    0.1347 H   0  0  0  0  0  0  0  0  0  0  0  0
   -2.2091   -1.6505    0.8961 H   0  0  0  0  0  0  0  0  0  0  0  0
   -2.4356   -6.7587   -1.1496 H   0  0  0  0  0  0  0  0  0  0  0  0
   -1.3525   -7.0425    1.0446 H   0  0  0  0  0  0  0  0  0  0  0  0
   -0.0539   -6.0408    2.9124 H   0  0  0  0  0  0  0  0  0  0  0  0
    2.2788   -2.3360    3.7956 H   0  0  0  0  0  0  0  0  0  0  0  0
    2.9291   -0.2649    2.6574 H   0  0  0  0  0  0  0  0  0  0  0  0
    4.3295    0.2173    0.4064 H   0  0  0  0  0  0  0  0  0  0  0  0
    5.0003    2.2311   -0.8298 H   0  0  0  0  0  0  0  0  0  0  0  0
    2.7901    4.2400   -2.7925 H   0  0  0  0  0  0  0  0  0  0  0  0
    5.6197    6.4012   -0.4236 H   0  0  0  0  0  0  0  0  0  0  0  0
    5.7731    5.4788   -1.9456 H   0  0  0  0  0  0  0  0  0  0  0  0
    5.7086    4.6192   -0.3662 H   0  0  0  0  0  0  0  0  0  0  0  0
    0.8605    3.1812   -1.5421 H   0  0  0  0  0  0  0  0  0  0  0  0
    0.1841    1.1721   -0.3044 H   0  0  0  0  0  0  0  0  0  0  0  0
    0.5972   -1.4253   -0.7330 H   0  0  0  0  0  0  0  0  0  0  0  0
   -1.4583   -2.5471   -3.2352 H   0  0  0  0  0  0  0  0  0  0  0  0
   -2.2290   -0.3233   -3.8726 H   0  0  0  0  0  0  0  0  0  0  0  0
   -4.1341    1.8577   -2.0362 H   0  0  0  0  0  0  0  0  0  0  0  0
   -2.4650    2.4784   -1.8554 H   0  0  0  0  0  0  0  0  0  0  0  0
   -3.0055    1.8030   -3.3925 H   0  0  0  0  0  0  0  0  0  0  0  0
  1  2  2  3
  2  3  1  0
  3  4  2  0
  3  5  1  0
  5  6  1  0
  6  7  2  0
  7  8  1  0
  8  9  1  0
  9 10  1  0
 10 11  2  0
 10 12  1  0
 12 13  2  0
 13 14  1  0
 14 15  2  0
 15 16  1  0
 16 17  2  0
 17 18  1  0
 18 19  2  0
 19 20  1  0
 20 21  1  0
 21 22  2  0
 22 23  1  0
 23 24  2  0
 24 25  1  0
 25 26  1  0
 26 27  1  0
 26 28  2  0
 26 29  2  0
 24 30  1  0
 30 31  2  0
 20 32  2  0
 32 33  1  0
 33 34  2  0
  8 35  2  0
 35 36  1  0
 36 37  2  0
 37 38  1  0
 37  6  1  0
 34  9  1  0
 34 14  1  0
 33 17  1  0
 31 21  1  0
  1 39  1  0
  1 40  1  0
  2 41  1  0
  5 42  1  0
  7 43  1  0
 12 44  1  0
 13 45  1  0
 15 46  1  0
 18 47  1  0
 19 48  1  0
 22 49  1  0
 23 50  1  0
 25 51  1  0
 27 52  1  0
 27 53  1  0
 27 54  1  0
 30 55  1  0
 31 56  1  0
 32 57  1  0
 35 58  1  0
 36 59  1  0
 38 60  1  0
 38 61  1  0
 38 62  1  0
M  END
$$$$
