
     RDKit          3D

 30 31  0  0  0  0  0  0  0  0999 V2000
    0.3674   -2.1127    1.2952 C   0  0  0  0  0  0  0  0  0  0  0  0
    0.4054   -1.1811    0.0745 C   0  0  0  0  0  0  0  0  0  0  0  0
    1.5894   -0.2134    0.0327 C   0  0  0  0  0  0  0  0  0  0  0  0
    2.3665    0.1034    1.1573 C   0  0  0  0  0  0  0  0  0  0  0  0
    3.4330    1.0016    1.0591 C   0  0  0  0  0  0  0  0  0  0  0  0
    3.7377    1.5984   -0.1619 C   0  0  0  0  0  0  0  0  0  0  0  0
    2.9761    1.2994   -1.2877 C   0  0  0  0  0  0  0  0  0  0  0  0
    1.9112    0.4020   -1.1911 C   0  0  0  0  0  0  0  0  0  0  0  0
   -0.9425   -0.4764   -0.0668 C   0  0  0  0  0  0  0  0  0  0  0  0
   -1.2681    0.6218    0.7519 C   0  0  0  0  0  0  0  0  0  0  0  0
   -2.5035    1.2644    0.6377 C   0  0  0  0  0  0  0  0  0  0  0  0
   -3.4270    0.8058   -0.2936 C   0  0  0  0  0  0  0  0  0  0  0  0
   -4.6448    1.4028   -0.4394 O   0  0  0  0  0  0  0  0  0  0  0  0
   -3.1388   -0.2822   -1.1078 C   0  0  0  0  0  0  0  0  0  0  0  0
   -1.9027   -0.9182   -0.9889 C   0  0  0  0  0  0  0  0  0  0  0  0
   -1.6200   -1.9967   -1.7808 O   0  0  0  0  0  0  0  0  0  0  0  0
   -0.4363   -2.8515    1.1939 H   0  0  0  0  0  0  0  0  0  0  0  0
    1.3098   -2.6618    1.4005 H   0  0  0  0  0  0  0  0  0  0  0  0
    0.1872   -1.5665    2.2280 H   0  0  0  0  0  0  0  0  0  0  0  0
    0.5585   -1.8417   -0.7901 H   0  0  0  0  0  0  0  0  0  0  0  0
    2.1565   -0.3382    2.1275 H   0  0  0  0  0  0  0  0  0  0  0  0
    4.0264    1.2353    1.9393 H   0  0  0  0  0  0  0  0  0  0  0  0
    4.5672    2.2963   -0.2354 H   0  0  0  0  0  0  0  0  0  0  0  0
    3.2079    1.7640   -2.2422 H   0  0  0  0  0  0  0  0  0  0  0  0
    1.3223    0.1821   -2.0803 H   0  0  0  0  0  0  0  0  0  0  0  0
   -0.5521    0.9890    1.4844 H   0  0  0  0  0  0  0  0  0  0  0  0
   -2.7201    2.1125    1.2793 H   0  0  0  0  0  0  0  0  0  0  0  0
   -4.6980    2.1492    0.1803 H   0  0  0  0  0  0  0  0  0  0  0  0
   -3.8834   -0.6184   -1.8215 H   0  0  0  0  0  0  0  0  0  0  0  0
   -2.3853   -2.1693   -2.3540 H   0  0  0  0  0  0  0  0  0  0  0  0
  1  2  1  0
  2  3  1  0
  3  4  2  0
  4  5  1  0
  5  6  2  0
  6  7  1  0
  7  8  2  0
  2  9  1  0
  9 10  2  0
 10 11  1  0
 11 12  2  0
 12 13  1  0
 12 14  1  0
 14 15  2  0
 15 16  1  0
  8  3  1  0
 15  9  1  0
  1 17  1  0
  1 18  1  0
  1 19  1  0
  2 20  1  0
  4 21  1  0
  5 22  1  0
  6 23  1  0
  7 24  1  0
  8 25  1  0
 10 26  1  0
 11 27  1  0
 13 28  1  0
 14 29  1  0
 16 30  1  0
M  END
$$$$
