
     RDKit          3D

 23 23  0  0  0  0  0  0  0  0999 V2000
   -3.6966   -0.1974    0.5133 N   0  0  0  0  0  0  0  0  0  0  0  0
   -2.2404   -0.4019    0.5419 C   0  0  0  0  0  0  0  0  0  0  0  0
   -1.5172    0.5263   -0.4592 C   0  0  2  0  0  0  0  0  0  0  0  0
   -1.9635    0.2240   -1.7890 O   0  0  0  0  0  0  0  0  0  0  0  0
   -0.0117    0.3798   -0.3874 C   0  0  0  0  0  0  0  0  0  0  0  0
    0.7611    1.3596    0.2559 C   0  0  0  0  0  0  0  0  0  0  0  0
    2.1506    1.2316    0.3389 C   0  0  0  0  0  0  0  0  0  0  0  0
    2.7758    0.1195   -0.2194 C   0  0  0  0  0  0  0  0  0  0  0  0
    4.1333   -0.0194   -0.1470 O   0  0  0  0  0  0  0  0  0  0  0  0
    2.0201   -0.8632   -0.8568 C   0  0  0  0  0  0  0  0  0  0  0  0
    2.6501   -1.9486   -1.3979 O   0  0  0  0  0  0  0  0  0  0  0  0
    0.6338   -0.7395   -0.9407 C   0  0  0  0  0  0  0  0  0  0  0  0
   -4.1529   -0.9835    0.9730 H   0  0  0  0  0  0  0  0  0  0  0  0
   -3.9875   -0.2329   -0.4678 H   0  0  0  0  0  0  0  0  0  0  0  0
   -2.0440   -1.4499    0.2859 H   0  0  0  0  0  0  0  0  0  0  0  0
   -1.8769   -0.2299    1.5607 H   0  0  0  0  0  0  0  0  0  0  0  0
   -1.7980    1.5687   -0.2643 H   0  0  0  0  0  0  0  0  0  0  0  0
   -1.3820    0.7207   -2.3909 H   0  0  0  0  0  0  0  0  0  0  0  0
    0.2848    2.2318    0.7005 H   0  0  0  0  0  0  0  0  0  0  0  0
    2.7247    2.0041    0.8410 H   0  0  0  0  0  0  0  0  0  0  0  0
    4.5050    0.7378    0.3301 H   0  0  0  0  0  0  0  0  0  0  0  0
    1.9889   -2.5321   -1.8001 H   0  0  0  0  0  0  0  0  0  0  0  0
    0.0423   -1.5058   -1.4357 H   0  0  0  0  0  0  0  0  0  0  0  0
  1  2  1  0
  2  3  1  0
  3  4  1  0
  3  5  1  0
  5  6  2  0
  6  7  1  0
  7  8  2  0
  8  9  1  0
  8 10  1  0
 10 11  1  0
 10 12  2  0
 12  5  1  0
  1 13  1  0
  1 14  1  0
  2 15  1  0
  2 16  1  0
  3 17  1  1
  4 18  1  0
  6 19  1  0
  7 20  1  0
  9 21  1  0
 11 22  1  0
 12 23  1  0
M  END
$$$$
