
     RDKit          3D

 24 25  0  0  0  0  0  0  0  0999 V2000
    1.5140   -1.4708   -0.5889 N   0  0  0  0  0  0  0  0  0  0  0  0
    0.9586   -0.4275    0.2978 C   0  0  1  0  0  0  0  0  0  0  0  0
    1.4485   -0.6885    1.7430 C   0  0  0  0  0  0  0  0  0  0  0  0
    0.7612   -0.8083    2.7427 O   0  0  0  0  0  0  0  0  0  0  0  0
    2.7963   -0.7875    1.8231 O   0  0  0  0  0  0  0  0  0  0  0  0
    1.3954    0.9814   -0.1139 C   0  0  0  0  0  0  0  0  0  0  0  0
    0.0632    2.0312    0.4477 S   0  0  0  0  0  6  0  0  0  0  0  0
    0.2831    2.3791    1.8325 O   0  0  0  0  0  0  0  0  0  0  0  0
   -0.2378    3.0103   -0.5732 O   0  0  0  0  0  0  0  0  0  0  0  0
   -1.2545    0.7886    0.4031 C   0  0  1  0  0  0  0  0  0  0  0  0
   -1.3647    0.0803   -0.9257 C   0  0  2  0  0  0  0  0  0  0  0  0
   -2.6494   -0.5294   -1.3090 C   0  0  0  0  0  0  0  0  0  0  0  0
   -3.5195   -0.8654   -0.5252 O   0  0  0  0  0  0  0  0  0  0  0  0
   -2.7711   -0.7028   -2.6363 O   0  0  0  0  0  0  0  0  0  0  0  0
   -0.5503   -0.5304    0.2045 C   0  0  1  0  0  0  0  0  0  0  0  0
    2.5252   -1.5234   -0.4363 H   0  0  0  0  0  0  0  0  0  0  0  0
    1.3830   -1.2270   -1.5690 H   0  0  0  0  0  0  0  0  0  0  0  0
    2.9554   -0.9700    2.7752 H   0  0  0  0  0  0  0  0  0  0  0  0
    2.3335    1.3235    0.3300 H   0  0  0  0  0  0  0  0  0  0  0  0
    1.4485    1.0955   -1.2020 H   0  0  0  0  0  0  0  0  0  0  0  0
   -2.0871    0.8614    1.0842 H   0  0  0  0  0  0  0  0  0  0  0  0
   -0.8248    0.4989   -1.7688 H   0  0  0  0  0  0  0  0  0  0  0  0
   -3.6551   -1.1136   -2.7417 H   0  0  0  0  0  0  0  0  0  0  0  0
   -0.9518   -1.4054    0.7063 H   0  0  0  0  0  0  0  0  0  0  0  0
  2  1  1  6
  2  3  1  0
  3  4  2  0
  3  5  1  0
  2  6  1  0
  6  7  1  0
  7  8  2  0
  7  9  2  0
  7 10  1  0
 10 11  1  0
 11 12  1  0
 12 13  2  0
 12 14  1  0
 11 15  1  0
 15  2  1  0
 15 10  1  0
  1 16  1  0
  1 17  1  0
  5 18  1  0
  6 19  1  0
  6 20  1  0
 10 21  1  1
 11 22  1  6
 14 23  1  0
 15 24  1  1
M  END
$$$$
