
     RDKit          3D

 54 57  0  0  0  0  0  0  0  0999 V2000
   -5.7191    0.5703    4.2543 C   0  0  0  0  0  0  0  0  0  0  0  0
   -5.0251    0.4012    2.9353 C   0  0  0  0  0  0  0  0  0  0  0  0
   -5.1522    1.3734    1.9367 C   0  0  0  0  0  0  0  0  0  0  0  0
   -4.4731    1.2349    0.7234 C   0  0  0  0  0  0  0  0  0  0  0  0
   -3.6519    0.1253    0.4947 C   0  0  0  0  0  0  0  0  0  0  0  0
   -2.9601   -0.0299   -0.7799 C   0  0  0  0  0  0  0  0  0  0  0  0
   -1.6160    0.0967   -1.1152 C   0  0  0  0  0  0  0  0  0  0  0  0
   -0.4928    0.4358   -0.2345 C   0  0  0  0  0  0  0  0  0  0  0  0
   -0.5884    0.6125    0.9751 O   0  0  0  0  0  0  0  0  0  0  0  0
    0.6974    0.5188   -0.9227 N   0  0  0  0  0  0  0  0  0  0  0  0
    1.9659    0.7770   -0.2804 C   0  0  0  0  0  0  0  0  0  0  0  0
    2.5535   -0.4931    0.3317 C   0  0  0  0  0  0  0  0  0  0  0  0
    3.8569   -0.2271    1.0943 C   0  0  0  0  0  0  0  0  0  0  0  0
    4.9208    0.3396    0.2548 N   0  0  0  0  0  0  0  0  0  0  0  0
    5.5200   -0.6402   -0.6783 C   0  0  0  0  0  0  0  0  0  0  0  0
    6.8986   -1.1566   -0.2333 C   0  0  0  0  0  0  0  0  0  0  0  0
    7.8672   -0.1130   -0.0681 O   0  0  0  0  0  0  0  0  0  0  0  0
    7.2837    1.1377    0.3225 C   0  0  0  0  0  0  0  0  0  0  0  0
    5.9680    0.9637    1.0942 C   0  0  0  0  0  0  0  0  0  0  0  0
   -1.4223   -0.1393   -2.4742 N   0  0  0  0  0  0  0  0  0  0  0  0
   -2.6138   -0.4108   -2.9557 C   0  0  0  0  0  0  0  0  0  0  0  0
   -3.0314   -0.7335   -4.2785 C   0  0  0  0  0  0  0  0  0  0  0  0
   -4.3292   -0.9930   -4.5282 C   0  0  0  0  0  0  0  0  0  0  0  0
   -5.3264   -0.9541   -3.4717 C   0  0  0  0  0  0  0  0  0  0  0  0
   -4.9399   -0.6452   -2.2226 C   0  0  0  0  0  0  0  0  0  0  0  0
   -3.5925   -0.3688   -1.9657 N   0  0  0  0  0  0  0  0  0  0  0  0
   -3.5075   -0.8362    1.4990 C   0  0  0  0  0  0  0  0  0  0  0  0
   -4.1864   -0.6970    2.7125 C   0  0  0  0  0  0  0  0  0  0  0  0
   -5.0734    1.1151    4.9498 H   0  0  0  0  0  0  0  0  0  0  0  0
   -6.6567    1.1231    4.1345 H   0  0  0  0  0  0  0  0  0  0  0  0
   -5.9696   -0.4023    4.6907 H   0  0  0  0  0  0  0  0  0  0  0  0
   -5.7745    2.2503    2.1001 H   0  0  0  0  0  0  0  0  0  0  0  0
   -4.5804    2.0060   -0.0356 H   0  0  0  0  0  0  0  0  0  0  0  0
    0.6530    0.2980   -1.9140 H   0  0  0  0  0  0  0  0  0  0  0  0
    2.6300    1.1898   -1.0462 H   0  0  0  0  0  0  0  0  0  0  0  0
    1.8163    1.5387    0.4929 H   0  0  0  0  0  0  0  0  0  0  0  0
    2.6998   -1.2468   -0.4507 H   0  0  0  0  0  0  0  0  0  0  0  0
    1.8308   -0.9291    1.0332 H   0  0  0  0  0  0  0  0  0  0  0  0
    4.1972   -1.1532    1.5751 H   0  0  0  0  0  0  0  0  0  0  0  0
    3.6190    0.4755    1.9043 H   0  0  0  0  0  0  0  0  0  0  0  0
    4.8584   -1.4915   -0.8684 H   0  0  0  0  0  0  0  0  0  0  0  0
    5.6424   -0.1241   -1.6389 H   0  0  0  0  0  0  0  0  0  0  0  0
    7.2953   -1.8542   -0.9781 H   0  0  0  0  0  0  0  0  0  0  0  0
    6.8199   -1.7038    0.7134 H   0  0  0  0  0  0  0  0  0  0  0  0
    8.0181    1.6610    0.9432 H   0  0  0  0  0  0  0  0  0  0  0  0
    7.1311    1.7413   -0.5799 H   0  0  0  0  0  0  0  0  0  0  0  0
    5.6134    1.9412    1.4391 H   0  0  0  0  0  0  0  0  0  0  0  0
    6.1666    0.3442    1.9789 H   0  0  0  0  0  0  0  0  0  0  0  0
   -2.2853   -0.7642   -5.0642 H   0  0  0  0  0  0  0  0  0  0  0  0
   -4.6617   -1.2411   -5.5317 H   0  0  0  0  0  0  0  0  0  0  0  0
   -6.3602   -1.1774   -3.7134 H   0  0  0  0  0  0  0  0  0  0  0  0
   -5.6307   -0.6032   -1.3898 H   0  0  0  0  0  0  0  0  0  0  0  0
   -2.8555   -1.6936    1.3503 H   0  0  0  0  0  0  0  0  0  0  0  0
   -4.0474   -1.4486    3.4861 H   0  0  0  0  0  0  0  0  0  0  0  0
  1  2  1  0
  2  3  2  0
  3  4  1  0
  4  5  2  0
  5  6  1  0
  6  7  2  0
  7  8  1  0
  8  9  2  0
  8 10  1  0
 10 11  1  0
 11 12  1  0
 12 13  1  0
 13 14  1  0
 14 15  1  0
 15 16  1  0
 16 17  1  0
 17 18  1  0
 18 19  1  0
  7 20  1  0
 20 21  2  0
 21 22  1  0
 22 23  2  0
 23 24  1  0
 24 25  2  0
 25 26  1  0
  5 27  1  0
 27 28  2  0
 28  2  1  0
 26  6  1  0
 19 14  1  0
 26 21  1  0
  1 29  1  0
  1 30  1  0
  1 31  1  0
  3 32  1  0
  4 33  1  0
 10 34  1  0
 11 35  1  0
 11 36  1  0
 12 37  1  0
 12 38  1  0
 13 39  1  0
 13 40  1  0
 15 41  1  0
 15 42  1  0
 16 43  1  0
 16 44  1  0
 18 45  1  0
 18 46  1  0
 19 47  1  0
 19 48  1  0
 22 49  1  0
 23 50  1  0
 24 51  1  0
 25 52  1  0
 27 53  1  0
 28 54  1  0
M  END
$$$$
