
     RDKit          3D

 55 58  0  0  0  0  0  0  0  0999 V2000
   -5.8061    1.2269   -4.6374 C   0  0  0  0  0  0  0  0  0  0  0  0
   -6.1345   -0.1037   -3.9817 C   0  0  0  0  0  0  0  0  0  0  0  0
   -5.9495   -0.0438   -2.5155 C   0  0  0  0  0  0  0  0  0  0  0  0
   -6.8232    0.2155   -1.5684 N   0  0  0  0  0  0  0  0  0  0  0  0
   -6.1300    0.1487   -0.3782 N   0  0  0  0  0  0  0  0  0  0  0  0
   -4.8773   -0.1482   -0.6728 C   0  0  0  0  0  0  0  0  0  0  0  0
   -3.7011   -0.3429    0.1747 C   0  0  0  0  0  0  0  0  0  0  0  0
   -2.5697   -0.5873   -0.5261 N   0  0  0  0  0  0  0  0  0  0  0  0
   -1.3812   -0.7805    0.1192 N   0  0  0  0  0  0  0  0  0  0  0  0
   -1.3016   -0.7220    1.4635 C   0  0  0  0  0  0  0  0  0  0  0  0
   -0.0515   -0.9036    2.1069 N   0  0  0  0  0  0  0  0  0  0  0  0
    1.0795   -1.1009    1.1935 C   0  0  0  0  0  0  0  0  0  0  0  0
    2.3277   -1.4143    2.0223 C   0  0  0  0  0  0  0  0  0  0  0  0
    3.5529   -1.7097    1.1496 C   0  0  0  0  0  0  0  0  0  0  0  0
    3.9598   -0.5817    0.3073 N   0  0  0  0  0  0  0  0  0  0  0  0
    4.9624   -0.9759   -0.6917 C   0  0  0  0  0  0  0  0  0  0  0  0
    5.3336    0.1776   -1.6640 C   0  0  0  0  0  0  0  0  0  0  0  0
    5.2055    1.5354   -1.1019 N   0  0  0  0  0  0  0  0  0  0  0  0
    6.0722    2.4854   -1.7858 C   0  0  0  0  0  0  0  0  0  0  0  0
    5.4306    1.5185    0.3455 C   0  0  0  0  0  0  0  0  0  0  0  0
    4.4403    0.5789    1.0875 C   0  0  0  0  0  0  0  0  0  0  0  0
   -2.4616   -0.4990    2.2415 C   0  0  0  0  0  0  0  0  0  0  0  0
   -2.4331   -0.4848    3.6594 C   0  0  0  0  0  0  0  0  0  0  0  0
   -3.5771   -0.2522    4.4207 C   0  0  0  0  0  0  0  0  0  0  0  0
   -4.7862   -0.0319    3.7846 C   0  0  0  0  0  0  0  0  0  0  0  0
   -4.8493   -0.0541    2.3904 C   0  0  0  0  0  0  0  0  0  0  0  0
   -3.7017   -0.2914    1.5843 C   0  0  0  0  0  0  0  0  0  0  0  0
   -4.6952   -0.2857   -2.0318 O   0  0  0  0  0  0  0  0  0  0  0  0
   -5.9554    1.1642   -5.7199 H   0  0  0  0  0  0  0  0  0  0  0  0
   -4.7648    1.5130   -4.4536 H   0  0  0  0  0  0  0  0  0  0  0  0
   -6.4466    2.0274   -4.2512 H   0  0  0  0  0  0  0  0  0  0  0  0
   -7.1723   -0.3744   -4.2059 H   0  0  0  0  0  0  0  0  0  0  0  0
   -5.4994   -0.8898   -4.4054 H   0  0  0  0  0  0  0  0  0  0  0  0
    0.1057   -0.0959    2.7051 H   0  0  0  0  0  0  0  0  0  0  0  0
    0.8837   -1.9432    0.5184 H   0  0  0  0  0  0  0  0  0  0  0  0
    1.2370   -0.1968    0.5935 H   0  0  0  0  0  0  0  0  0  0  0  0
    2.5356   -0.5924    2.7182 H   0  0  0  0  0  0  0  0  0  0  0  0
    2.1303   -2.2944    2.6485 H   0  0  0  0  0  0  0  0  0  0  0  0
    4.3844   -2.0299    1.7905 H   0  0  0  0  0  0  0  0  0  0  0  0
    3.3042   -2.5686    0.5125 H   0  0  0  0  0  0  0  0  0  0  0  0
    4.5926   -1.8165   -1.2914 H   0  0  0  0  0  0  0  0  0  0  0  0
    5.8737   -1.3188   -0.1828 H   0  0  0  0  0  0  0  0  0  0  0  0
    4.6775    0.1227   -2.5412 H   0  0  0  0  0  0  0  0  0  0  0  0
    6.3569   -0.0094   -2.0154 H   0  0  0  0  0  0  0  0  0  0  0  0
    5.8532    2.5023   -2.8592 H   0  0  0  0  0  0  0  0  0  0  0  0
    7.1337    2.2470   -1.6535 H   0  0  0  0  0  0  0  0  0  0  0  0
    5.8999    3.5009   -1.4126 H   0  0  0  0  0  0  0  0  0  0  0  0
    6.4580    1.1929    0.5588 H   0  0  0  0  0  0  0  0  0  0  0  0
    5.3197    2.5277    0.7607 H   0  0  0  0  0  0  0  0  0  0  0  0
    4.9326    0.2542    2.0134 H   0  0  0  0  0  0  0  0  0  0  0  0
    3.5616    1.1681    1.3768 H   0  0  0  0  0  0  0  0  0  0  0  0
   -1.5025   -0.6769    4.1909 H   0  0  0  0  0  0  0  0  0  0  0  0
   -3.5201   -0.2506    5.5061 H   0  0  0  0  0  0  0  0  0  0  0  0
   -5.6869    0.1492    4.3662 H   0  0  0  0  0  0  0  0  0  0  0  0
   -5.8271    0.1146    1.9443 H   0  0  0  0  0  0  0  0  0  0  0  0
  1  2  1  0
  2  3  1  0
  3  4  2  0
  4  5  1  0
  5  6  2  0
  6  7  1  0
  7  8  2  0
  8  9  1  0
  9 10  2  0
 10 11  1  0
 11 12  1  0
 12 13  1  0
 13 14  1  0
 14 15  1  0
 15 16  1  0
 16 17  1  0
 17 18  1  0
 18 19  1  0
 18 20  1  0
 20 21  1  0
 10 22  1  0
 22 23  2  0
 23 24  1  0
 24 25  2  0
 25 26  1  0
 26 27  2  0
  6 28  1  0
 28  3  1  0
 27  7  1  0
 21 15  1  0
 27 22  1  0
  1 29  1  0
  1 30  1  0
  1 31  1  0
  2 32  1  0
  2 33  1  0
 11 34  1  0
 12 35  1  0
 12 36  1  0
 13 37  1  0
 13 38  1  0
 14 39  1  0
 14 40  1  0
 16 41  1  0
 16 42  1  0
 17 43  1  0
 17 44  1  0
 19 45  1  0
 19 46  1  0
 19 47  1  0
 20 48  1  0
 20 49  1  0
 21 50  1  0
 21 51  1  0
 23 52  1  0
 24 53  1  0
 25 54  1  0
 26 55  1  0
M  END
$$$$
