
     RDKit          3D

 46 49  0  0  0  0  0  0  0  0999 V2000
   -3.5246    2.7362    0.7337 C   0  0  0  0  0  0  0  0  0  0  0  0
   -3.7930    1.3269    0.5211 N   0  0  0  0  0  0  0  0  0  0  0  0
   -3.0775    0.6701   -0.4816 C   0  0  0  0  0  0  0  0  0  0  0  0
   -2.2278    1.1921   -1.1996 O   0  0  0  0  0  0  0  0  0  0  0  0
   -3.4117   -0.7065   -0.5923 C   0  0  0  0  0  0  0  0  0  0  0  0
   -4.3029   -1.3235    0.2309 C   0  0  0  0  0  0  0  0  0  0  0  0
   -4.4378   -2.6451   -0.0680 N   0  0  0  0  0  0  0  0  0  0  0  0
   -3.6149   -2.8420   -1.0787 C   0  0  0  0  0  0  0  0  0  0  0  0
   -2.9719   -1.6857   -1.4385 N   0  0  0  0  0  0  0  0  0  0  0  0
   -2.0338   -1.5418   -2.5315 C   0  0  0  0  0  0  0  0  0  0  0  0
   -0.6024   -1.6661   -2.0501 C   0  0  0  0  0  0  0  0  0  0  0  0
   -0.0616   -2.7679   -1.9893 O   0  0  0  0  0  0  0  0  0  0  0  0
   -0.0309   -0.4655   -1.6969 N   0  0  0  0  0  0  0  0  0  0  0  0
    1.2565   -0.2362   -1.2023 C   0  0  0  0  0  0  0  0  0  0  0  0
    2.2302   -1.2065   -1.0591 C   0  0  0  0  0  0  0  0  0  0  0  0
    3.4790   -0.8457   -0.5449 C   0  0  0  0  0  0  0  0  0  0  0  0
    3.7241    0.4746   -0.1877 C   0  0  0  0  0  0  0  0  0  0  0  0
    5.0055    0.9605    0.3623 C   0  0  0  0  0  0  0  0  0  0  0  0
    5.4056    2.2988    0.1774 C   0  0  0  0  0  0  0  0  0  0  0  0
    6.6157    2.7793    0.6882 C   0  0  0  0  0  0  0  0  0  0  0  0
    7.4549    1.9308    1.4040 C   0  0  0  0  0  0  0  0  0  0  0  0
    7.0857    0.6047    1.6067 C   0  0  0  0  0  0  0  0  0  0  0  0
    5.8740    0.1266    1.0938 C   0  0  0  0  0  0  0  0  0  0  0  0
    2.7487    1.3966   -0.3518 N   0  0  0  0  0  0  0  0  0  0  0  0
    1.5144    1.0392   -0.8577 N   0  0  0  0  0  0  0  0  0  0  0  0
   -4.9513   -0.6459    1.2354 N   0  0  0  0  0  0  0  0  0  0  0  0
   -5.8820   -1.3468    2.1029 C   0  0  0  0  0  0  0  0  0  0  0  0
   -4.7028    0.7168    1.4124 C   0  0  0  0  0  0  0  0  0  0  0  0
   -5.2479    1.3680    2.3082 O   0  0  0  0  0  0  0  0  0  0  0  0
   -4.4664    3.2759    0.8814 H   0  0  0  0  0  0  0  0  0  0  0  0
   -2.9183    2.8396    1.6408 H   0  0  0  0  0  0  0  0  0  0  0  0
   -2.9887    3.1840   -0.1077 H   0  0  0  0  0  0  0  0  0  0  0  0
   -3.4480   -3.7880   -1.5792 H   0  0  0  0  0  0  0  0  0  0  0  0
   -2.2341   -2.3287   -3.2676 H   0  0  0  0  0  0  0  0  0  0  0  0
   -2.2109   -0.5838   -3.0308 H   0  0  0  0  0  0  0  0  0  0  0  0
   -0.6047    0.3805   -1.6939 H   0  0  0  0  0  0  0  0  0  0  0  0
    2.0648   -2.2401   -1.3374 H   0  0  0  0  0  0  0  0  0  0  0  0
    4.2470   -1.6062   -0.4524 H   0  0  0  0  0  0  0  0  0  0  0  0
    4.7661    2.9883   -0.3741 H   0  0  0  0  0  0  0  0  0  0  0  0
    6.8942    3.8184    0.5311 H   0  0  0  0  0  0  0  0  0  0  0  0
    8.3924    2.3034    1.8070 H   0  0  0  0  0  0  0  0  0  0  0  0
    7.7351   -0.0601    2.1731 H   0  0  0  0  0  0  0  0  0  0  0  0
    5.6137   -0.9103    1.2941 H   0  0  0  0  0  0  0  0  0  0  0  0
   -6.7309   -1.6986    1.5063 H   0  0  0  0  0  0  0  0  0  0  0  0
   -6.2582   -0.6997    2.9001 H   0  0  0  0  0  0  0  0  0  0  0  0
   -5.3725   -2.2021    2.5622 H   0  0  0  0  0  0  0  0  0  0  0  0
  1  2  1  0
  2  3  1  0
  3  4  2  0
  3  5  1  0
  5  6  2  0
  6  7  1  0
  7  8  2  0
  8  9  1  0
  9 10  1  0
 10 11  1  0
 11 12  2  0
 11 13  1  0
 13 14  1  0
 14 15  2  0
 15 16  1  0
 16 17  2  0
 17 18  1  0
 18 19  2  0
 19 20  1  0
 20 21  2  0
 21 22  1  0
 22 23  2  0
 17 24  1  0
 24 25  2  0
  6 26  1  0
 26 27  1  0
 26 28  1  0
 28 29  2  0
 28  2  1  0
  9  5  1  0
 25 14  1  0
 23 18  1  0
  1 30  1  0
  1 31  1  0
  1 32  1  0
  8 33  1  0
 10 34  1  0
 10 35  1  0
 13 36  1  0
 15 37  1  0
 16 38  1  0
 19 39  1  0
 20 40  1  0
 21 41  1  0
 22 42  1  0
 23 43  1  0
 27 44  1  0
 27 45  1  0
 27 46  1  0
M  END
$$$$
