
     RDKit          3D

 34 36  0  0  0  0  0  0  0  0999 V2000
   -5.9611    1.9006   -0.8277 C   0  0  0  0  0  0  0  0  0  0  0  0
   -5.1682    0.6686   -0.4677 C   0  0  0  0  0  0  0  0  0  0  0  0
   -5.7345   -0.3784   -0.1770 O   0  0  0  0  0  0  0  0  0  0  0  0
   -3.8042    0.8998   -0.4881 N   0  0  0  0  0  0  0  0  0  0  0  0
   -2.7732   -0.0182   -0.1983 C   0  0  0  0  0  0  0  0  0  0  0  0
   -2.9919   -1.3521    0.1606 C   0  0  0  0  0  0  0  0  0  0  0  0
   -1.9139   -2.2018    0.4358 C   0  0  0  0  0  0  0  0  0  0  0  0
   -0.6096   -1.7152    0.3504 C   0  0  0  0  0  0  0  0  0  0  0  0
    0.5441   -2.5805    0.6358 C   0  0  0  0  0  0  0  0  0  0  0  0
    0.4238   -3.7581    0.9452 O   0  0  0  0  0  0  0  0  0  0  0  0
    1.8735   -1.9578    0.5285 C   0  0  0  0  0  0  0  0  0  0  0  0
    1.9657   -0.6699    0.1658 C   0  0  0  0  0  0  0  0  0  0  0  0
    3.2704    0.0038    0.0466 C   0  0  0  0  0  0  0  0  0  0  0  0
    4.3230   -0.5764   -0.6795 C   0  0  0  0  0  0  0  0  0  0  0  0
    5.5543    0.0772   -0.7965 C   0  0  0  0  0  0  0  0  0  0  0  0
    5.7494    1.3194   -0.1940 C   0  0  0  0  0  0  0  0  0  0  0  0
    4.7124    1.9105    0.5240 C   0  0  0  0  0  0  0  0  0  0  0  0
    3.4871    1.2558    0.6373 C   0  0  0  0  0  0  0  0  0  0  0  0
    2.5148    1.8513    1.3456 F   0  0  0  0  0  0  0  0  0  0  0  0
    0.8792    0.1432   -0.1143 O   0  0  0  0  0  0  0  0  0  0  0  0
   -0.3798   -0.3924   -0.0085 C   0  0  0  0  0  0  0  0  0  0  0  0
   -1.4561    0.4552   -0.2814 C   0  0  0  0  0  0  0  0  0  0  0  0
   -6.9490    1.6033   -1.1912 H   0  0  0  0  0  0  0  0  0  0  0  0
   -6.0746    2.5300    0.0588 H   0  0  0  0  0  0  0  0  0  0  0  0
   -5.4648    2.4670   -1.6210 H   0  0  0  0  0  0  0  0  0  0  0  0
   -3.5084    1.8375   -0.7299 H   0  0  0  0  0  0  0  0  0  0  0  0
   -3.9927   -1.7670    0.2382 H   0  0  0  0  0  0  0  0  0  0  0  0
   -2.0992   -3.2368    0.7161 H   0  0  0  0  0  0  0  0  0  0  0  0
    2.7236   -2.5857    0.7618 H   0  0  0  0  0  0  0  0  0  0  0  0
    4.1930   -1.5381   -1.1721 H   0  0  0  0  0  0  0  0  0  0  0  0
    6.3609   -0.3839   -1.3625 H   0  0  0  0  0  0  0  0  0  0  0  0
    6.7071    1.8260   -0.2857 H   0  0  0  0  0  0  0  0  0  0  0  0
    4.8479    2.8771    0.9992 H   0  0  0  0  0  0  0  0  0  0  0  0
   -1.2492    1.4860   -0.5568 H   0  0  0  0  0  0  0  0  0  0  0  0
  1  2  1  0
  2  3  2  0
  2  4  1  0
  4  5  1  0
  5  6  2  0
  6  7  1  0
  7  8  2  0
  8  9  1  0
  9 10  2  0
  9 11  1  0
 11 12  2  0
 12 13  1  0
 13 14  2  0
 14 15  1  0
 15 16  2  0
 16 17  1  0
 17 18  2  0
 18 19  1  0
 12 20  1  0
 20 21  1  0
 21 22  2  0
 22  5  1  0
 21  8  1  0
 18 13  1  0
  1 23  1  0
  1 24  1  0
  1 25  1  0
  4 26  1  0
  6 27  1  0
  7 28  1  0
 11 29  1  0
 14 30  1  0
 15 31  1  0
 16 32  1  0
 17 33  1  0
 22 34  1  0
M  END
$$$$
