
     RDKit          3D

 20 20  0  0  0  0  0  0  0  0999 V2000
   -3.4150    0.2025    0.3929 C   0  0  0  0  0  0  0  0  0  0  0  0
   -2.0821    0.0721   -0.1356 N   0  0  0  0  0  0  0  0  0  0  0  0
   -1.7442   -0.6062   -1.2696 C   0  0  0  0  0  0  0  0  0  0  0  0
   -0.4511   -0.5475   -1.4935 N   0  0  0  0  0  0  0  0  0  0  0  0
    0.0683    0.1983   -0.4604 C   0  0  0  0  0  0  0  0  0  0  0  0
    1.5288    0.4743   -0.3838 C   0  0  0  0  0  0  0  0  0  0  0  0
    2.2870   -0.6427    0.3411 C   0  0  0  0  0  0  0  0  0  0  0  0
    3.7278   -0.3803    0.4249 N   0  0  0  0  0  0  0  0  0  0  0  0
   -0.9388    0.5949    0.3957 C   0  0  0  0  0  0  0  0  0  0  0  0
   -4.0327    0.7152   -0.3488 H   0  0  0  0  0  0  0  0  0  0  0  0
   -3.8079   -0.7976    0.5930 H   0  0  0  0  0  0  0  0  0  0  0  0
   -3.3869    0.7826    1.3187 H   0  0  0  0  0  0  0  0  0  0  0  0
   -2.4680   -1.1194   -1.8892 H   0  0  0  0  0  0  0  0  0  0  0  0
    1.6912    1.4299    0.1306 H   0  0  0  0  0  0  0  0  0  0  0  0
    1.9240    0.5932   -1.4004 H   0  0  0  0  0  0  0  0  0  0  0  0
    1.8972   -0.7635    1.3585 H   0  0  0  0  0  0  0  0  0  0  0  0
    2.1345   -1.6000   -0.1707 H   0  0  0  0  0  0  0  0  0  0  0  0
    3.8856    0.5299    0.8547 H   0  0  0  0  0  0  0  0  0  0  0  0
    4.1097   -0.3176   -0.5189 H   0  0  0  0  0  0  0  0  0  0  0  0
   -0.9275    1.1822    1.3033 H   0  0  0  0  0  0  0  0  0  0  0  0
  1  2  1  0
  2  3  1  0
  3  4  2  0
  4  5  1  0
  5  6  1  0
  6  7  1  0
  7  8  1  0
  5  9  2  0
  9  2  1  0
  1 10  1  0
  1 11  1  0
  1 12  1  0
  3 13  1  0
  6 14  1  0
  6 15  1  0
  7 16  1  0
  7 17  1  0
  8 18  1  0
  8 19  1  0
  9 20  1  0
M  END
$$$$
