
     RDKit          3D

 39 41  0  0  0  0  0  0  0  0999 V2000
    1.7023    0.9977   -2.3123 N   0  0  0  0  0  0  0  0  0  0  0  0
    0.6745    0.1127   -2.0747 C   0  0  0  0  0  0  0  0  0  0  0  0
    0.2174   -0.4968   -3.0404 O   0  0  0  0  0  0  0  0  0  0  0  0
    0.1543   -0.0029   -0.5621 C   0  0  0  0  0  0  0  0  0  0  0  0
    1.2933   -0.4902    0.4000 C   0  0  0  0  0  0  0  0  0  0  0  0
    2.5041   -1.0323   -0.0704 C   0  0  0  0  0  0  0  0  0  0  0  0
    3.4839   -1.4951    0.8144 C   0  0  0  0  0  0  0  0  0  0  0  0
    3.2684   -1.4498    2.1879 C   0  0  0  0  0  0  0  0  0  0  0  0
    2.0667   -0.9548    2.6807 C   0  0  0  0  0  0  0  0  0  0  0  0
    1.0876   -0.4918    1.7984 C   0  0  0  0  0  0  0  0  0  0  0  0
   -0.3564    1.4581   -0.2608 C   0  0  0  0  0  0  0  0  0  0  0  0
    0.3348    2.3602    0.5734 C   0  0  0  0  0  0  0  0  0  0  0  0
   -0.1316    3.6643    0.7659 C   0  0  0  0  0  0  0  0  0  0  0  0
   -1.2773    4.0921    0.1099 C   0  0  0  0  0  0  0  0  0  0  0  0
   -1.7162    5.3436    0.2951 F   0  0  0  0  0  0  0  0  0  0  0  0
   -1.9627    3.2450   -0.7472 C   0  0  0  0  0  0  0  0  0  0  0  0
   -1.5003    1.9418   -0.9410 C   0  0  0  0  0  0  0  0  0  0  0  0
   -0.9890   -1.0777   -0.4320 C   0  0  0  0  0  0  0  0  0  0  0  0
   -0.8765   -2.3291   -1.0760 C   0  0  0  0  0  0  0  0  0  0  0  0
   -1.8549   -3.3157   -0.9248 C   0  0  0  0  0  0  0  0  0  0  0  0
   -2.9477   -3.0777   -0.1059 C   0  0  0  0  0  0  0  0  0  0  0  0
   -3.8834   -4.0244    0.0429 F   0  0  0  0  0  0  0  0  0  0  0  0
   -3.0750   -1.8763    0.5748 C   0  0  0  0  0  0  0  0  0  0  0  0
   -2.0973   -0.8886    0.4241 C   0  0  0  0  0  0  0  0  0  0  0  0
    1.9300    1.1621   -3.2845 H   0  0  0  0  0  0  0  0  0  0  0  0
    1.9222    1.7303   -1.6503 H   0  0  0  0  0  0  0  0  0  0  0  0
    2.7120   -1.1274   -1.1338 H   0  0  0  0  0  0  0  0  0  0  0  0
    4.4128   -1.9056    0.4255 H   0  0  0  0  0  0  0  0  0  0  0  0
    4.0289   -1.8172    2.8718 H   0  0  0  0  0  0  0  0  0  0  0  0
    1.8833   -0.9388    3.7521 H   0  0  0  0  0  0  0  0  0  0  0  0
    0.1502   -0.1313    2.2186 H   0  0  0  0  0  0  0  0  0  0  0  0
    1.2539    2.0770    1.0815 H   0  0  0  0  0  0  0  0  0  0  0  0
    0.3987    4.3510    1.4188 H   0  0  0  0  0  0  0  0  0  0  0  0
   -2.8471    3.6022   -1.2655 H   0  0  0  0  0  0  0  0  0  0  0  0
   -2.0414    1.2988   -1.6364 H   0  0  0  0  0  0  0  0  0  0  0  0
   -0.0183   -2.5562   -1.7063 H   0  0  0  0  0  0  0  0  0  0  0  0
   -1.7624   -4.2677   -1.4374 H   0  0  0  0  0  0  0  0  0  0  0  0
   -3.9278   -1.7170    1.2268 H   0  0  0  0  0  0  0  0  0  0  0  0
   -2.2138    0.0277    0.9990 H   0  0  0  0  0  0  0  0  0  0  0  0
  1  2  1  0
  2  3  2  0
  2  4  1  0
  4  5  1  0
  5  6  2  0
  6  7  1  0
  7  8  2  0
  8  9  1  0
  9 10  2  0
  4 11  1  0
 11 12  2  0
 12 13  1  0
 13 14  2  0
 14 15  1  0
 14 16  1  0
 16 17  2  0
  4 18  1  0
 18 19  2  0
 19 20  1  0
 20 21  2  0
 21 22  1  0
 21 23  1  0
 23 24  2  0
 10  5  1  0
 17 11  1  0
 24 18  1  0
  1 25  1  0
  1 26  1  0
  6 27  1  0
  7 28  1  0
  8 29  1  0
  9 30  1  0
 10 31  1  0
 12 32  1  0
 13 33  1  0
 16 34  1  0
 17 35  1  0
 19 36  1  0
 20 37  1  0
 23 38  1  0
 24 39  1  0
M  END
$$$$
