
     RDKit          3D

 53 56  0  0  0  0  0  0  0  0999 V2000
    3.6598    1.7119    0.9593 C   0  0  0  0  0  0  0  0  0  0  0  0
    3.7382    0.3497    0.3263 C   0  0  0  0  0  0  0  0  0  0  0  0
    4.5902    0.1732   -0.7795 C   0  0  0  0  0  0  0  0  0  0  0  0
    4.7213   -1.0772   -1.3878 C   0  0  0  0  0  0  0  0  0  0  0  0
    4.0109   -2.1742   -0.9038 C   0  0  0  0  0  0  0  0  0  0  0  0
    3.1639   -2.0226    0.1904 C   0  0  0  0  0  0  0  0  0  0  0  0
    3.0261   -0.7688    0.8056 C   0  0  0  0  0  0  0  0  0  0  0  0
    1.9312   -0.6565    2.2122 S   0  0  0  0  0  6  0  0  0  0  0  0
    2.6047    0.1073    3.2393 O   0  0  0  0  0  0  0  0  0  0  0  0
    1.4052   -1.9751    2.4974 O   0  0  0  0  0  0  0  0  0  0  0  0
    0.6290    0.2732    1.6103 N   0  0  0  0  0  0  0  0  0  0  0  0
   -0.0838   -0.3217    0.4331 C   0  0  0  0  0  0  0  0  0  0  0  0
   -1.4371    0.3591    0.1810 C   0  0  0  0  0  0  0  0  0  0  0  0
   -2.3315    0.2673    1.3392 N   0  0  0  0  0  0  0  0  0  0  0  0
   -3.7190    0.2809    1.2948 C   0  0  0  0  0  0  0  0  0  0  0  0
   -4.3897    0.0802    2.3085 O   0  0  0  0  0  0  0  0  0  0  0  0
   -4.3863    0.5487   -0.0552 C   0  0  0  0  0  0  0  0  0  0  0  0
   -5.9186    0.4558   -0.0002 C   0  0  0  0  0  0  0  0  0  0  0  0
   -6.3882    1.4188   -1.0769 C   0  0  0  0  0  0  0  0  0  0  0  0
   -5.4487    2.5963   -0.8992 C   0  0  0  0  0  0  0  0  0  0  0  0
   -4.0953    1.9599   -0.5957 C   0  0  0  0  0  0  0  0  0  0  0  0
   -1.6741    0.0849    2.6377 C   0  0  0  0  0  0  0  0  0  0  0  0
   -0.3007    0.7616    2.6883 C   0  0  0  0  0  0  0  0  0  0  0  0
    4.0525   -3.4173   -1.4685 O   0  0  0  0  0  0  0  0  0  0  0  0
    5.1086   -3.6195   -2.3958 C   0  0  0  0  0  0  0  0  0  0  0  0
    5.7602   -2.4265   -3.0938 C   0  0  0  0  0  0  0  0  0  0  0  0
    6.4677   -2.5345   -4.0923 O   0  0  0  0  0  0  0  0  0  0  0  0
    5.5513   -1.2145   -2.4984 N   0  0  0  0  0  0  0  0  0  0  0  0
    2.6227    2.0247    1.1048 H   0  0  0  0  0  0  0  0  0  0  0  0
    4.1904    1.7177    1.9160 H   0  0  0  0  0  0  0  0  0  0  0  0
    4.1252    2.4721    0.3216 H   0  0  0  0  0  0  0  0  0  0  0  0
    5.1564    1.0201   -1.1626 H   0  0  0  0  0  0  0  0  0  0  0  0
    2.6172   -2.8891    0.5578 H   0  0  0  0  0  0  0  0  0  0  0  0
    0.5408   -0.1954   -0.4572 H   0  0  0  0  0  0  0  0  0  0  0  0
   -0.2497   -1.3932    0.5928 H   0  0  0  0  0  0  0  0  0  0  0  0
   -1.2837    1.4255   -0.0205 H   0  0  0  0  0  0  0  0  0  0  0  0
   -1.9077   -0.0882   -0.6977 H   0  0  0  0  0  0  0  0  0  0  0  0
   -4.0355   -0.2063   -0.7688 H   0  0  0  0  0  0  0  0  0  0  0  0
   -6.3148    0.7730    0.9717 H   0  0  0  0  0  0  0  0  0  0  0  0
   -6.2709   -0.5645   -0.1830 H   0  0  0  0  0  0  0  0  0  0  0  0
   -6.2613    0.9735   -2.0706 H   0  0  0  0  0  0  0  0  0  0  0  0
   -7.4379    1.7004   -0.9558 H   0  0  0  0  0  0  0  0  0  0  0  0
   -5.7703    3.2076   -0.0474 H   0  0  0  0  0  0  0  0  0  0  0  0
   -5.4150    3.2410   -1.7823 H   0  0  0  0  0  0  0  0  0  0  0  0
   -3.5262    2.5853    0.1001 H   0  0  0  0  0  0  0  0  0  0  0  0
   -3.5101    1.8825   -1.5198 H   0  0  0  0  0  0  0  0  0  0  0  0
   -2.3076    0.4824    3.4380 H   0  0  0  0  0  0  0  0  0  0  0  0
   -1.5751   -0.9953    2.7985 H   0  0  0  0  0  0  0  0  0  0  0  0
   -0.4117    1.8437    2.5456 H   0  0  0  0  0  0  0  0  0  0  0  0
    0.1325    0.6213    3.6838 H   0  0  0  0  0  0  0  0  0  0  0  0
    4.7151   -4.2730   -3.1825 H   0  0  0  0  0  0  0  0  0  0  0  0
    5.9055   -4.1674   -1.8792 H   0  0  0  0  0  0  0  0  0  0  0  0
    6.0239   -0.4187   -2.9058 H   0  0  0  0  0  0  0  0  0  0  0  0
  1  2  1  0
  2  3  2  0
  3  4  1  0
  4  5  2  0
  5  6  1  0
  6  7  2  0
  7  8  1  0
  8  9  2  0
  8 10  2  0
  8 11  1  0
 11 12  1  0
 12 13  1  0
 13 14  1  0
 14 15  1  0
 15 16  2  0
 15 17  1  0
 17 18  1  0
 18 19  1  0
 19 20  1  0
 20 21  1  0
 14 22  1  0
 22 23  1  0
  5 24  1  0
 24 25  1  0
 25 26  1  0
 26 27  2  0
 26 28  1  0
  7  2  1  0
 23 11  1  0
 28  4  1  0
 21 17  1  0
  1 29  1  0
  1 30  1  0
  1 31  1  0
  3 32  1  0
  6 33  1  0
 12 34  1  0
 12 35  1  0
 13 36  1  0
 13 37  1  0
 17 38  1  0
 18 39  1  0
 18 40  1  0
 19 41  1  0
 19 42  1  0
 20 43  1  0
 20 44  1  0
 21 45  1  0
 21 46  1  0
 22 47  1  0
 22 48  1  0
 23 49  1  0
 23 50  1  0
 25 51  1  0
 25 52  1  0
 28 53  1  0
M  END
$$$$
