
     RDKit          3D

 21 22  0  0  0  0  0  0  0  0999 V2000
    3.3374   -0.6407   -0.0414 C   0  0  0  0  0  0  0  0  0  0  0  0
    1.9494   -0.0800   -0.0154 C   0  0  0  0  0  0  0  0  0  0  0  0
    1.6937    1.2337    0.0253 C   0  0  0  0  0  0  0  0  0  0  0  0
    0.3225    1.7774    0.0506 C   0  0  0  0  0  0  0  0  0  0  0  0
    0.1394    2.9872    0.0878 O   0  0  0  0  0  0  0  0  0  0  0  0
   -0.7967    0.8195    0.0297 C   0  0  0  0  0  0  0  0  0  0  0  0
   -2.1144    1.2947    0.0526 C   0  0  0  0  0  0  0  0  0  0  0  0
   -3.1809    0.3944    0.0330 C   0  0  0  0  0  0  0  0  0  0  0  0
   -2.9350   -0.9777   -0.0094 C   0  0  0  0  0  0  0  0  0  0  0  0
   -1.6221   -1.4525   -0.0322 C   0  0  0  0  0  0  0  0  0  0  0  0
   -0.5491   -0.5513   -0.0127 C   0  0  0  0  0  0  0  0  0  0  0  0
    0.8353   -1.0662   -0.0372 C   0  0  0  0  0  0  0  0  0  0  0  0
    1.0563   -2.2708   -0.0744 O   0  0  0  0  0  0  0  0  0  0  0  0
    4.0963    0.1489   -0.0231 H   0  0  0  0  0  0  0  0  0  0  0  0
    3.4960   -1.2312   -0.9498 H   0  0  0  0  0  0  0  0  0  0  0  0
    3.5080   -1.2840    0.8280 H   0  0  0  0  0  0  0  0  0  0  0  0
    2.4860    1.9746    0.0419 H   0  0  0  0  0  0  0  0  0  0  0  0
   -2.3129    2.3647    0.0857 H   0  0  0  0  0  0  0  0  0  0  0  0
   -4.2039    0.7641    0.0509 H   0  0  0  0  0  0  0  0  0  0  0  0
   -3.7661   -1.6796   -0.0246 H   0  0  0  0  0  0  0  0  0  0  0  0
   -1.4390   -2.5253   -0.0653 H   0  0  0  0  0  0  0  0  0  0  0  0
  1  2  1  0
  2  3  2  0
  3  4  1  0
  4  5  2  0
  4  6  1  0
  6  7  2  0
  7  8  1  0
  8  9  2  0
  9 10  1  0
 10 11  2  0
 11 12  1  0
 12 13  2  0
 12  2  1  0
 11  6  1  0
  1 14  1  0
  1 15  1  0
  1 16  1  0
  3 17  1  0
  7 18  1  0
  8 19  1  0
  9 20  1  0
 10 21  1  0
M  END
$$$$
