
     RDKit          3D

 55 57  0  0  0  0  0  0  0  0999 V2000
   -8.2022    0.6827   -0.9173 C   0  0  0  0  0  0  0  0  0  0  0  0
   -6.8395    0.7143   -0.2484 C   0  0  0  0  0  0  0  0  0  0  0  0
   -5.8517    0.8529   -1.2692 O   0  0  0  0  0  0  0  0  0  0  0  0
   -4.5446    0.8985   -0.8722 C   0  0  0  0  0  0  0  0  0  0  0  0
   -4.0812    0.7898    0.4405 C   0  0  0  0  0  0  0  0  0  0  0  0
   -2.7097    0.8434    0.7074 C   0  0  0  0  0  0  0  0  0  0  0  0
   -1.8005    0.9870   -0.3454 C   0  0  0  0  0  0  0  0  0  0  0  0
   -0.0548    1.0703    0.0060 S   0  0  0  0  0  6  0  0  0  0  0  0
    0.5643    1.7982   -1.0817 O   0  0  0  0  0  0  0  0  0  0  0  0
    0.0858    1.5357    1.3706 O   0  0  0  0  0  0  0  0  0  0  0  0
    0.4532   -0.5668   -0.0767 N   0  0  0  0  0  0  0  0  0  0  0  0
    0.6837   -1.1056   -1.4456 C   0  0  0  0  0  0  0  0  0  0  0  0
    2.0408   -0.6950   -2.0029 C   0  0  0  0  0  0  0  0  0  0  0  0
    2.2934   -0.7597   -3.2040 O   0  0  0  0  0  0  0  0  0  0  0  0
    2.9630   -0.3238   -1.0548 N   0  0  0  0  0  0  0  0  0  0  0  0
    4.3396    0.0051   -1.3666 C   0  0  0  0  0  0  0  0  0  0  0  0
    4.9262    0.9225   -0.2961 C   0  0  0  0  0  0  0  0  0  0  0  0
    6.3710    1.3088   -0.5543 C   0  0  0  0  0  0  0  0  0  0  0  0
    6.8382    1.6552    0.8374 C   0  0  0  0  0  0  0  0  0  0  0  0
    6.1261    0.6184    1.6833 C   0  0  0  0  0  0  0  0  0  0  0  0
    4.9235    0.2545    0.9871 O   0  0  0  0  0  0  0  0  0  0  0  0
   -0.0896   -1.4583    0.9105 C   0  0  0  0  0  0  0  0  0  0  0  0
   -1.1843   -2.2845    0.6267 C   0  0  0  0  0  0  0  0  0  0  0  0
   -1.7221   -3.0989    1.6254 C   0  0  0  0  0  0  0  0  0  0  0  0
   -1.1744   -3.0722    2.9024 C   0  0  0  0  0  0  0  0  0  0  0  0
   -1.6959   -3.8498    3.8597 F   0  0  0  0  0  0  0  0  0  0  0  0
   -0.1010   -2.2427    3.2023 C   0  0  0  0  0  0  0  0  0  0  0  0
    0.4386   -1.4289    2.2047 C   0  0  0  0  0  0  0  0  0  0  0  0
   -2.2555    1.1293   -1.6573 C   0  0  0  0  0  0  0  0  0  0  0  0
   -3.6268    1.0747   -1.9138 C   0  0  0  0  0  0  0  0  0  0  0  0
   -8.3683    1.5946   -1.4994 H   0  0  0  0  0  0  0  0  0  0  0  0
   -8.2679   -0.1577   -1.6159 H   0  0  0  0  0  0  0  0  0  0  0  0
   -8.9999    0.5863   -0.1744 H   0  0  0  0  0  0  0  0  0  0  0  0
   -6.6903   -0.2219    0.3028 H   0  0  0  0  0  0  0  0  0  0  0  0
   -6.7969    1.5675    0.4392 H   0  0  0  0  0  0  0  0  0  0  0  0
   -4.7596    0.6674    1.2789 H   0  0  0  0  0  0  0  0  0  0  0  0
   -2.3605    0.7668    1.7359 H   0  0  0  0  0  0  0  0  0  0  0  0
    0.6804   -2.2021   -1.4361 H   0  0  0  0  0  0  0  0  0  0  0  0
   -0.1011   -0.7765   -2.1324 H   0  0  0  0  0  0  0  0  0  0  0  0
    2.7163   -0.4351   -0.0751 H   0  0  0  0  0  0  0  0  0  0  0  0
    4.3899    0.4724   -2.3566 H   0  0  0  0  0  0  0  0  0  0  0  0
    4.8816   -0.9474   -1.4018 H   0  0  0  0  0  0  0  0  0  0  0  0
    4.3045    1.8211   -0.1860 H   0  0  0  0  0  0  0  0  0  0  0  0
    6.9448    0.4544   -0.9318 H   0  0  0  0  0  0  0  0  0  0  0  0
    6.4716    2.1337   -1.2652 H   0  0  0  0  0  0  0  0  0  0  0  0
    7.9247    1.6279    0.9558 H   0  0  0  0  0  0  0  0  0  0  0  0
    6.4905    2.6602    1.1095 H   0  0  0  0  0  0  0  0  0  0  0  0
    5.8719    0.9957    2.6770 H   0  0  0  0  0  0  0  0  0  0  0  0
    6.7319   -0.2863    1.7969 H   0  0  0  0  0  0  0  0  0  0  0  0
   -1.6364   -2.2985   -0.3615 H   0  0  0  0  0  0  0  0  0  0  0  0
   -2.5675   -3.7474    1.4175 H   0  0  0  0  0  0  0  0  0  0  0  0
    0.3053   -2.2282    4.2085 H   0  0  0  0  0  0  0  0  0  0  0  0
    1.2707   -0.7703    2.4441 H   0  0  0  0  0  0  0  0  0  0  0  0
   -1.5617    1.2871   -2.4800 H   0  0  0  0  0  0  0  0  0  0  0  0
   -3.9875    1.1817   -2.9349 H   0  0  0  0  0  0  0  0  0  0  0  0
  1  2  1  0
  2  3  1  0
  3  4  1  0
  4  5  2  0
  5  6  1  0
  6  7  2  0
  7  8  1  0
  8  9  2  0
  8 10  2  0
  8 11  1  0
 11 12  1  0
 12 13  1  0
 13 14  2  0
 13 15  1  0
 15 16  1  0
 16 17  1  0
 17 18  1  0
 18 19  1  0
 19 20  1  0
 20 21  1  0
 11 22  1  0
 22 23  2  0
 23 24  1  0
 24 25  2  0
 25 26  1  0
 25 27  1  0
 27 28  2  0
  7 29  1  0
 29 30  2  0
 30  4  1  0
 21 17  1  0
 28 22  1  0
  1 31  1  0
  1 32  1  0
  1 33  1  0
  2 34  1  0
  2 35  1  0
  5 36  1  0
  6 37  1  0
 12 38  1  0
 12 39  1  0
 15 40  1  0
 16 41  1  0
 16 42  1  0
 17 43  1  0
 18 44  1  0
 18 45  1  0
 19 46  1  0
 19 47  1  0
 20 48  1  0
 20 49  1  0
 23 50  1  0
 24 51  1  0
 27 52  1  0
 28 53  1  0
 29 54  1  0
 30 55  1  0
M  END
$$$$
