
     RDKit          3D

 30 29  0  0  0  0  0  0  0  0999 V2000
    0.6877    0.0000    0.0000 Cl  0  0  0  0  0  0  0  0  0  0  0  0
    0.6867    0.0000    0.0000 Cl  0  0  0  0  0  0  0  0  0  0  0  0
    4.2206    2.3244    0.0656 Cl  0  0  0  0  0  0  0  0  0  0  0  0
    3.2129    0.8786   -0.1084 C   0  0  0  0  0  0  0  0  0  0  0  0
    3.7998   -0.3391   -0.3304 C   0  0  0  0  0  0  0  0  0  0  0  0
    3.0106   -1.4522   -0.4636 C   0  0  0  0  0  0  0  0  0  0  0  0
    1.6379   -1.3501   -0.3755 C   0  0  0  0  0  0  0  0  0  0  0  0
    1.0079   -0.1327   -0.1514 C   0  0  0  0  0  0  0  0  0  0  0  0
   -0.4079   -0.0406   -0.0634 N   0  0  0  0  0  0  0  0  0  0  0  0
   -1.1961   -1.2431   -0.2365 C   0  0  0  0  0  0  0  0  0  0  0  0
   -2.6607   -0.9695   -0.3804 C   0  0  0  0  0  0  0  0  0  0  0  0
   -3.1932   -0.0285    0.5520 N   0  0  0  0  0  0  0  0  0  0  0  0
   -2.2397    0.8131    1.1904 C   0  0  0  0  0  0  0  0  0  0  0  0
   -1.1310    1.1721    0.1889 C   0  0  0  0  0  0  0  0  0  0  0  0
    1.8500    0.9510   -0.0255 C   0  0  0  0  0  0  0  0  0  0  0  0
   -0.6877    0.0000    0.0000 H   0  0  0  0  0  0  0  0  0  0  0  0
   -0.6867    0.0000    0.0000 H   0  0  0  0  0  0  0  0  0  0  0  0
    4.8804   -0.3960   -0.3960 H   0  0  0  0  0  0  0  0  0  0  0  0
    3.4537   -2.4204   -0.6388 H   0  0  0  0  0  0  0  0  0  0  0  0
    0.9986   -2.2345   -0.4804 H   0  0  0  0  0  0  0  0  0  0  0  0
   -0.9999   -1.9026    0.6195 H   0  0  0  0  0  0  0  0  0  0  0  0
   -0.8714   -1.7842   -1.1480 H   0  0  0  0  0  0  0  0  0  0  0  0
   -2.9352   -0.7221   -1.4445 H   0  0  0  0  0  0  0  0  0  0  0  0
   -3.1889   -1.9509   -0.1890 H   0  0  0  0  0  0  0  0  0  0  0  0
   -4.0159    0.4594    0.1857 H   0  0  0  0  0  0  0  0  0  0  0  0
   -1.7548    0.3523    2.0742 H   0  0  0  0  0  0  0  0  0  0  0  0
   -2.7252    1.7757    1.5017 H   0  0  0  0  0  0  0  0  0  0  0  0
   -1.5888    1.5678   -0.7456 H   0  0  0  0  0  0  0  0  0  0  0  0
   -0.5665    1.9780    0.6492 H   0  0  0  0  0  0  0  0  0  0  0  0
    1.4028    1.9230    0.1502 H   0  0  0  0  0  0  0  0  0  0  0  0
  3  4  1  0
  4  5  2  0
  5  6  1  0
  6  7  2  0
  7  8  1  0
  8  9  1  0
  9 10  1  0
 10 11  1  0
 11 12  1  0
 12 13  1  0
 13 14  1  0
  8 15  2  0
 15  4  1  0
 14  9  1  0
  1 16  1  0
  2 17  1  0
  5 18  1  0
  6 19  1  0
  7 20  1  0
 10 21  1  0
 10 22  1  0
 11 23  1  0
 11 24  1  0
 12 25  1  0
 13 26  1  0
 13 27  1  0
 14 28  1  0
 14 29  1  0
 15 30  1  0
M  END
$$$$
