
     RDKit          3D

 12 11  0  0  0  0  0  0  0  0999 V2000
   -1.9259   -0.2534   -0.2635 C   0  0  0  0  0  0  0  0  0  0  0  0
   -0.5900    0.4266   -0.2192 C   0  0  0  0  0  0  0  0  0  0  0  0
   -0.4119    1.6022   -0.5114 O   0  0  0  0  0  0  0  0  0  0  0  0
    0.5900   -0.4266    0.2192 C   0  0  0  0  0  0  0  0  0  0  0  0
    1.9259    0.2534    0.2635 C   0  0  0  0  0  0  0  0  0  0  0  0
    0.4119   -1.6022    0.5114 O   0  0  0  0  0  0  0  0  0  0  0  0
   -2.1922   -0.6136    0.7333 H   0  0  0  0  0  0  0  0  0  0  0  0
   -2.6865    0.4610   -0.5913 H   0  0  0  0  0  0  0  0  0  0  0  0
   -1.8968   -1.0828   -0.9745 H   0  0  0  0  0  0  0  0  0  0  0  0
    2.6865   -0.4610    0.5913 H   0  0  0  0  0  0  0  0  0  0  0  0
    2.1922    0.6136   -0.7333 H   0  0  0  0  0  0  0  0  0  0  0  0
    1.8968    1.0828    0.9745 H   0  0  0  0  0  0  0  0  0  0  0  0
  1  2  1  0
  2  3  2  0
  2  4  1  0
  4  5  1  0
  4  6  2  0
  1  7  1  0
  1  8  1  0
  1  9  1  0
  5 10  1  0
  5 11  1  0
  5 12  1  0
M  END
$$$$
