
     RDKit          3D

 61 64  0  0  0  0  0  0  0  0999 V2000
    7.8134    1.8565    0.9925 C   0  0  0  0  0  0  0  0  0  0  0  0
    6.5374    1.0333    0.9470 C   0  0  0  0  0  0  0  0  0  0  0  0
    6.7009   -0.0759   -0.0248 N   0  0  0  0  0  0  0  0  0  0  0  0
    6.6598   -1.4360    0.5636 C   0  0  0  0  0  0  0  0  0  0  0  0
    7.9489   -1.7289    1.3140 C   0  0  0  0  0  0  0  0  0  0  0  0
    5.9944    0.1270   -1.5616 S   0  0  0  0  0  6  0  0  0  0  0  0
    6.4332   -0.9597   -2.4116 O   0  0  0  0  0  0  0  0  0  0  0  0
    6.1641    1.5060   -1.9661 O   0  0  0  0  0  0  0  0  0  0  0  0
    4.2603   -0.1273   -1.2442 C   0  0  0  0  0  0  0  0  0  0  0  0
    3.7154   -1.4047   -1.3529 C   0  0  0  0  0  0  0  0  0  0  0  0
    2.3502   -1.5818   -1.1238 C   0  0  0  0  0  0  0  0  0  0  0  0
    1.5248   -0.5103   -0.8036 C   0  0  0  0  0  0  0  0  0  0  0  0
    0.2143   -0.7288   -0.5827 N   0  0  0  0  0  0  0  0  0  0  0  0
   -0.5783    0.3278   -0.2919 C   0  0  0  0  0  0  0  0  0  0  0  0
   -1.9246    0.1074   -0.0535 N   0  0  0  0  0  0  0  0  0  0  0  0
   -2.9333    1.1299   -0.3957 C   0  0  0  0  0  0  0  0  0  0  0  0
   -4.1115    0.5628   -1.2254 C   0  0  0  0  0  0  0  0  0  0  0  0
   -4.7133   -0.6682   -0.6671 N   0  0  0  0  0  0  0  0  0  0  0  0
   -6.0613   -0.5955   -0.2644 C   0  0  0  0  0  0  0  0  0  0  0  0
   -6.9092   -1.6155   -0.7329 C   0  0  0  0  0  0  0  0  0  0  0  0
   -8.2610   -1.6517   -0.3944 C   0  0  0  0  0  0  0  0  0  0  0  0
   -8.7900   -0.6653    0.4282 C   0  0  0  0  0  0  0  0  0  0  0  0
   -7.9675    0.3518    0.9185 C   0  0  0  0  0  0  0  0  0  0  0  0
   -6.6044    0.3941    0.5891 C   0  0  0  0  0  0  0  0  0  0  0  0
   -5.7372    1.3491    1.0604 O   0  0  0  0  0  0  0  0  0  0  0  0
   -6.2262    2.2600    2.0355 C   0  0  0  0  0  0  0  0  0  0  0  0
   -3.8748   -1.3853    0.3178 C   0  0  0  0  0  0  0  0  0  0  0  0
   -2.3831   -1.2934   -0.0665 C   0  0  0  0  0  0  0  0  0  0  0  0
    0.0101    1.5902   -0.1986 C   0  0  0  0  0  0  0  0  0  0  0  0
    1.3267    1.8467   -0.4122 N   0  0  0  0  0  0  0  0  0  0  0  0
    2.0848    0.7866   -0.7211 C   0  0  0  0  0  0  0  0  0  0  0  0
    3.4403    0.9648   -0.9545 C   0  0  0  0  0  0  0  0  0  0  0  0
    8.6693    1.2452    1.2953 H   0  0  0  0  0  0  0  0  0  0  0  0
    7.7105    2.6769    1.7095 H   0  0  0  0  0  0  0  0  0  0  0  0
    8.0427    2.2875    0.0127 H   0  0  0  0  0  0  0  0  0  0  0  0
    5.6963    1.6786    0.6802 H   0  0  0  0  0  0  0  0  0  0  0  0
    6.3133    0.6453    1.9469 H   0  0  0  0  0  0  0  0  0  0  0  0
    5.7971   -1.5325    1.2319 H   0  0  0  0  0  0  0  0  0  0  0  0
    6.5521   -2.1946   -0.2179 H   0  0  0  0  0  0  0  0  0  0  0  0
    8.0758   -1.0629    2.1731 H   0  0  0  0  0  0  0  0  0  0  0  0
    7.9437   -2.7579    1.6871 H   0  0  0  0  0  0  0  0  0  0  0  0
    8.8191   -1.6055    0.6609 H   0  0  0  0  0  0  0  0  0  0  0  0
    4.3334   -2.2593   -1.6201 H   0  0  0  0  0  0  0  0  0  0  0  0
    1.9142   -2.5754   -1.2028 H   0  0  0  0  0  0  0  0  0  0  0  0
   -3.3000    1.5593    0.5419 H   0  0  0  0  0  0  0  0  0  0  0  0
   -2.5010    1.9532   -0.9761 H   0  0  0  0  0  0  0  0  0  0  0  0
   -3.7229    0.2937   -2.2165 H   0  0  0  0  0  0  0  0  0  0  0  0
   -4.8559    1.3482   -1.4055 H   0  0  0  0  0  0  0  0  0  0  0  0
   -6.5023   -2.3857   -1.3844 H   0  0  0  0  0  0  0  0  0  0  0  0
   -8.8954   -2.4462   -0.7773 H   0  0  0  0  0  0  0  0  0  0  0  0
   -9.8443   -0.6862    0.6920 H   0  0  0  0  0  0  0  0  0  0  0  0
   -8.4243    1.0984    1.5590 H   0  0  0  0  0  0  0  0  0  0  0  0
   -7.0000    2.9096    1.6135 H   0  0  0  0  0  0  0  0  0  0  0  0
   -6.5881    1.7344    2.9256 H   0  0  0  0  0  0  0  0  0  0  0  0
   -5.3915    2.8973    2.3436 H   0  0  0  0  0  0  0  0  0  0  0  0
   -4.1681   -2.4415    0.3484 H   0  0  0  0  0  0  0  0  0  0  0  0
   -4.0130   -0.9669    1.3238 H   0  0  0  0  0  0  0  0  0  0  0  0
   -1.8063   -1.8847    0.6554 H   0  0  0  0  0  0  0  0  0  0  0  0
   -2.2386   -1.7276   -1.0645 H   0  0  0  0  0  0  0  0  0  0  0  0
   -0.5698    2.4623    0.0820 H   0  0  0  0  0  0  0  0  0  0  0  0
    3.8507    1.9711   -0.9086 H   0  0  0  0  0  0  0  0  0  0  0  0
  1  2  1  0
  2  3  1  0
  3  4  1  0
  4  5  1  0
  3  6  1  0
  6  7  2  0
  6  8  2  0
  6  9  1  0
  9 10  2  0
 10 11  1  0
 11 12  2  0
 12 13  1  0
 13 14  2  0
 14 15  1  0
 15 16  1  0
 16 17  1  0
 17 18  1  0
 18 19  1  0
 19 20  2  0
 20 21  1  0
 21 22  2  0
 22 23  1  0
 23 24  2  0
 24 25  1  0
 25 26  1  0
 18 27  1  0
 27 28  1  0
 14 29  1  0
 29 30  2  0
 30 31  1  0
 31 32  2  0
 32  9  1  0
 31 12  1  0
 28 15  1  0
 24 19  1  0
  1 33  1  0
  1 34  1  0
  1 35  1  0
  2 36  1  0
  2 37  1  0
  4 38  1  0
  4 39  1  0
  5 40  1  0
  5 41  1  0
  5 42  1  0
 10 43  1  0
 11 44  1  0
 16 45  1  0
 16 46  1  0
 17 47  1  0
 17 48  1  0
 20 49  1  0
 21 50  1  0
 22 51  1  0
 23 52  1  0
 26 53  1  0
 26 54  1  0
 26 55  1  0
 27 56  1  0
 27 57  1  0
 28 58  1  0
 28 59  1  0
 29 60  1  0
 32 61  1  0
M  END
$$$$
