
     RDKit          3D

 41 43  0  0  0  0  0  0  0  0999 V2000
    4.7385    2.4449    0.3649 C   0  0  0  0  0  0  0  0  0  0  0  0
    4.5505    0.9941   -0.0481 C   0  0  0  0  0  0  0  0  0  0  0  0
    4.0392    0.1522    1.1124 C   0  0  0  0  0  0  0  0  0  0  0  0
    3.8739   -1.5843    0.7046 S   0  0  0  0  0  6  0  0  0  0  0  0
    3.1270   -2.2511    1.7484 O   0  0  0  0  0  0  0  0  0  0  0  0
    5.1723   -2.0751    0.2916 O   0  0  0  0  0  0  0  0  0  0  0  0
    2.9491   -1.5682   -0.7133 N   0  0  0  0  0  0  0  0  0  0  0  0
    1.5560   -1.8563   -0.5675 C   0  0  0  0  0  0  0  0  0  0  0  0
    1.0988   -3.1559   -0.8055 C   0  0  0  0  0  0  0  0  0  0  0  0
   -0.2481   -3.4661   -0.6014 C   0  0  0  0  0  0  0  0  0  0  0  0
   -1.1261   -2.4809   -0.1538 C   0  0  0  0  0  0  0  0  0  0  0  0
   -2.4110   -2.8055    0.0434 F   0  0  0  0  0  0  0  0  0  0  0  0
   -0.6734   -1.1878    0.0864 C   0  0  0  0  0  0  0  0  0  0  0  0
   -1.5840   -0.1547    0.5830 C   0  0  0  0  0  0  0  0  0  0  0  0
   -1.3826    0.2938    1.7080 O   0  0  0  0  0  0  0  0  0  0  0  0
   -2.6739    0.3087   -0.2734 C   0  0  0  0  0  0  0  0  0  0  0  0
   -2.8885   -0.0115   -1.6080 C   0  0  0  0  0  0  0  0  0  0  0  0
   -4.0186    0.6392   -2.0358 N   0  0  0  0  0  0  0  0  0  0  0  0
   -4.5366    1.3861   -1.0178 C   0  0  0  0  0  0  0  0  0  0  0  0
   -5.6417    2.1463   -1.1259 N   0  0  0  0  0  0  0  0  0  0  0  0
   -5.9457    2.7906    0.0293 C   0  0  0  0  0  0  0  0  0  0  0  0
   -5.2282    2.7083    1.2166 C   0  0  0  0  0  0  0  0  0  0  0  0
   -5.7341    3.5855    2.6049 Cl  0  0  0  0  0  0  0  0  0  0  0  0
   -4.0911    1.9048    1.2697 C   0  0  0  0  0  0  0  0  0  0  0  0
   -3.7267    1.2107    0.0997 C   0  0  0  0  0  0  0  0  0  0  0  0
    0.6684   -0.8789   -0.1043 C   0  0  0  0  0  0  0  0  0  0  0  0
    1.1110    0.3706    0.1055 F   0  0  0  0  0  0  0  0  0  0  0  0
    5.1042    3.0356   -0.4808 H   0  0  0  0  0  0  0  0  0  0  0  0
    5.4659    2.5304    1.1786 H   0  0  0  0  0  0  0  0  0  0  0  0
    3.7929    2.8822    0.7012 H   0  0  0  0  0  0  0  0  0  0  0  0
    5.5046    0.5962   -0.4120 H   0  0  0  0  0  0  0  0  0  0  0  0
    3.8484    0.9530   -0.8879 H   0  0  0  0  0  0  0  0  0  0  0  0
    3.0669    0.5038    1.4678 H   0  0  0  0  0  0  0  0  0  0  0  0
    4.7371    0.1963    1.9560 H   0  0  0  0  0  0  0  0  0  0  0  0
    3.4471   -2.0962   -1.4329 H   0  0  0  0  0  0  0  0  0  0  0  0
    1.7843   -3.9370   -1.1253 H   0  0  0  0  0  0  0  0  0  0  0  0
   -0.6150   -4.4750   -0.7709 H   0  0  0  0  0  0  0  0  0  0  0  0
   -2.3441   -0.6438   -2.2966 H   0  0  0  0  0  0  0  0  0  0  0  0
   -4.4272    0.5970   -2.9585 H   0  0  0  0  0  0  0  0  0  0  0  0
   -6.8360    3.4125   -0.0305 H   0  0  0  0  0  0  0  0  0  0  0  0
   -3.5034    1.8147    2.1782 H   0  0  0  0  0  0  0  0  0  0  0  0
  1  2  1  0
  2  3  1  0
  3  4  1  0
  4  5  2  0
  4  6  2  0
  4  7  1  0
  7  8  1  0
  8  9  2  0
  9 10  1  0
 10 11  2  0
 11 12  1  0
 11 13  1  0
 13 14  1  0
 14 15  2  0
 14 16  1  0
 16 17  2  0
 17 18  1  0
 18 19  1  0
 19 20  2  0
 20 21  1  0
 21 22  2  0
 22 23  1  0
 22 24  1  0
 24 25  2  0
 13 26  2  0
 26 27  1  0
 26  8  1  0
 25 16  1  0
 25 19  1  0
  1 28  1  0
  1 29  1  0
  1 30  1  0
  2 31  1  0
  2 32  1  0
  3 33  1  0
  3 34  1  0
  7 35  1  0
  9 36  1  0
 10 37  1  0
 17 38  1  0
 18 39  1  0
 21 40  1  0
 24 41  1  0
M  END
$$$$
