
     RDKit          3D

 42 44  0  0  0  0  0  0  0  0999 V2000
   -6.9053    0.7069   -0.1775 C   0  0  0  0  0  0  0  0  0  0  0  0
   -5.8967   -0.2183    0.2000 O   0  0  0  0  0  0  0  0  0  0  0  0
   -4.6022    0.0699   -0.1570 C   0  0  0  0  0  0  0  0  0  0  0  0
   -4.2082    1.2294   -0.8330 C   0  0  0  0  0  0  0  0  0  0  0  0
   -2.8650    1.4413   -1.1538 C   0  0  0  0  0  0  0  0  0  0  0  0
   -1.8966    0.4960   -0.8063 C   0  0  0  0  0  0  0  0  0  0  0  0
   -0.4400    0.7305   -1.1300 C   0  0  0  0  0  0  0  0  0  0  0  0
    0.3172    1.3215    0.0654 C   0  0  0  0  0  0  0  0  0  0  0  0
    1.7157    1.5817   -0.2664 N   0  0  0  0  0  0  0  0  0  0  0  0
    2.6098    0.5224   -0.1054 C   0  0  0  0  0  0  0  0  0  0  0  0
    2.1622   -0.7567   -0.0358 N   0  0  0  0  0  0  0  0  0  0  0  0
    3.0541   -1.7574    0.1148 C   0  0  0  0  0  0  0  0  0  0  0  0
    4.3904   -1.6698    0.2167 N   0  0  0  0  0  0  0  0  0  0  0  0
    4.7988   -0.3920    0.1374 C   0  0  0  0  0  0  0  0  0  0  0  0
    3.9952    0.7236   -0.0212 C   0  0  0  0  0  0  0  0  0  0  0  0
    4.9022    1.8035   -0.0586 C   0  0  0  0  0  0  0  0  0  0  0  0
    6.1769    1.4216    0.0809 N   0  0  0  0  0  0  0  0  0  0  0  0
    6.0842    0.0754    0.1930 N   0  0  0  0  0  0  0  0  0  0  0  0
    7.2845   -0.7065    0.3504 C   0  0  0  0  0  0  0  0  0  0  0  0
   -2.2890   -0.6665   -0.1254 C   0  0  0  0  0  0  0  0  0  0  0  0
   -3.6327   -0.8881    0.2010 C   0  0  0  0  0  0  0  0  0  0  0  0
   -4.0967   -1.9967    0.8662 O   0  0  0  0  0  0  0  0  0  0  0  0
   -3.1538   -3.0017    1.2087 C   0  0  0  0  0  0  0  0  0  0  0  0
   -7.8663    0.3134    0.1677 H   0  0  0  0  0  0  0  0  0  0  0  0
   -6.7516    1.6774    0.3056 H   0  0  0  0  0  0  0  0  0  0  0  0
   -6.9610    0.8100   -1.2662 H   0  0  0  0  0  0  0  0  0  0  0  0
   -4.9232    1.9911   -1.1247 H   0  0  0  0  0  0  0  0  0  0  0  0
   -2.5827    2.3513   -1.6792 H   0  0  0  0  0  0  0  0  0  0  0  0
    0.0072   -0.2154   -1.4580 H   0  0  0  0  0  0  0  0  0  0  0  0
   -0.3567    1.4046   -1.9927 H   0  0  0  0  0  0  0  0  0  0  0  0
   -0.1438    2.2816    0.3311 H   0  0  0  0  0  0  0  0  0  0  0  0
    0.2261    0.6918    0.9600 H   0  0  0  0  0  0  0  0  0  0  0  0
    2.0796    2.4485    0.1135 H   0  0  0  0  0  0  0  0  0  0  0  0
    2.6373   -2.7591    0.1606 H   0  0  0  0  0  0  0  0  0  0  0  0
    4.6854    2.8564   -0.1821 H   0  0  0  0  0  0  0  0  0  0  0  0
    7.0337   -1.7664    0.4327 H   0  0  0  0  0  0  0  0  0  0  0  0
    7.9185   -0.5426   -0.5246 H   0  0  0  0  0  0  0  0  0  0  0  0
    7.7939   -0.3752    1.2589 H   0  0  0  0  0  0  0  0  0  0  0  0
   -1.5201   -1.3859    0.1403 H   0  0  0  0  0  0  0  0  0  0  0  0
   -2.4059   -2.6186    1.9107 H   0  0  0  0  0  0  0  0  0  0  0  0
   -3.6944   -3.8106    1.7095 H   0  0  0  0  0  0  0  0  0  0  0  0
   -2.6809   -3.4224    0.3151 H   0  0  0  0  0  0  0  0  0  0  0  0
  1  2  1  0
  2  3  1  0
  3  4  2  0
  4  5  1  0
  5  6  2  0
  6  7  1  0
  7  8  1  0
  8  9  1  0
  9 10  1  0
 10 11  2  0
 11 12  1  0
 12 13  2  0
 13 14  1  0
 14 15  2  0
 15 16  1  0
 16 17  2  0
 17 18  1  0
 18 19  1  0
  6 20  1  0
 20 21  2  0
 21 22  1  0
 22 23  1  0
 21  3  1  0
 15 10  1  0
 18 14  1  0
  1 24  1  0
  1 25  1  0
  1 26  1  0
  4 27  1  0
  5 28  1  0
  7 29  1  0
  7 30  1  0
  8 31  1  0
  8 32  1  0
  9 33  1  0
 12 34  1  0
 16 35  1  0
 19 36  1  0
 19 37  1  0
 19 38  1  0
 20 39  1  0
 23 40  1  0
 23 41  1  0
 23 42  1  0
M  END
$$$$
