
     RDKit          3D

 61 65  0  0  0  0  0  0  0  0999 V2000
    2.3307   -2.8620   -1.1953 C   0  0  0  0  0  0  0  0  0  0  0  0
    3.0550   -1.8339   -0.4517 N   0  0  0  0  0  0  0  0  0  0  0  0
    4.4180   -1.7033   -0.7455 C   0  0  0  0  0  0  0  0  0  0  0  0
    5.0227   -2.3794   -1.5720 O   0  0  0  0  0  0  0  0  0  0  0  0
    5.2265   -0.7116   -0.0068 C   0  0  0  0  0  0  0  0  0  0  0  0
    5.4121   -0.9010    1.3732 C   0  0  0  0  0  0  0  0  0  0  0  0
    6.2112   -0.0157    2.0942 C   0  0  0  0  0  0  0  0  0  0  0  0
    6.8341    1.0345    1.4317 C   0  0  0  0  0  0  0  0  0  0  0  0
    7.6054    1.8831    2.1220 F   0  0  0  0  0  0  0  0  0  0  0  0
    6.6781    1.2147    0.0601 C   0  0  0  0  0  0  0  0  0  0  0  0
    5.8691    0.3380   -0.6850 C   0  0  0  0  0  0  0  0  0  0  0  0
    5.7293    0.5211   -2.1737 C   0  0  0  0  0  0  0  0  0  0  0  0
    6.0637    1.7873   -2.5658 F   0  0  0  0  0  0  0  0  0  0  0  0
    6.5309   -0.3013   -2.8977 F   0  0  0  0  0  0  0  0  0  0  0  0
    4.4583    0.3439   -2.6269 F   0  0  0  0  0  0  0  0  0  0  0  0
    2.2582   -0.7718    0.2146 C   0  0  0  0  0  0  0  0  0  0  0  0
    1.7375    0.2734   -0.7916 C   0  0  0  0  0  0  0  0  0  0  0  0
    0.2139    0.3096   -0.8389 C   0  0  0  0  0  0  0  0  0  0  0  0
   -0.3340    0.5860    0.5039 N   0  0  0  0  0  0  0  0  0  0  0  0
   -1.7464    0.3920    0.4486 C   0  0  0  0  0  0  0  0  0  0  0  0
   -2.2526   -0.8456    0.6615 N   0  0  0  0  0  0  0  0  0  0  0  0
   -3.5908   -1.0785    0.5591 N   0  0  0  0  0  0  0  0  0  0  0  0
   -4.4284   -0.0673    0.2424 C   0  0  0  0  0  0  0  0  0  0  0  0
   -5.8204   -0.4946    0.1416 C   0  0  0  0  0  0  0  0  0  0  0  0
   -6.7249   -0.3891   -0.9002 C   0  0  0  0  0  0  0  0  0  0  0  0
   -7.9056   -0.9895   -0.4332 C   0  0  0  0  0  0  0  0  0  0  0  0
   -7.7792   -1.4526    0.8091 N   0  0  0  0  0  0  0  0  0  0  0  0
   -6.4978   -1.1721    1.1299 N   0  0  0  0  0  0  0  0  0  0  0  0
   -6.0007   -1.5715    2.4272 C   0  0  0  0  0  0  0  0  0  0  0  0
   -3.9826    1.2485    0.0303 C   0  0  0  0  0  0  0  0  0  0  0  0
   -4.8349    2.3466   -0.2568 C   0  0  0  0  0  0  0  0  0  0  0  0
   -4.3320    3.6336   -0.4499 C   0  0  0  0  0  0  0  0  0  0  0  0
   -2.9680    3.8603   -0.3523 C   0  0  0  0  0  0  0  0  0  0  0  0
   -2.1119    2.7993   -0.0590 C   0  0  0  0  0  0  0  0  0  0  0  0
   -2.5930    1.4813    0.1348 C   0  0  0  0  0  0  0  0  0  0  0  0
    0.2819   -0.1605    1.6180 C   0  0  0  0  0  0  0  0  0  0  0  0
    1.1452   -1.3158    1.1230 C   0  0  0  0  0  0  0  0  0  0  0  0
    3.0073   -3.5551   -1.7028 H   0  0  0  0  0  0  0  0  0  0  0  0
    1.7200   -3.4473   -0.5045 H   0  0  0  0  0  0  0  0  0  0  0  0
    1.6949   -2.3852   -1.9463 H   0  0  0  0  0  0  0  0  0  0  0  0
    4.9436   -1.7431    1.8786 H   0  0  0  0  0  0  0  0  0  0  0  0
    6.3638   -0.1447    3.1615 H   0  0  0  0  0  0  0  0  0  0  0  0
    7.1987    2.0403   -0.4213 H   0  0  0  0  0  0  0  0  0  0  0  0
    2.9363   -0.2231    0.8743 H   0  0  0  0  0  0  0  0  0  0  0  0
    2.1038    1.2636   -0.4905 H   0  0  0  0  0  0  0  0  0  0  0  0
    2.1291    0.0946   -1.7988 H   0  0  0  0  0  0  0  0  0  0  0  0
   -0.1603   -0.6417   -1.2415 H   0  0  0  0  0  0  0  0  0  0  0  0
   -0.0934    1.0987   -1.5361 H   0  0  0  0  0  0  0  0  0  0  0  0
   -6.5503    0.0551   -1.8699 H   0  0  0  0  0  0  0  0  0  0  0  0
   -8.8515   -1.1099   -0.9454 H   0  0  0  0  0  0  0  0  0  0  0  0
   -6.8465   -1.7542    3.0957 H   0  0  0  0  0  0  0  0  0  0  0  0
   -5.4183   -2.4869    2.3020 H   0  0  0  0  0  0  0  0  0  0  0  0
   -5.3845   -0.7686    2.8391 H   0  0  0  0  0  0  0  0  0  0  0  0
   -5.9126    2.2104   -0.3195 H   0  0  0  0  0  0  0  0  0  0  0  0
   -5.0085    4.4563   -0.6674 H   0  0  0  0  0  0  0  0  0  0  0  0
   -2.5668    4.8604   -0.4929 H   0  0  0  0  0  0  0  0  0  0  0  0
   -1.0464    3.0056    0.0329 H   0  0  0  0  0  0  0  0  0  0  0  0
   -0.4506   -0.5229    2.3510 H   0  0  0  0  0  0  0  0  0  0  0  0
    0.9155    0.5465    2.1697 H   0  0  0  0  0  0  0  0  0  0  0  0
    0.5081   -2.0381    0.6013 H   0  0  0  0  0  0  0  0  0  0  0  0
    1.5899   -1.8470    1.9728 H   0  0  0  0  0  0  0  0  0  0  0  0
  1  2  1  0
  2  3  1  0
  3  4  2  0
  3  5  1  0
  5  6  2  0
  6  7  1  0
  7  8  2  0
  8  9  1  0
  8 10  1  0
 10 11  2  0
 11 12  1  0
 12 13  1  0
 12 14  1  0
 12 15  1  0
  2 16  1  0
 16 17  1  0
 17 18  1  0
 18 19  1  0
 19 20  1  0
 20 21  2  0
 21 22  1  0
 22 23  2  0
 23 24  1  0
 24 25  2  0
 25 26  1  0
 26 27  2  0
 27 28  1  0
 28 29  1  0
 23 30  1  0
 30 31  2  0
 31 32  1  0
 32 33  2  0
 33 34  1  0
 34 35  2  0
 19 36  1  0
 36 37  1  0
 11  5  1  0
 37 16  1  0
 35 20  1  0
 28 24  1  0
 35 30  1  0
  1 38  1  0
  1 39  1  0
  1 40  1  0
  6 41  1  0
  7 42  1  0
 10 43  1  0
 16 44  1  0
 17 45  1  0
 17 46  1  0
 18 47  1  0
 18 48  1  0
 25 49  1  0
 26 50  1  0
 29 51  1  0
 29 52  1  0
 29 53  1  0
 31 54  1  0
 32 55  1  0
 33 56  1  0
 34 57  1  0
 36 58  1  0
 36 59  1  0
 37 60  1  0
 37 61  1  0
M  END
$$$$
