
     RDKit          3D

 59 61  0  0  0  0  0  0  0  0999 V2000
    8.1258    1.3338    1.3648 C   0  0  0  0  0  0  0  0  0  0  0  0
    7.1073    0.2147    1.2752 C   0  0  0  0  0  0  0  0  0  0  0  0
    5.8786    0.6801    1.8268 O   0  0  0  0  0  0  0  0  0  0  0  0
    4.8993   -0.3530    1.8877 C   0  0  0  0  0  0  0  0  0  0  0  0
    3.5659    0.2518    2.3197 C   0  0  0  0  0  0  0  0  0  0  0  0
    2.9575    1.1446    1.2393 C   0  0  0  0  0  0  0  0  0  0  0  0
    2.4477    0.3667    0.1235 N   0  0  0  0  0  0  0  0  0  0  0  0
    2.2738    0.9307   -1.1219 C   0  0  0  0  0  0  0  0  0  0  0  0
    2.5856    2.0869   -1.3906 O   0  0  0  0  0  0  0  0  0  0  0  0
    1.6328    0.0151   -2.1667 C   0  0  0  0  0  0  0  0  0  0  0  0
    2.4831   -1.2518   -2.3169 C   0  0  0  0  0  0  0  0  0  0  0  0
    0.1508   -0.2826   -1.8313 C   0  0  0  0  0  0  0  0  0  0  0  0
   -0.7001    0.9953   -1.7707 C   0  0  0  0  0  0  0  0  0  0  0  0
   -2.1172    0.6687   -1.2930 C   0  0  0  0  0  0  0  0  0  0  0  0
   -2.6704   -0.5492   -1.8921 N   0  0  0  0  0  0  0  0  0  0  0  0
   -4.0493   -0.8185   -1.8203 C   0  0  0  0  0  0  0  0  0  0  0  0
   -4.6379   -1.3924   -2.7342 O   0  0  0  0  0  0  0  0  0  0  0  0
   -4.7521   -0.4162   -0.6178 C   0  0  0  0  0  0  0  0  0  0  0  0
   -6.0616    0.0184   -0.5037 C   0  0  0  0  0  0  0  0  0  0  0  0
   -6.3429    0.2533    0.8681 C   0  0  0  0  0  0  0  0  0  0  0  0
   -7.4763    0.7023    1.5714 C   0  0  0  0  0  0  0  0  0  0  0  0
   -7.4047    0.8117    2.9629 C   0  0  0  0  0  0  0  0  0  0  0  0
   -8.7859    1.3554    3.8366 Cl  0  0  0  0  0  0  0  0  0  0  0  0
   -6.2398    0.4850    3.6558 C   0  0  0  0  0  0  0  0  0  0  0  0
   -5.1066    0.0303    2.9744 C   0  0  0  0  0  0  0  0  0  0  0  0
   -5.1915   -0.0749    1.5820 C   0  0  0  0  0  0  0  0  0  0  0  0
   -4.2633   -0.5101    0.6653 N   0  0  0  0  0  0  0  0  0  0  0  0
   -1.9777   -1.0464   -3.0736 C   0  0  0  0  0  0  0  0  0  0  0  0
   -0.4868   -1.2787   -2.8234 C   0  0  0  0  0  0  0  0  0  0  0  0
    7.7604    2.2435    0.8741 H   0  0  0  0  0  0  0  0  0  0  0  0
    9.0734    1.0366    0.9073 H   0  0  0  0  0  0  0  0  0  0  0  0
    8.3139    1.5921    2.4144 H   0  0  0  0  0  0  0  0  0  0  0  0
    7.4658   -0.6537    1.8371 H   0  0  0  0  0  0  0  0  0  0  0  0
    6.9524   -0.0690    0.2287 H   0  0  0  0  0  0  0  0  0  0  0  0
    5.2190   -1.0957    2.6263 H   0  0  0  0  0  0  0  0  0  0  0  0
    4.8058   -0.8479    0.9146 H   0  0  0  0  0  0  0  0  0  0  0  0
    3.7255    0.8611    3.2183 H   0  0  0  0  0  0  0  0  0  0  0  0
    2.8654   -0.5533    2.5781 H   0  0  0  0  0  0  0  0  0  0  0  0
    3.6789    1.8855    0.8775 H   0  0  0  0  0  0  0  0  0  0  0  0
    2.1013    1.6912    1.6522 H   0  0  0  0  0  0  0  0  0  0  0  0
    1.9461   -0.4851    0.3340 H   0  0  0  0  0  0  0  0  0  0  0  0
    1.6777    0.5542   -3.1231 H   0  0  0  0  0  0  0  0  0  0  0  0
    3.5485   -1.0020   -2.3914 H   0  0  0  0  0  0  0  0  0  0  0  0
    2.2129   -1.8051   -3.2217 H   0  0  0  0  0  0  0  0  0  0  0  0
    2.3606   -1.9259   -1.4611 H   0  0  0  0  0  0  0  0  0  0  0  0
    0.1070   -0.7463   -0.8356 H   0  0  0  0  0  0  0  0  0  0  0  0
   -0.2672    1.7392   -1.0933 H   0  0  0  0  0  0  0  0  0  0  0  0
   -0.7406    1.4599   -2.7639 H   0  0  0  0  0  0  0  0  0  0  0  0
   -2.7872    1.5096   -1.5068 H   0  0  0  0  0  0  0  0  0  0  0  0
   -2.0914    0.5320   -0.2078 H   0  0  0  0  0  0  0  0  0  0  0  0
   -6.7428    0.1510   -1.3369 H   0  0  0  0  0  0  0  0  0  0  0  0
   -8.3887    0.9517    1.0380 H   0  0  0  0  0  0  0  0  0  0  0  0
   -6.2071    0.5749    4.7388 H   0  0  0  0  0  0  0  0  0  0  0  0
   -4.2015   -0.2312    3.5138 H   0  0  0  0  0  0  0  0  0  0  0  0
   -3.3558   -0.8854    0.9022 H   0  0  0  0  0  0  0  0  0  0  0  0
   -2.1251   -0.3121   -3.8747 H   0  0  0  0  0  0  0  0  0  0  0  0
   -2.4281   -1.9840   -3.4169 H   0  0  0  0  0  0  0  0  0  0  0  0
    0.0218   -1.2577   -3.7953 H   0  0  0  0  0  0  0  0  0  0  0  0
   -0.3448   -2.2921   -2.4240 H   0  0  0  0  0  0  0  0  0  0  0  0
  1  2  1  0
  2  3  1  0
  3  4  1  0
  4  5  1  0
  5  6  1  0
  6  7  1  0
  7  8  1  0
  8  9  2  0
  8 10  1  0
 10 11  1  0
 10 12  1  0
 12 13  1  0
 13 14  1  0
 14 15  1  0
 15 16  1  0
 16 17  2  0
 16 18  1  0
 18 19  2  0
 19 20  1  0
 20 21  2  0
 21 22  1  0
 22 23  1  0
 22 24  2  0
 24 25  1  0
 25 26  2  0
 26 27  1  0
 15 28  1  0
 28 29  1  0
 29 12  1  0
 27 18  1  0
 26 20  1  0
  1 30  1  0
  1 31  1  0
  1 32  1  0
  2 33  1  0
  2 34  1  0
  4 35  1  0
  4 36  1  0
  5 37  1  0
  5 38  1  0
  6 39  1  0
  6 40  1  0
  7 41  1  0
 10 42  1  0
 11 43  1  0
 11 44  1  0
 11 45  1  0
 12 46  1  0
 13 47  1  0
 13 48  1  0
 14 49  1  0
 14 50  1  0
 19 51  1  0
 21 52  1  0
 24 53  1  0
 25 54  1  0
 27 55  1  0
 28 56  1  0
 28 57  1  0
 29 58  1  0
 29 59  1  0
M  END
$$$$
