
     RDKit          3D

 50 53  0  0  0  0  0  0  0  0999 V2000
    5.8898    2.7341   -1.0942 C   0  0  0  0  0  0  0  0  0  0  0  0
    4.6630    2.4662   -0.4281 O   0  0  0  0  0  0  0  0  0  0  0  0
    4.5575    1.2632    0.2141 C   0  0  0  0  0  0  0  0  0  0  0  0
    5.5680    0.3102    0.3413 C   0  0  0  0  0  0  0  0  0  0  0  0
    5.3233   -0.8848    1.0231 C   0  0  0  0  0  0  0  0  0  0  0  0
    4.0717   -1.1295    1.5876 C   0  0  0  0  0  0  0  0  0  0  0  0
    3.0513   -0.1763    1.4830 C   0  0  0  0  0  0  0  0  0  0  0  0
    1.6894   -0.4384    2.0753 C   0  0  0  0  0  0  0  0  0  0  0  0
    0.7937   -1.0518    1.1252 N   0  0  0  0  0  0  0  0  0  0  0  0
    0.0336   -0.3267    0.2262 N   0  0  0  0  0  0  0  0  0  0  0  0
   -0.5004   -1.2271   -0.5405 C   0  0  0  0  0  0  0  0  0  0  0  0
   -1.4255   -1.0615   -1.6781 C   0  0  0  0  0  0  0  0  0  0  0  0
   -1.9465    0.5015   -2.1994 S   0  0  0  0  0  6  0  0  0  0  0  0
   -2.6846    0.3483   -3.4431 O   0  0  0  0  0  0  0  0  0  0  0  0
   -0.8304    1.4240   -2.1662 O   0  0  0  0  0  0  0  0  0  0  0  0
   -3.0924    1.0479   -1.0670 N   0  0  0  0  0  0  0  0  0  0  0  0
   -4.4311    0.4172   -1.0678 C   0  0  0  0  0  0  0  0  0  0  0  0
   -4.9142    0.1228    0.3470 C   0  0  0  0  0  0  0  0  0  0  0  0
   -4.9191    1.3730    1.2242 C   0  0  0  0  0  0  0  0  0  0  0  0
   -3.7517    2.3123    0.9202 C   0  0  0  0  0  0  0  0  0  0  0  0
   -2.6075    1.5865    0.2204 C   0  0  0  0  0  0  0  0  0  0  0  0
   -1.8506   -2.1719   -2.3164 C   0  0  0  0  0  0  0  0  0  0  0  0
   -1.4189   -3.4964   -1.9075 C   0  0  0  0  0  0  0  0  0  0  0  0
   -0.5788   -3.6295   -0.8719 C   0  0  0  0  0  0  0  0  0  0  0  0
   -0.1499   -2.5079   -0.2188 N   0  0  0  0  0  0  0  0  0  0  0  0
    0.7100   -2.4221    0.8525 C   0  0  0  0  0  0  0  0  0  0  0  0
    1.2732   -3.3341    1.4382 O   0  0  0  0  0  0  0  0  0  0  0  0
    3.3047    1.0125    0.7821 C   0  0  0  0  0  0  0  0  0  0  0  0
    5.7986    3.7084   -1.5839 H   0  0  0  0  0  0  0  0  0  0  0  0
    6.0902    1.9886   -1.8709 H   0  0  0  0  0  0  0  0  0  0  0  0
    6.7190    2.7963   -0.3818 H   0  0  0  0  0  0  0  0  0  0  0  0
    6.5550    0.4633   -0.0812 H   0  0  0  0  0  0  0  0  0  0  0  0
    6.1104   -1.6295    1.1107 H   0  0  0  0  0  0  0  0  0  0  0  0
    3.8939   -2.0718    2.1032 H   0  0  0  0  0  0  0  0  0  0  0  0
    1.2376    0.4943    2.4327 H   0  0  0  0  0  0  0  0  0  0  0  0
    1.7858   -1.1020    2.9428 H   0  0  0  0  0  0  0  0  0  0  0  0
   -4.4260   -0.5191   -1.6350 H   0  0  0  0  0  0  0  0  0  0  0  0
   -5.1275    1.0988   -1.5698 H   0  0  0  0  0  0  0  0  0  0  0  0
   -5.9187   -0.3143    0.3211 H   0  0  0  0  0  0  0  0  0  0  0  0
   -4.2585   -0.6316    0.8011 H   0  0  0  0  0  0  0  0  0  0  0  0
   -4.8881    1.0671    2.2767 H   0  0  0  0  0  0  0  0  0  0  0  0
   -5.8601    1.9204    1.0912 H   0  0  0  0  0  0  0  0  0  0  0  0
   -4.1082    3.1279    0.2778 H   0  0  0  0  0  0  0  0  0  0  0  0
   -3.3982    2.7757    1.8481 H   0  0  0  0  0  0  0  0  0  0  0  0
   -1.7949    2.2995    0.0499 H   0  0  0  0  0  0  0  0  0  0  0  0
   -2.2378    0.7791    0.8586 H   0  0  0  0  0  0  0  0  0  0  0  0
   -2.5232   -2.1185   -3.1699 H   0  0  0  0  0  0  0  0  0  0  0  0
   -1.7807   -4.3595   -2.4580 H   0  0  0  0  0  0  0  0  0  0  0  0
   -0.2101   -4.5863   -0.5155 H   0  0  0  0  0  0  0  0  0  0  0  0
    2.5138    1.7517    0.6636 H   0  0  0  0  0  0  0  0  0  0  0  0
  1  2  1  0
  2  3  1  0
  3  4  2  0
  4  5  1  0
  5  6  2  0
  6  7  1  0
  7  8  1  0
  8  9  1  0
  9 10  1  0
 10 11  2  0
 11 12  1  0
 12 13  1  0
 13 14  2  0
 13 15  2  0
 13 16  1  0
 16 17  1  0
 17 18  1  0
 18 19  1  0
 19 20  1  0
 20 21  1  0
 12 22  2  0
 22 23  1  0
 23 24  2  0
 24 25  1  0
 25 26  1  0
 26 27  2  0
  7 28  2  0
 28  3  1  0
 26  9  1  0
 25 11  1  0
 21 16  1  0
  1 29  1  0
  1 30  1  0
  1 31  1  0
  4 32  1  0
  5 33  1  0
  6 34  1  0
  8 35  1  0
  8 36  1  0
 17 37  1  0
 17 38  1  0
 18 39  1  0
 18 40  1  0
 19 41  1  0
 19 42  1  0
 20 43  1  0
 20 44  1  0
 21 45  1  0
 21 46  1  0
 22 47  1  0
 23 48  1  0
 24 49  1  0
 28 50  1  0
M  END
$$$$
