
     RDKit          3D

 54 57  0  0  0  0  0  0  0  0999 V2000
   -2.6655   -0.5013    2.7343 C   0  0  0  0  0  0  0  0  0  0  0  0
   -1.6173   -1.0782    1.8175 C   0  0  0  0  0  0  0  0  0  0  0  0
   -0.8126   -1.8805    2.2995 O   0  0  0  0  0  0  0  0  0  0  0  0
   -1.5579   -0.6733    0.4829 N   0  0  0  0  0  0  0  0  0  0  0  0
   -2.4724    0.2873   -0.1850 C   0  0  0  0  0  0  0  0  0  0  0  0
   -3.8878   -0.2690   -0.4049 C   0  0  0  0  0  0  0  0  0  0  0  0
   -4.9203    0.8507   -0.4305 C   0  0  0  0  0  0  0  0  0  0  0  0
   -4.3880    1.9721   -1.1272 O   0  0  0  0  0  0  0  0  0  0  0  0
   -3.3385    2.6332   -0.4184 C   0  0  0  0  0  0  0  0  0  0  0  0
   -2.4821    1.6903    0.4272 C   0  0  0  0  0  0  0  0  0  0  0  0
   -0.4661   -1.2626   -0.3393 C   0  0  0  0  0  0  0  0  0  0  0  0
   -0.9930   -2.0593   -1.5447 C   0  0  0  0  0  0  0  0  0  0  0  0
    0.1700   -2.6632   -2.3288 C   0  0  0  0  0  0  0  0  0  0  0  0
    1.1750   -1.5949   -2.7501 C   0  0  0  0  0  0  0  0  0  0  0  0
    1.6371   -0.7998   -1.6154 N   0  0  0  0  0  0  0  0  0  0  0  0
    2.8957   -0.1987   -1.7420 C   0  0  0  0  0  0  0  0  0  0  0  0
    3.5913   -0.2962   -2.7515 O   0  0  0  0  0  0  0  0  0  0  0  0
    3.4268    0.6043   -0.6228 C   0  0  0  0  0  0  0  0  0  0  0  0
    3.8474    1.9191   -0.8782 C   0  0  0  0  0  0  0  0  0  0  0  0
    4.3644    2.7059    0.1482 C   0  0  0  0  0  0  0  0  0  0  0  0
    4.4885    2.2024    1.4471 C   0  0  0  0  0  0  0  0  0  0  0  0
    4.0921    0.8781    1.6782 C   0  0  0  0  0  0  0  0  0  0  0  0
    4.1233    0.1341    2.8369 N   0  0  0  0  0  0  0  0  0  0  0  0
    3.6517   -1.1286    2.6015 C   0  0  0  0  0  0  0  0  0  0  0  0
    3.3103   -1.2095    1.2717 C   0  0  0  0  0  0  0  0  0  0  0  0
    3.5711    0.0580    0.6726 C   0  0  0  0  0  0  0  0  0  0  0  0
    0.5803   -0.2167   -0.7775 C   0  0  0  0  0  0  0  0  0  0  0  0
   -2.2786    0.4120    3.1933 H   0  0  0  0  0  0  0  0  0  0  0  0
   -3.6144   -0.3035    2.2428 H   0  0  0  0  0  0  0  0  0  0  0  0
   -2.8701   -1.2253    3.5303 H   0  0  0  0  0  0  0  0  0  0  0  0
   -2.0661    0.4417   -1.1925 H   0  0  0  0  0  0  0  0  0  0  0  0
   -4.1764   -1.0302    0.3258 H   0  0  0  0  0  0  0  0  0  0  0  0
   -3.8984   -0.7839   -1.3747 H   0  0  0  0  0  0  0  0  0  0  0  0
   -5.2201    1.1501    0.5809 H   0  0  0  0  0  0  0  0  0  0  0  0
   -5.8218    0.5162   -0.9536 H   0  0  0  0  0  0  0  0  0  0  0  0
   -3.7758    3.4180    0.2085 H   0  0  0  0  0  0  0  0  0  0  0  0
   -2.7150    3.1310   -1.1687 H   0  0  0  0  0  0  0  0  0  0  0  0
   -1.4669    2.0912    0.5292 H   0  0  0  0  0  0  0  0  0  0  0  0
   -2.9026    1.6799    1.4354 H   0  0  0  0  0  0  0  0  0  0  0  0
    0.0824   -1.9890    0.2730 H   0  0  0  0  0  0  0  0  0  0  0  0
   -1.5769   -1.4226   -2.2183 H   0  0  0  0  0  0  0  0  0  0  0  0
   -1.6637   -2.8563   -1.2027 H   0  0  0  0  0  0  0  0  0  0  0  0
   -0.2097   -3.1848   -3.2143 H   0  0  0  0  0  0  0  0  0  0  0  0
    0.6747   -3.4116   -1.7051 H   0  0  0  0  0  0  0  0  0  0  0  0
    0.7256   -0.9061   -3.4758 H   0  0  0  0  0  0  0  0  0  0  0  0
    2.0272   -2.0780   -3.2412 H   0  0  0  0  0  0  0  0  0  0  0  0
    3.7725    2.3219   -1.8859 H   0  0  0  0  0  0  0  0  0  0  0  0
    4.6842    3.7237   -0.0648 H   0  0  0  0  0  0  0  0  0  0  0  0
    4.8965    2.8180    2.2428 H   0  0  0  0  0  0  0  0  0  0  0  0
    4.4544    0.4742    3.7291 H   0  0  0  0  0  0  0  0  0  0  0  0
    3.5983   -1.8609    3.3962 H   0  0  0  0  0  0  0  0  0  0  0  0
    2.9063   -2.0857    0.7802 H   0  0  0  0  0  0  0  0  0  0  0  0
    0.1212    0.5784   -1.3771 H   0  0  0  0  0  0  0  0  0  0  0  0
    0.9898    0.2779    0.1059 H   0  0  0  0  0  0  0  0  0  0  0  0
  1  2  1  0
  2  3  2  0
  2  4  1  0
  4  5  1  0
  5  6  1  0
  6  7  1  0
  7  8  1  0
  8  9  1  0
  9 10  1  0
  4 11  1  0
 11 12  1  0
 12 13  1  0
 13 14  1  0
 14 15  1  0
 15 16  1  0
 16 17  2  0
 16 18  1  0
 18 19  2  0
 19 20  1  0
 20 21  2  0
 21 22  1  0
 22 23  1  0
 23 24  1  0
 24 25  2  0
 25 26  1  0
 15 27  1  0
 10  5  1  0
 27 11  1  0
 26 18  1  0
 26 22  2  0
  1 28  1  0
  1 29  1  0
  1 30  1  0
  5 31  1  0
  6 32  1  0
  6 33  1  0
  7 34  1  0
  7 35  1  0
  9 36  1  0
  9 37  1  0
 10 38  1  0
 10 39  1  0
 11 40  1  0
 12 41  1  0
 12 42  1  0
 13 43  1  0
 13 44  1  0
 14 45  1  0
 14 46  1  0
 19 47  1  0
 20 48  1  0
 21 49  1  0
 23 50  1  0
 24 51  1  0
 25 52  1  0
 27 53  1  0
 27 54  1  0
M  END
$$$$
