
     RDKit          3D

 41 43  0  0  0  0  0  0  0  0999 V2000
   -2.3224   -0.4481   -1.6853 C   0  0  0  0  0  0  0  0  0  0  0  0
   -2.7013    0.1600   -0.3867 N   0  0  0  0  0  0  0  0  0  0  0  0
   -4.0768    0.5881   -0.3299 C   0  0  0  0  0  0  0  0  0  0  0  0
   -5.1364   -0.3147   -0.2020 C   0  0  0  0  0  0  0  0  0  0  0  0
   -6.4535    0.1479   -0.2267 C   0  0  0  0  0  0  0  0  0  0  0  0
   -6.7137    1.5072   -0.3996 C   0  0  0  0  0  0  0  0  0  0  0  0
   -5.6585    2.4056   -0.5545 C   0  0  0  0  0  0  0  0  0  0  0  0
   -4.3413    1.9447   -0.5293 C   0  0  0  0  0  0  0  0  0  0  0  0
   -2.1824   -0.7106    1.0007 S   0  0  0  0  0  6  0  0  0  0  0  0
   -2.5359   -2.1050    0.8203 O   0  0  0  0  0  0  0  0  0  0  0  0
   -2.5690    0.0126    2.1948 O   0  0  0  0  0  0  0  0  0  0  0  0
   -0.4118   -0.5746    0.8805 C   0  0  0  0  0  0  0  0  0  0  0  0
    0.3630   -1.6907    0.5640 C   0  0  0  0  0  0  0  0  0  0  0  0
    1.7539   -1.5640    0.4789 C   0  0  0  0  0  0  0  0  0  0  0  0
    2.3730   -0.3334    0.7195 C   0  0  0  0  0  0  0  0  0  0  0  0
    3.7650   -0.1297    0.6545 N   0  0  0  0  0  0  0  0  0  0  0  0
    4.7343   -1.0525    0.3306 C   0  0  0  0  0  0  0  0  0  0  0  0
    4.5891   -2.2299    0.0424 O   0  0  0  0  0  0  0  0  0  0  0  0
    6.1113   -0.4840    0.3817 C   0  0  0  0  0  0  0  0  0  0  0  0
    7.0157   -0.6139   -0.8225 C   0  0  0  0  0  0  0  0  0  0  0  0
    6.4903    0.7345   -0.4293 C   0  0  0  0  0  0  0  0  0  0  0  0
    1.5801    0.7749    1.0517 C   0  0  0  0  0  0  0  0  0  0  0  0
    0.1903    0.6589    1.1348 C   0  0  0  0  0  0  0  0  0  0  0  0
   -2.6551    0.1901   -2.5116 H   0  0  0  0  0  0  0  0  0  0  0  0
   -1.2360   -0.5302   -1.7720 H   0  0  0  0  0  0  0  0  0  0  0  0
   -2.7740   -1.4368   -1.8119 H   0  0  0  0  0  0  0  0  0  0  0  0
   -4.9521   -1.3787   -0.0796 H   0  0  0  0  0  0  0  0  0  0  0  0
   -7.2760   -0.5535   -0.1117 H   0  0  0  0  0  0  0  0  0  0  0  0
   -7.7400    1.8657   -0.4157 H   0  0  0  0  0  0  0  0  0  0  0  0
   -5.8612    3.4642   -0.6941 H   0  0  0  0  0  0  0  0  0  0  0  0
   -3.5221    2.6468   -0.6545 H   0  0  0  0  0  0  0  0  0  0  0  0
   -0.0966   -2.6602    0.3841 H   0  0  0  0  0  0  0  0  0  0  0  0
    2.3283   -2.4517    0.2295 H   0  0  0  0  0  0  0  0  0  0  0  0
    4.0953    0.8021    0.8689 H   0  0  0  0  0  0  0  0  0  0  0  0
    6.5928   -0.6178    1.3456 H   0  0  0  0  0  0  0  0  0  0  0  0
    6.6132   -1.0840   -1.7137 H   0  0  0  0  0  0  0  0  0  0  0  0
    8.0626   -0.8313   -0.6448 H   0  0  0  0  0  0  0  0  0  0  0  0
    5.7527    1.1863   -1.0832 H   0  0  0  0  0  0  0  0  0  0  0  0
    7.1876    1.4395    0.0089 H   0  0  0  0  0  0  0  0  0  0  0  0
    2.0322    1.7430    1.2535 H   0  0  0  0  0  0  0  0  0  0  0  0
   -0.4144    1.5237    1.4003 H   0  0  0  0  0  0  0  0  0  0  0  0
  1  2  1  0
  2  3  1  0
  3  4  2  0
  4  5  1  0
  5  6  2  0
  6  7  1  0
  7  8  2  0
  2  9  1  0
  9 10  2  0
  9 11  2  0
  9 12  1  0
 12 13  2  0
 13 14  1  0
 14 15  2  0
 15 16  1  0
 16 17  1  0
 17 18  2  0
 17 19  1  0
 19 20  1  0
 20 21  1  0
 15 22  1  0
 22 23  2  0
  8  3  1  0
 23 12  1  0
 21 19  1  0
  1 24  1  0
  1 25  1  0
  1 26  1  0
  4 27  1  0
  5 28  1  0
  6 29  1  0
  7 30  1  0
  8 31  1  0
 13 32  1  0
 14 33  1  0
 16 34  1  0
 19 35  1  0
 20 36  1  0
 20 37  1  0
 21 38  1  0
 21 39  1  0
 22 40  1  0
 23 41  1  0
M  END
$$$$
