
     RDKit          3D

 72 75  0  0  0  0  0  0  0  0999 V2000
    7.0262    0.8882    2.4391 C   0  0  0  0  0  0  0  0  0  0  0  0
    6.8949    0.5403    0.9562 C   0  0  0  0  0  0  0  0  0  0  0  0
    7.5165   -0.8265    0.6698 C   0  0  0  0  0  0  0  0  0  0  0  0
    5.4410    0.6413    0.4532 C   0  0  0  0  0  0  0  0  0  0  0  0
    4.4619   -0.3575    1.0796 C   0  0  0  0  0  0  0  0  0  0  0  0
    2.9997   -0.1232    0.6667 C   0  0  0  0  0  0  0  0  0  0  0  0
    2.6894   -0.2698   -0.8393 C   0  0  1  0  0  0  0  0  0  0  0  0
    3.0095   -1.6892   -1.3218 C   0  0  0  0  0  0  0  0  0  0  0  0
    1.2766    0.2830   -1.1886 C   0  0  1  0  0  0  0  0  0  0  0  0
    1.0035    0.3555   -2.7187 C   0  0  0  0  0  0  0  0  0  0  0  0
   -0.5204    0.2934   -2.8993 C   0  0  0  0  0  0  0  0  0  0  0  0
   -1.0638    0.4561   -1.4867 C   0  0  1  0  0  0  0  0  0  0  0  0
   -2.5240    0.0718   -1.2179 C   0  0  2  0  0  0  0  0  0  0  0  0
   -3.4851    0.8368   -2.1381 C   0  0  0  0  0  0  0  0  0  0  0  0
   -4.9351    0.4741   -1.8448 C   0  0  0  0  0  0  0  0  0  0  0  0
   -5.2912    0.6849   -0.3921 C   0  0  0  0  0  0  0  0  0  0  0  0
   -6.3986    1.3794   -0.0747 C   0  0  0  0  0  0  0  0  0  0  0  0
   -6.8623    1.5131    1.3251 C   0  0  0  0  0  0  0  0  0  0  0  0
   -7.8625    2.1834    1.5694 O   0  0  0  0  0  0  0  0  0  0  0  0
   -6.1303    0.7405    2.3895 C   0  0  0  0  0  0  0  0  0  0  0  0
   -4.6481    0.6489    2.0567 C   0  0  0  0  0  0  0  0  0  0  0  0
   -4.3550    0.0533    0.6472 C   0  0  1  0  0  0  0  0  0  0  0  0
   -4.6270   -1.4675    0.6797 C   0  0  0  0  0  0  0  0  0  0  0  0
   -2.8577    0.3785    0.2731 C   0  0  1  0  0  0  0  0  0  0  0  0
   -1.8177   -0.2560    1.2316 C   0  0  0  0  0  0  0  0  0  0  0  0
   -0.3577    0.0566    0.8545 C   0  0  0  0  0  0  0  0  0  0  0  0
   -0.0417   -0.3127   -0.6058 C   0  0  2  0  0  0  0  0  0  0  0  0
   -0.1119   -1.8447   -0.7787 C   0  0  0  0  0  0  0  0  0  0  0  0
    8.0818    0.9508    2.7251 H   0  0  0  0  0  0  0  0  0  0  0  0
    6.5566    0.1347    3.0790 H   0  0  0  0  0  0  0  0  0  0  0  0
    6.5651    1.8576    2.6548 H   0  0  0  0  0  0  0  0  0  0  0  0
    7.4744    1.2864    0.3962 H   0  0  0  0  0  0  0  0  0  0  0  0
    7.4138   -1.0876   -0.3886 H   0  0  0  0  0  0  0  0  0  0  0  0
    8.5854   -0.8191    0.9091 H   0  0  0  0  0  0  0  0  0  0  0  0
    7.0508   -1.6184    1.2651 H   0  0  0  0  0  0  0  0  0  0  0  0
    5.0775    1.6611    0.6327 H   0  0  0  0  0  0  0  0  0  0  0  0
    5.4534    0.5040   -0.6344 H   0  0  0  0  0  0  0  0  0  0  0  0
    4.7551   -1.3833    0.8338 H   0  0  0  0  0  0  0  0  0  0  0  0
    4.5064   -0.2775    2.1716 H   0  0  0  0  0  0  0  0  0  0  0  0
    2.7033    0.8774    1.0055 H   0  0  0  0  0  0  0  0  0  0  0  0
    2.3921   -0.8408    1.2283 H   0  0  0  0  0  0  0  0  0  0  0  0
    3.3786    0.3905   -1.3826 H   0  0  0  0  0  0  0  0  0  0  0  0
    4.0942   -1.8444   -1.3443 H   0  0  0  0  0  0  0  0  0  0  0  0
    2.5973   -2.4532   -0.6584 H   0  0  0  0  0  0  0  0  0  0  0  0
    2.6521   -1.8848   -2.3345 H   0  0  0  0  0  0  0  0  0  0  0  0
    1.3058    1.3338   -0.8546 H   0  0  0  0  0  0  0  0  0  0  0  0
    1.4017    1.2943   -3.1213 H   0  0  0  0  0  0  0  0  0  0  0  0
    1.4668   -0.4544   -3.2866 H   0  0  0  0  0  0  0  0  0  0  0  0
   -0.8711    1.0827   -3.5719 H   0  0  0  0  0  0  0  0  0  0  0  0
   -0.8161   -0.6684   -3.3332 H   0  0  0  0  0  0  0  0  0  0  0  0
   -0.9791    1.5311   -1.2528 H   0  0  0  0  0  0  0  0  0  0  0  0
   -2.6594   -0.9963   -1.4177 H   0  0  0  0  0  0  0  0  0  0  0  0
   -3.2717    0.6024   -3.1874 H   0  0  0  0  0  0  0  0  0  0  0  0
   -3.3427    1.9187   -2.0183 H   0  0  0  0  0  0  0  0  0  0  0  0
   -5.1098   -0.5773   -2.1043 H   0  0  0  0  0  0  0  0  0  0  0  0
   -5.5848    1.0647   -2.5025 H   0  0  0  0  0  0  0  0  0  0  0  0
   -7.0447    1.8305   -0.8200 H   0  0  0  0  0  0  0  0  0  0  0  0
   -6.2519    1.2639    3.3443 H   0  0  0  0  0  0  0  0  0  0  0  0
   -6.5875   -0.2495    2.4827 H   0  0  0  0  0  0  0  0  0  0  0  0
   -4.2248    1.6612    2.1201 H   0  0  0  0  0  0  0  0  0  0  0  0
   -4.1546    0.0574    2.8371 H   0  0  0  0  0  0  0  0  0  0  0  0
   -5.6946   -1.6827    0.8062 H   0  0  0  0  0  0  0  0  0  0  0  0
   -4.1045   -1.9531    1.5106 H   0  0  0  0  0  0  0  0  0  0  0  0
   -4.3114   -1.9652   -0.2425 H   0  0  0  0  0  0  0  0  0  0  0  0
   -2.7389    1.4683    0.3896 H   0  0  0  0  0  0  0  0  0  0  0  0
   -1.9488   -1.3420    1.2696 H   0  0  0  0  0  0  0  0  0  0  0  0
   -1.9790    0.1086    2.2521 H   0  0  0  0  0  0  0  0  0  0  0  0
    0.2955   -0.4821    1.5472 H   0  0  0  0  0  0  0  0  0  0  0  0
   -0.1736    1.1257    1.0212 H   0  0  0  0  0  0  0  0  0  0  0  0
   -1.1174   -2.2444   -0.6244 H   0  0  0  0  0  0  0  0  0  0  0  0
    0.2037   -2.1689   -1.7747 H   0  0  0  0  0  0  0  0  0  0  0  0
    0.5258   -2.3444   -0.0430 H   0  0  0  0  0  0  0  0  0  0  0  0
  1  2  1  0
  2  3  1  0
  2  4  1  0
  4  5  1  0
  5  6  1  0
  6  7  1  0
  7  8  1  0
  7  9  1  0
  9 10  1  0
 10 11  1  0
 11 12  1  0
 12 13  1  0
 13 14  1  0
 14 15  1  0
 15 16  1  0
 16 17  2  0
 17 18  1  0
 18 19  2  0
 18 20  1  0
 20 21  1  0
 21 22  1  0
 22 23  1  1
 22 24  1  0
 24 25  1  0
 25 26  1  0
 26 27  1  0
 27 28  1  1
 27  9  1  0
 27 12  1  0
 24 13  1  0
 22 16  1  0
  1 29  1  0
  1 30  1  0
  1 31  1  0
  2 32  1  0
  3 33  1  0
  3 34  1  0
  3 35  1  0
  4 36  1  0
  4 37  1  0
  5 38  1  0
  5 39  1  0
  6 40  1  0
  6 41  1  0
  7 42  1  6
  8 43  1  0
  8 44  1  0
  8 45  1  0
  9 46  1  1
 10 47  1  0
 10 48  1  0
 11 49  1  0
 11 50  1  0
 12 51  1  1
 13 52  1  1
 14 53  1  0
 14 54  1  0
 15 55  1  0
 15 56  1  0
 17 57  1  0
 20 58  1  0
 20 59  1  0
 21 60  1  0
 21 61  1  0
 23 62  1  0
 23 63  1  0
 23 64  1  0
 24 65  1  6
 25 66  1  0
 25 67  1  0
 26 68  1  0
 26 69  1  0
 28 70  1  0
 28 71  1  0
 28 72  1  0
M  END
$$$$
