
     RDKit          3D

 51 53  0  0  0  0  0  0  0  0999 V2000
    4.9772   -0.7670   -3.5803 C   0  0  0  0  0  0  0  0  0  0  0  0
    5.8401   -0.4197   -2.5042 O   0  0  0  0  0  0  0  0  0  0  0  0
    5.3509   -0.5879   -1.2383 C   0  0  0  0  0  0  0  0  0  0  0  0
    6.2764   -0.3437   -0.2173 C   0  0  0  0  0  0  0  0  0  0  0  0
    5.9200   -0.4900    1.1256 C   0  0  0  0  0  0  0  0  0  0  0  0
    4.6229   -0.8699    1.4588 C   0  0  0  0  0  0  0  0  0  0  0  0
    3.6899   -1.0848    0.4417 C   0  0  0  0  0  0  0  0  0  0  0  0
    2.3205   -1.4960    0.8094 C   0  0  0  0  0  0  0  0  0  0  0  0
    2.1702   -2.5508    1.4182 O   0  0  0  0  0  0  0  0  0  0  0  0
    1.2708   -0.6641    0.4598 N   0  0  0  0  0  0  0  0  0  0  0  0
    1.3681    0.7321    0.0637 C   0  0  0  0  0  0  0  0  0  0  0  0
   -0.0447    1.1137   -0.3464 C   0  0  0  0  0  0  0  0  0  0  0  0
   -0.9288    0.2389    0.5504 C   0  0  0  0  0  0  0  0  0  0  0  0
   -2.2845    0.0038    0.0117 N   0  0  0  0  0  0  0  0  0  0  0  0
   -2.6005   -0.7579   -1.1161 C   0  0  0  0  0  0  0  0  0  0  0  0
   -1.5400   -1.5754   -1.8110 C   0  0  0  0  0  0  0  0  0  0  0  0
   -3.7511   -0.8194   -1.5610 O   0  0  0  0  0  0  0  0  0  0  0  0
   -3.3725    0.8076    0.6265 C   0  0  0  0  0  0  0  0  0  0  0  0
   -4.5039   -0.0547    1.2152 C   0  0  0  0  0  0  0  0  0  0  0  0
   -5.8352    0.6836    1.1837 C   0  0  0  0  0  0  0  0  0  0  0  0
   -5.6221    2.0610    1.4796 O   0  0  0  0  0  0  0  0  0  0  0  0
   -4.9591    2.7521    0.4196 C   0  0  0  0  0  0  0  0  0  0  0  0
   -3.9099    1.9053   -0.2988 C   0  0  0  0  0  0  0  0  0  0  0  0
   -0.0766   -0.9915    0.9015 C   0  0  0  0  0  0  0  0  0  0  0  0
    4.0508   -0.9658   -0.9066 C   0  0  0  0  0  0  0  0  0  0  0  0
    4.6825   -1.8203   -3.5275 H   0  0  0  0  0  0  0  0  0  0  0  0
    4.1005   -0.1117   -3.6077 H   0  0  0  0  0  0  0  0  0  0  0  0
    5.5307   -0.6220   -4.5130 H   0  0  0  0  0  0  0  0  0  0  0  0
    7.2923   -0.0501   -0.4736 H   0  0  0  0  0  0  0  0  0  0  0  0
    6.6567   -0.3158    1.9058 H   0  0  0  0  0  0  0  0  0  0  0  0
    4.3399   -1.0020    2.5002 H   0  0  0  0  0  0  0  0  0  0  0  0
    1.6975    1.3064    0.9370 H   0  0  0  0  0  0  0  0  0  0  0  0
    2.0844    0.8816   -0.7464 H   0  0  0  0  0  0  0  0  0  0  0  0
   -0.2000    0.9070   -1.4094 H   0  0  0  0  0  0  0  0  0  0  0  0
   -0.2394    2.1815   -0.2026 H   0  0  0  0  0  0  0  0  0  0  0  0
   -1.0390    0.7787    1.5004 H   0  0  0  0  0  0  0  0  0  0  0  0
   -1.8018   -1.6541   -2.8717 H   0  0  0  0  0  0  0  0  0  0  0  0
   -0.5453   -1.1411   -1.7695 H   0  0  0  0  0  0  0  0  0  0  0  0
   -1.5267   -2.5821   -1.3854 H   0  0  0  0  0  0  0  0  0  0  0  0
   -2.9383    1.3386    1.4842 H   0  0  0  0  0  0  0  0  0  0  0  0
   -4.6167   -1.0275    0.7271 H   0  0  0  0  0  0  0  0  0  0  0  0
   -4.2409   -0.2818    2.2570 H   0  0  0  0  0  0  0  0  0  0  0  0
   -6.3314    0.5843    0.2107 H   0  0  0  0  0  0  0  0  0  0  0  0
   -6.5106    0.2695    1.9391 H   0  0  0  0  0  0  0  0  0  0  0  0
   -5.7097    3.1166   -0.2905 H   0  0  0  0  0  0  0  0  0  0  0  0
   -4.4848    3.6329    0.8654 H   0  0  0  0  0  0  0  0  0  0  0  0
   -3.1015    2.5449   -0.6721 H   0  0  0  0  0  0  0  0  0  0  0  0
   -4.3770    1.4692   -1.1887 H   0  0  0  0  0  0  0  0  0  0  0  0
   -0.3899   -1.9323    0.4474 H   0  0  0  0  0  0  0  0  0  0  0  0
   -0.0655   -1.1512    1.9868 H   0  0  0  0  0  0  0  0  0  0  0  0
    3.3049   -1.1787   -1.6643 H   0  0  0  0  0  0  0  0  0  0  0  0
  1  2  1  0
  2  3  1  0
  3  4  2  0
  4  5  1  0
  5  6  2  0
  6  7  1  0
  7  8  1  0
  8  9  2  0
  8 10  1  0
 10 11  1  0
 11 12  1  0
 12 13  1  0
 13 14  1  0
 14 15  1  0
 15 16  1  0
 15 17  2  0
 14 18  1  0
 18 19  1  0
 19 20  1  0
 20 21  1  0
 21 22  1  0
 22 23  1  0
 13 24  1  0
  7 25  2  0
 25  3  1  0
 24 10  1  0
 23 18  1  0
  1 26  1  0
  1 27  1  0
  1 28  1  0
  4 29  1  0
  5 30  1  0
  6 31  1  0
 11 32  1  0
 11 33  1  0
 12 34  1  0
 12 35  1  0
 13 36  1  0
 16 37  1  0
 16 38  1  0
 16 39  1  0
 18 40  1  0
 19 41  1  0
 19 42  1  0
 20 43  1  0
 20 44  1  0
 22 45  1  0
 22 46  1  0
 23 47  1  0
 23 48  1  0
 24 49  1  0
 24 50  1  0
 25 51  1  0
M  END
$$$$
