
     RDKit          3D

 45 48  0  0  0  0  0  0  0  0999 V2000
    1.3082   -1.8104   -1.4956 N   0  0  0  0  0  0  0  0  0  0  0  0
    1.5542   -0.6478   -0.6095 C   0  0  2  0  0  0  0  0  0  0  0  0
    0.3054   -0.3753    0.2899 C   0  0  0  0  0  0  0  0  0  0  0  0
   -0.9807    0.1331   -0.4454 C   0  0  0  0  0  0  0  0  0  0  0  0
   -2.0911   -0.9181   -0.5594 C   0  0  0  0  0  0  0  0  0  0  0  0
   -1.8508   -2.2961   -0.6858 C   0  0  0  0  0  0  0  0  0  0  0  0
   -2.8954   -3.2123   -0.8555 C   0  0  0  0  0  0  0  0  0  0  0  0
   -4.2098   -2.7690   -0.9190 C   0  0  0  0  0  0  0  0  0  0  0  0
   -4.4737   -1.4090   -0.8110 C   0  0  0  0  0  0  0  0  0  0  0  0
   -3.4252   -0.4986   -0.6296 C   0  0  0  0  0  0  0  0  0  0  0  0
   -3.8089    0.8139   -0.5376 O   0  0  0  0  0  0  0  0  0  0  0  0
   -2.9171    1.7007    0.0076 C   0  0  0  0  0  0  0  0  0  0  0  0
   -3.4778    2.9105    0.4359 C   0  0  0  0  0  0  0  0  0  0  0  0
   -2.6758    3.8932    1.0029 C   0  0  0  0  0  0  0  0  0  0  0  0
   -1.3119    3.6665    1.1290 C   0  0  0  0  0  0  0  0  0  0  0  0
   -0.7540    2.4604    0.6876 C   0  0  0  0  0  0  0  0  0  0  0  0
   -1.5453    1.4423    0.1262 C   0  0  0  0  0  0  0  0  0  0  0  0
    1.9177    0.5581   -1.5271 C   0  0  0  0  0  0  0  0  0  0  0  0
    2.3109    0.4866   -2.6845 O   0  0  0  0  0  0  0  0  0  0  0  0
    1.8594    1.7609   -0.9285 O   0  0  0  0  0  0  0  0  0  0  0  0
    2.7160   -1.0981    0.2781 C   0  0  1  0  0  0  0  0  0  0  0  0
    4.1452   -1.1458   -0.2117 C   0  0  0  0  0  0  0  0  0  0  0  0
    3.7509   -0.1413    0.8497 C   0  0  2  0  0  0  0  0  0  0  0  0
    4.2068   -0.3117    2.2459 C   0  0  0  0  0  0  0  0  0  0  0  0
    4.3302   -1.3843    2.8123 O   0  0  0  0  0  0  0  0  0  0  0  0
    4.4747    0.8553    2.8582 O   0  0  0  0  0  0  0  0  0  0  0  0
    2.0064   -1.7934   -2.2448 H   0  0  0  0  0  0  0  0  0  0  0  0
    1.4605   -2.6808   -0.9903 H   0  0  0  0  0  0  0  0  0  0  0  0
    0.0756   -1.2803    0.8698 H   0  0  0  0  0  0  0  0  0  0  0  0
    0.6216    0.3259    1.0695 H   0  0  0  0  0  0  0  0  0  0  0  0
   -0.7166    0.3758   -1.4841 H   0  0  0  0  0  0  0  0  0  0  0  0
   -0.8448   -2.6959   -0.6654 H   0  0  0  0  0  0  0  0  0  0  0  0
   -2.6741   -4.2725   -0.9491 H   0  0  0  0  0  0  0  0  0  0  0  0
   -5.0226   -3.4759   -1.0573 H   0  0  0  0  0  0  0  0  0  0  0  0
   -5.4979   -1.0496   -0.8641 H   0  0  0  0  0  0  0  0  0  0  0  0
   -4.5461    3.0782    0.3275 H   0  0  0  0  0  0  0  0  0  0  0  0
   -3.1118    4.8293    1.3395 H   0  0  0  0  0  0  0  0  0  0  0  0
   -0.6724    4.4305    1.5644 H   0  0  0  0  0  0  0  0  0  0  0  0
    0.3199    2.3545    0.7953 H   0  0  0  0  0  0  0  0  0  0  0  0
    2.1078    2.3854   -1.6439 H   0  0  0  0  0  0  0  0  0  0  0  0
    2.4100   -1.9114    0.9356 H   0  0  0  0  0  0  0  0  0  0  0  0
    4.7501   -1.9972    0.0852 H   0  0  0  0  0  0  0  0  0  0  0  0
    4.3864   -0.7691   -1.1992 H   0  0  0  0  0  0  0  0  0  0  0  0
    3.7285    0.8948    0.5310 H   0  0  0  0  0  0  0  0  0  0  0  0
    4.7574    0.5882    3.7575 H   0  0  0  0  0  0  0  0  0  0  0  0
  2  1  1  6
  2  3  1  0
  3  4  1  0
  4  5  1  0
  5  6  2  0
  6  7  1  0
  7  8  2  0
  8  9  1  0
  9 10  2  0
 10 11  1  0
 11 12  1  0
 12 13  2  0
 13 14  1  0
 14 15  2  0
 15 16  1  0
 16 17  2  0
  2 18  1  0
 18 19  2  0
 18 20  1  0
  2 21  1  0
 21 22  1  0
 22 23  1  0
 23 24  1  0
 24 25  2  0
 24 26  1  0
 17  4  1  0
 23 21  1  0
 10  5  1  0
 17 12  1  0
  1 27  1  0
  1 28  1  0
  3 29  1  0
  3 30  1  0
  4 31  1  0
  6 32  1  0
  7 33  1  0
  8 34  1  0
  9 35  1  0
 13 36  1  0
 14 37  1  0
 15 38  1  0
 16 39  1  0
 20 40  1  0
 21 41  1  1
 22 42  1  0
 22 43  1  0
 23 44  1  6
 26 45  1  0
M  END
$$$$
