
     RDKit          3D

 57 59  0  0  0  0  0  0  0  0999 V2000
    6.5602    0.6996   -0.7353 C   0  0  0  0  0  0  0  0  0  0  0  0
    5.5769   -0.2599   -0.3142 N   0  0  0  0  0  0  0  0  0  0  0  0
    4.2570   -0.1443   -0.6546 C   0  0  0  0  0  0  0  0  0  0  0  0
    3.8064    0.7096   -1.4049 O   0  0  0  0  0  0  0  0  0  0  0  0
    3.5342   -1.1347   -0.0053 O   0  0  0  0  0  0  0  0  0  0  0  0
    2.1431   -1.1635   -0.2083 C   0  0  0  0  0  0  0  0  0  0  0  0
    1.5897   -2.3995   -0.5855 C   0  0  0  0  0  0  0  0  0  0  0  0
    0.2079   -2.5331   -0.7527 C   0  0  0  0  0  0  0  0  0  0  0  0
   -0.5913   -1.4247   -0.5308 C   0  0  0  0  0  0  0  0  0  0  0  0
   -0.0186   -0.1973   -0.1198 C   0  0  0  0  0  0  0  0  0  0  0  0
    1.3450   -0.0494    0.0550 C   0  0  0  0  0  0  0  0  0  0  0  0
   -1.1345    0.7433    0.1967 C   0  0  0  0  0  0  0  0  0  0  0  0
   -1.3829    0.6996    1.7181 C   0  0  0  0  0  0  0  0  0  0  0  0
   -1.2369    2.1738   -0.3042 C   0  0  0  0  0  0  0  0  0  0  0  0
   -2.7702    2.3456   -0.4527 C   0  0  0  0  0  0  0  0  0  0  0  0
   -3.3522    1.0036   -0.7166 N   0  0  0  0  0  0  0  0  0  0  0  0
   -4.4273    0.6441    0.1819 C   0  0  0  0  0  0  0  0  0  0  0  0
   -2.1999    0.1026   -0.7345 C   0  0  0  0  0  0  0  0  0  0  0  0
   -2.0085   -1.3530   -0.7299 N   0  0  0  0  0  0  0  0  0  0  0  0
   -2.7809   -2.2105    0.1442 C   0  0  0  0  0  0  0  0  0  0  0  0
    2.3964   -1.3945    1.2627 O   0  0  0  0  0  0  0  0  0  0  0  0
    1.9767   -0.4983    0.5521 C   0  0  0  0  0  0  0  0  0  0  0  0
    2.8011    0.4144    0.0108 O   0  0  0  0  0  0  0  0  0  0  0  0
    0.5523   -0.2149    0.2893 C   0  0  0  0  0  0  0  0  0  0  0  0
   -0.3392   -0.3806    1.3591 C   0  0  0  0  0  0  0  0  0  0  0  0
   -1.7000   -0.1241    1.1859 C   0  0  0  0  0  0  0  0  0  0  0  0
   -2.1763    0.2888   -0.0577 C   0  0  0  0  0  0  0  0  0  0  0  0
   -1.2973    0.4363   -1.1332 C   0  0  0  0  0  0  0  0  0  0  0  0
    0.0654    0.1779   -0.9622 C   0  0  0  0  0  0  0  0  0  0  0  0
    0.9015    0.2740   -2.0390 O   0  0  0  0  0  0  0  0  0  0  0  0
    6.5237    1.5561   -0.0572 H   0  0  0  0  0  0  0  0  0  0  0  0
    7.5462    0.2322   -0.6857 H   0  0  0  0  0  0  0  0  0  0  0  0
    6.3564    1.0350   -1.7557 H   0  0  0  0  0  0  0  0  0  0  0  0
    5.7956   -0.9325    0.4071 H   0  0  0  0  0  0  0  0  0  0  0  0
    2.2384   -3.2529   -0.7613 H   0  0  0  0  0  0  0  0  0  0  0  0
   -0.2211   -3.4724   -1.0828 H   0  0  0  0  0  0  0  0  0  0  0  0
    1.7707    0.8864    0.3973 H   0  0  0  0  0  0  0  0  0  0  0  0
   -0.5163    1.1113    2.2513 H   0  0  0  0  0  0  0  0  0  0  0  0
   -2.2456    1.2936    2.0305 H   0  0  0  0  0  0  0  0  0  0  0  0
   -1.5259   -0.3172    2.0950 H   0  0  0  0  0  0  0  0  0  0  0  0
   -0.8053    2.9087    0.3829 H   0  0  0  0  0  0  0  0  0  0  0  0
   -0.7429    2.2937   -1.2767 H   0  0  0  0  0  0  0  0  0  0  0  0
   -2.9985    3.0251   -1.2804 H   0  0  0  0  0  0  0  0  0  0  0  0
   -3.1805    2.7915    0.4617 H   0  0  0  0  0  0  0  0  0  0  0  0
   -5.1958    1.4256    0.1888 H   0  0  0  0  0  0  0  0  0  0  0  0
   -4.9292   -0.2624   -0.1686 H   0  0  0  0  0  0  0  0  0  0  0  0
   -4.1063    0.4801    1.2132 H   0  0  0  0  0  0  0  0  0  0  0  0
   -1.8723    0.3064   -1.7745 H   0  0  0  0  0  0  0  0  0  0  0  0
   -2.7341   -1.8989    1.1909 H   0  0  0  0  0  0  0  0  0  0  0  0
   -3.8296   -2.2098   -0.1663 H   0  0  0  0  0  0  0  0  0  0  0  0
   -2.4451   -3.2516    0.0806 H   0  0  0  0  0  0  0  0  0  0  0  0
    3.6950    0.1128    0.2686 H   0  0  0  0  0  0  0  0  0  0  0  0
    0.0288   -0.7058    2.3302 H   0  0  0  0  0  0  0  0  0  0  0  0
   -2.3867   -0.2485    2.0197 H   0  0  0  0  0  0  0  0  0  0  0  0
   -3.2373    0.4864   -0.1925 H   0  0  0  0  0  0  0  0  0  0  0  0
   -1.6943    0.7400   -2.0975 H   0  0  0  0  0  0  0  0  0  0  0  0
    0.4139    0.6361   -2.7963 H   0  0  0  0  0  0  0  0  0  0  0  0
  1  2  1  0
  2  3  1  0
  3  4  2  0
  3  5  1  0
  5  6  1  0
  6  7  2  0
  7  8  1  0
  8  9  2  0
  9 10  1  0
 10 11  2  0
 10 12  1  0
 12 13  1  0
 12 14  1  0
 14 15  1  0
 15 16  1  0
 16 17  1  0
 16 18  1  0
 18 19  1  0
 19 20  1  0
 21 22  2  0
 22 23  1  0
 22 24  1  0
 24 25  2  0
 25 26  1  0
 26 27  2  0
 27 28  1  0
 28 29  2  0
 29 30  1  0
 11  6  1  0
 18 12  1  0
 29 24  1  0
 19  9  1  0
  1 31  1  0
  1 32  1  0
  1 33  1  0
  2 34  1  0
  7 35  1  0
  8 36  1  0
 11 37  1  0
 13 38  1  0
 13 39  1  0
 13 40  1  0
 14 41  1  0
 14 42  1  0
 15 43  1  0
 15 44  1  0
 17 45  1  0
 17 46  1  0
 17 47  1  0
 18 48  1  0
 20 49  1  0
 20 50  1  0
 20 51  1  0
 23 52  1  0
 25 53  1  0
 26 54  1  0
 27 55  1  0
 28 56  1  0
 30 57  1  0
M  END
$$$$
