
     RDKit          3D

 56 58  0  0  0  0  0  0  0  0999 V2000
    4.4585   -1.7716   -0.8096 O   0  0  0  0  0  0  0  0  0  0  0  0
    4.0616   -0.6145   -0.8358 C   0  0  0  0  0  0  0  0  0  0  0  0
    4.8854    0.4425   -1.0505 O   0  0  0  0  0  0  0  0  0  0  0  0
    6.2912    0.1072   -1.1899 C   0  0  0  0  0  0  0  0  0  0  0  0
    6.9818    0.0550    0.1478 C   0  0  0  0  0  0  0  0  0  0  0  0
    6.4178   -0.8640    0.9655 F   0  0  0  0  0  0  0  0  0  0  0  0
    6.9261    1.2372    0.8004 F   0  0  0  0  0  0  0  0  0  0  0  0
    8.2844   -0.2840    0.0292 F   0  0  0  0  0  0  0  0  0  0  0  0
    6.9833    1.1686   -1.9988 C   0  0  0  0  0  0  0  0  0  0  0  0
    6.4239    1.2577   -3.2322 F   0  0  0  0  0  0  0  0  0  0  0  0
    8.2908    0.8923   -2.1914 F   0  0  0  0  0  0  0  0  0  0  0  0
    6.8979    2.3945   -1.4413 F   0  0  0  0  0  0  0  0  0  0  0  0
    2.7532   -0.2367   -0.6499 N   0  0  0  0  0  0  0  0  0  0  0  0
    1.7724   -1.2646   -0.3144 C   0  0  0  0  0  0  0  0  0  0  0  0
    0.4016   -0.6916    0.0850 C   0  0  0  0  0  0  0  0  0  0  0  0
   -0.0890    0.2503   -0.9318 N   0  0  0  0  0  0  0  0  0  0  0  0
   -1.4308    0.7770   -0.6222 C   0  0  0  0  0  0  0  0  0  0  0  0
   -2.5385   -0.2589   -0.7068 C   0  0  0  0  0  0  0  0  0  0  0  0
   -2.5628   -1.1012   -1.8413 C   0  0  0  0  0  0  0  0  0  0  0  0
   -3.5431   -2.0788   -2.0060 C   0  0  0  0  0  0  0  0  0  0  0  0
   -4.5417   -2.2327   -1.0450 C   0  0  0  0  0  0  0  0  0  0  0  0
   -5.6012   -3.2937   -1.1802 C   0  0  0  0  0  0  0  0  0  0  0  0
   -6.8391   -2.8631   -0.8068 F   0  0  0  0  0  0  0  0  0  0  0  0
   -5.3404   -4.3892   -0.4138 F   0  0  0  0  0  0  0  0  0  0  0  0
   -5.7423   -3.7575   -2.4545 F   0  0  0  0  0  0  0  0  0  0  0  0
   -4.5293   -1.3884    0.0753 C   0  0  0  0  0  0  0  0  0  0  0  0
   -3.5564   -0.3869    0.2594 C   0  0  0  0  0  0  0  0  0  0  0  0
   -3.6976    0.3881    1.3985 N   0  0  0  0  0  0  0  0  0  0  0  0
   -2.8470    0.0818    2.5471 C   0  0  0  0  0  0  0  0  0  0  0  0
   -3.0231    1.3051    3.4406 C   0  0  0  0  0  0  0  0  0  0  0  0
   -3.1384    2.4415    2.4353 C   0  0  0  0  0  0  0  0  0  0  0  0
   -3.9394    1.8281    1.2865 C   0  0  0  0  0  0  0  0  0  0  0  0
    0.8756    1.3372   -1.1933 C   0  0  0  0  0  0  0  0  0  0  0  0
    2.2948    1.1490   -0.6111 C   0  0  0  0  0  0  0  0  0  0  0  0
    6.4061   -0.8467   -1.7180 H   0  0  0  0  0  0  0  0  0  0  0  0
    2.1716   -1.8759    0.5035 H   0  0  0  0  0  0  0  0  0  0  0  0
    1.6719   -1.9169   -1.1906 H   0  0  0  0  0  0  0  0  0  0  0  0
   -0.2890   -1.5333    0.2083 H   0  0  0  0  0  0  0  0  0  0  0  0
    0.4821   -0.1921    1.0594 H   0  0  0  0  0  0  0  0  0  0  0  0
   -1.6943    1.5565   -1.3500 H   0  0  0  0  0  0  0  0  0  0  0  0
   -1.3994    1.2611    0.3565 H   0  0  0  0  0  0  0  0  0  0  0  0
   -1.7927   -0.9970   -2.6050 H   0  0  0  0  0  0  0  0  0  0  0  0
   -3.5190   -2.7163   -2.8879 H   0  0  0  0  0  0  0  0  0  0  0  0
   -5.3088   -1.4967    0.8301 H   0  0  0  0  0  0  0  0  0  0  0  0
   -1.7957   -0.0273    2.2588 H   0  0  0  0  0  0  0  0  0  0  0  0
   -3.1689   -0.8328    3.0557 H   0  0  0  0  0  0  0  0  0  0  0  0
   -2.1918    1.4384    4.1385 H   0  0  0  0  0  0  0  0  0  0  0  0
   -3.9513    1.2211    4.0184 H   0  0  0  0  0  0  0  0  0  0  0  0
   -2.1410    2.7334    2.0865 H   0  0  0  0  0  0  0  0  0  0  0  0
   -3.6221    3.3291    2.8530 H   0  0  0  0  0  0  0  0  0  0  0  0
   -5.0097    2.0156    1.4272 H   0  0  0  0  0  0  0  0  0  0  0  0
   -3.6458    2.2600    0.3239 H   0  0  0  0  0  0  0  0  0  0  0  0
    0.5031    2.3054   -0.8338 H   0  0  0  0  0  0  0  0  0  0  0  0
    0.9605    1.4244   -2.2835 H   0  0  0  0  0  0  0  0  0  0  0  0
    2.9928    1.8089   -1.1358 H   0  0  0  0  0  0  0  0  0  0  0  0
    2.3010    1.4455    0.4452 H   0  0  0  0  0  0  0  0  0  0  0  0
  1  2  2  0
  2  3  1  0
  3  4  1  0
  4  5  1  0
  5  6  1  0
  5  7  1  0
  5  8  1  0
  4  9  1  0
  9 10  1  0
  9 11  1  0
  9 12  1  0
  2 13  1  0
 13 14  1  0
 14 15  1  0
 15 16  1  0
 16 17  1  0
 17 18  1  0
 18 19  2  0
 19 20  1  0
 20 21  2  0
 21 22  1  0
 22 23  1  0
 22 24  1  0
 22 25  1  0
 21 26  1  0
 26 27  2  0
 27 28  1  0
 28 29  1  0
 29 30  1  0
 30 31  1  0
 31 32  1  0
 16 33  1  0
 33 34  1  0
 34 13  1  0
 27 18  1  0
 32 28  1  0
  4 35  1  0
 14 36  1  0
 14 37  1  0
 15 38  1  0
 15 39  1  0
 17 40  1  0
 17 41  1  0
 19 42  1  0
 20 43  1  0
 26 44  1  0
 29 45  1  0
 29 46  1  0
 30 47  1  0
 30 48  1  0
 31 49  1  0
 31 50  1  0
 32 51  1  0
 32 52  1  0
 33 53  1  0
 33 54  1  0
 34 55  1  0
 34 56  1  0
M  END
$$$$
