
     RDKit          3D

 53 57  0  0  0  0  0  0  0  0999 V2000
    3.1920   -3.4537   -0.9859 C   0  0  0  0  0  0  0  0  0  0  0  0
    3.1817   -2.1368   -1.5290 O   0  0  0  0  0  0  0  0  0  0  0  0
    2.1006   -1.3828   -1.1064 C   0  0  0  0  0  0  0  0  0  0  0  0
    1.2087   -1.9175   -0.2472 N   0  0  0  0  0  0  0  0  0  0  0  0
    0.1774   -1.1187    0.1244 C   0  0  0  0  0  0  0  0  0  0  0  0
   -0.0222    0.1949   -0.3121 C   0  0  0  0  0  0  0  0  0  0  0  0
   -1.1653    1.0032    0.1413 C   0  0  0  0  0  0  0  0  0  0  0  0
   -0.9937    2.3194    0.5794 C   0  0  0  0  0  0  0  0  0  0  0  0
   -2.0857    3.0789    1.0127 C   0  0  0  0  0  0  0  0  0  0  0  0
   -3.3750    2.5718    1.0256 C   0  0  0  0  0  0  0  0  0  0  0  0
   -4.3637    3.3679    1.4606 N   0  0  0  0  0  0  0  0  0  0  0  0
   -5.6188    2.8808    1.4720 C   0  0  0  0  0  0  0  0  0  0  0  0
   -5.9463    1.6059    1.0615 C   0  0  0  0  0  0  0  0  0  0  0  0
   -4.9261    0.7637    0.6049 C   0  0  0  0  0  0  0  0  0  0  0  0
   -5.2805   -0.5908    0.1660 C   0  0  0  0  0  0  0  0  0  0  0  0
   -5.4405   -1.6328    1.0782 C   0  0  0  0  0  0  0  0  0  0  0  0
   -5.7709   -2.8851    0.5970 C   0  0  0  0  0  0  0  0  0  0  0  0
   -5.9442   -3.1376   -0.7153 N   0  0  0  0  0  0  0  0  0  0  0  0
   -5.7957   -2.1296   -1.6148 N   0  0  0  0  0  0  0  0  0  0  0  0
   -5.4752   -0.8935   -1.1760 C   0  0  0  0  0  0  0  0  0  0  0  0
   -3.5898    1.2492    0.5836 C   0  0  0  0  0  0  0  0  0  0  0  0
   -2.4718    0.4864    0.1496 C   0  0  0  0  0  0  0  0  0  0  0  0
    0.9356    0.7054   -1.1997 C   0  0  0  0  0  0  0  0  0  0  0  0
    2.0133   -0.0803   -1.6031 C   0  0  0  0  0  0  0  0  0  0  0  0
    3.0318    0.4600   -2.4591 N   0  0  0  0  0  0  0  0  0  0  0  0
    4.0631    1.6283   -1.7896 S   0  0  0  0  0  6  0  0  0  0  0  0
    3.2519    2.7031   -1.2534 O   0  0  0  0  0  0  0  0  0  0  0  0
    5.0997    1.9012   -2.7599 O   0  0  0  0  0  0  0  0  0  0  0  0
    4.8134    0.8000   -0.4233 C   0  0  0  0  0  0  0  0  0  0  0  0
    4.5604    1.2154    0.8891 C   0  0  0  0  0  0  0  0  0  0  0  0
    5.1777    0.5451    1.9464 C   0  0  0  0  0  0  0  0  0  0  0  0
    6.0372   -0.5189    1.6809 C   0  0  0  0  0  0  0  0  0  0  0  0
    6.6238   -1.1593    2.6998 F   0  0  0  0  0  0  0  0  0  0  0  0
    6.2943   -0.9286    0.3783 C   0  0  0  0  0  0  0  0  0  0  0  0
    5.6785   -0.2603   -0.6736 C   0  0  0  0  0  0  0  0  0  0  0  0
    5.9049   -0.6848   -1.9240 F   0  0  0  0  0  0  0  0  0  0  0  0
    3.2817   -3.4310    0.1057 H   0  0  0  0  0  0  0  0  0  0  0  0
    2.3078   -4.0195   -1.2987 H   0  0  0  0  0  0  0  0  0  0  0  0
    4.0734   -3.9684   -1.3805 H   0  0  0  0  0  0  0  0  0  0  0  0
   -0.5109   -1.5855    0.8264 H   0  0  0  0  0  0  0  0  0  0  0  0
   -0.0049    2.7758    0.5997 H   0  0  0  0  0  0  0  0  0  0  0  0
   -1.9208    4.1001    1.3510 H   0  0  0  0  0  0  0  0  0  0  0  0
   -6.3794    3.5684    1.8314 H   0  0  0  0  0  0  0  0  0  0  0  0
   -6.9807    1.2773    1.0937 H   0  0  0  0  0  0  0  0  0  0  0  0
   -5.3076   -1.4762    2.1436 H   0  0  0  0  0  0  0  0  0  0  0  0
   -5.9077   -3.7349    1.2560 H   0  0  0  0  0  0  0  0  0  0  0  0
   -5.3762   -0.1445   -1.9549 H   0  0  0  0  0  0  0  0  0  0  0  0
   -2.6289   -0.5320   -0.2045 H   0  0  0  0  0  0  0  0  0  0  0  0
    0.8369    1.7168   -1.5894 H   0  0  0  0  0  0  0  0  0  0  0  0
    3.5831   -0.2509   -2.9500 H   0  0  0  0  0  0  0  0  0  0  0  0
    3.8935    2.0501    1.0948 H   0  0  0  0  0  0  0  0  0  0  0  0
    4.9976    0.8453    2.9750 H   0  0  0  0  0  0  0  0  0  0  0  0
    6.9624   -1.7605    0.1864 H   0  0  0  0  0  0  0  0  0  0  0  0
  1  2  1  0
  2  3  1  0
  3  4  2  0
  4  5  1  0
  5  6  2  0
  6  7  1  0
  7  8  2  0
  8  9  1  0
  9 10  2  0
 10 11  1  0
 11 12  2  0
 12 13  1  0
 13 14  2  0
 14 15  1  0
 15 16  2  0
 16 17  1  0
 17 18  2  0
 18 19  1  0
 19 20  2  0
 14 21  1  0
 21 22  2  0
  6 23  1  0
 23 24  2  0
 24 25  1  0
 25 26  1  0
 26 27  2  0
 26 28  2  0
 26 29  1  0
 29 30  2  0
 30 31  1  0
 31 32  2  0
 32 33  1  0
 32 34  1  0
 34 35  2  0
 35 36  1  0
 24  3  1  0
 35 29  1  0
 22  7  1  0
 21 10  1  0
 20 15  1  0
  1 37  1  0
  1 38  1  0
  1 39  1  0
  5 40  1  0
  8 41  1  0
  9 42  1  0
 12 43  1  0
 13 44  1  0
 16 45  1  0
 17 46  1  0
 20 47  1  0
 22 48  1  0
 23 49  1  0
 25 50  1  0
 30 51  1  0
 31 52  1  0
 34 53  1  0
M  END
$$$$
