
     RDKit          3D

 58 57  0  0  0  0  0  0  0  0999 V2000
    5.3425   -1.0733    3.6937 C   0  0  0  0  0  0  0  0  0  0  0  0
    4.5317    0.2109    3.7014 C   0  0  0  0  0  0  0  0  0  0  0  0
    3.7698    0.3285    2.4910 O   0  0  0  0  0  0  0  0  0  0  0  0
    2.5779   -0.3172    2.4773 C   0  0  0  0  0  0  0  0  0  0  0  0
    2.1121   -0.9832    3.3900 O   0  0  0  0  0  0  0  0  0  0  0  0
    1.8988   -0.1039    1.1690 C   0  0  0  0  0  0  0  0  0  0  0  0
    0.6179   -0.5036    1.0525 C   0  0  0  0  0  0  0  0  0  0  0  0
   -0.1917   -0.3396   -0.2032 C   0  0  1  0  0  0  0  0  0  0  0  0
   -1.4915    0.1496    0.1500 O   0  0  0  0  0  0  0  0  0  0  0  0
   -2.4656   -0.8650    0.4344 C   0  0  0  0  0  0  0  0  0  0  0  0
   -3.1266   -1.3060   -0.8830 C   0  0  0  0  0  0  0  0  0  0  0  0
   -4.2175   -2.3484   -0.7015 C   0  0  0  0  0  0  0  0  0  0  0  0
   -3.4415   -0.2842    1.4704 C   0  0  0  0  0  0  0  0  0  0  0  0
   -4.2087    0.9444    0.9961 C   0  0  0  0  0  0  0  0  0  0  0  0
    0.4455    0.6838   -1.1868 C   0  0  2  0  0  0  0  0  0  0  0  0
   -0.2659    0.6907   -2.4791 N   0  0  0  0  0  0  0  0  0  0  0  0
   -0.2962    1.8178   -3.2716 C   0  0  0  0  0  0  0  0  0  0  0  0
   -1.2464    1.7271   -4.4347 C   0  0  0  0  0  0  0  0  0  0  0  0
    0.3788    2.8201   -3.0594 O   0  0  0  0  0  0  0  0  0  0  0  0
    1.9579    0.3551   -1.3321 C   0  0  1  0  0  0  0  0  0  0  0  0
    2.6633    1.1575   -2.3471 N   0  0  0  0  0  0  0  0  0  0  0  0
    2.6642    0.5162    0.0295 C   0  0  0  0  0  0  0  0  0  0  0  0
    1.1157    0.9804    0.8475 O   0  0  0  0  0  0  0  0  0  0  0  0
    0.1512    0.1328    0.1092 P   0  0  0  0  0  5  0  0  0  0  0  0
   -1.2099    0.8329   -0.3164 O   0  0  0  0  0  0  0  0  0  0  0  0
    0.6668   -0.4750   -1.2660 O   0  0  0  0  0  0  0  0  0  0  0  0
   -0.3679   -1.1587    0.8767 O   0  0  0  0  0  0  0  0  0  0  0  0
    4.6892   -1.9505    3.6780 H   0  0  0  0  0  0  0  0  0  0  0  0
    5.9840   -1.1318    4.5777 H   0  0  0  0  0  0  0  0  0  0  0  0
    5.9691   -1.1265    2.7982 H   0  0  0  0  0  0  0  0  0  0  0  0
    5.2116    1.0705    3.7340 H   0  0  0  0  0  0  0  0  0  0  0  0
    3.8840    0.2784    4.5853 H   0  0  0  0  0  0  0  0  0  0  0  0
    0.1168   -0.9695    1.8994 H   0  0  0  0  0  0  0  0  0  0  0  0
   -0.2762   -1.3145   -0.7003 H   0  0  0  0  0  0  0  0  0  0  0  0
   -1.9739   -1.7319    0.8973 H   0  0  0  0  0  0  0  0  0  0  0  0
   -3.5245   -0.4364   -1.4198 H   0  0  0  0  0  0  0  0  0  0  0  0
   -2.3595   -1.7216   -1.5469 H   0  0  0  0  0  0  0  0  0  0  0  0
   -3.8602   -3.1939   -0.1078 H   0  0  0  0  0  0  0  0  0  0  0  0
   -5.0944   -1.9244   -0.2052 H   0  0  0  0  0  0  0  0  0  0  0  0
   -4.5401   -2.7293   -1.6744 H   0  0  0  0  0  0  0  0  0  0  0  0
   -4.1509   -1.0527    1.7967 H   0  0  0  0  0  0  0  0  0  0  0  0
   -2.8665    0.0097    2.3580 H   0  0  0  0  0  0  0  0  0  0  0  0
   -3.5285    1.7507    0.6970 H   0  0  0  0  0  0  0  0  0  0  0  0
   -4.8397    1.3240    1.8080 H   0  0  0  0  0  0  0  0  0  0  0  0
   -4.8608    0.7089    0.1507 H   0  0  0  0  0  0  0  0  0  0  0  0
    0.3316    1.6949   -0.7706 H   0  0  0  0  0  0  0  0  0  0  0  0
   -1.0446    0.0512   -2.5688 H   0  0  0  0  0  0  0  0  0  0  0  0
   -0.7542    2.1170   -5.3295 H   0  0  0  0  0  0  0  0  0  0  0  0
   -2.1360    2.3255   -4.2143 H   0  0  0  0  0  0  0  0  0  0  0  0
   -1.5472    0.6948   -4.6315 H   0  0  0  0  0  0  0  0  0  0  0  0
    2.0537   -0.6920   -1.6490 H   0  0  0  0  0  0  0  0  0  0  0  0
    2.2927    0.9032   -3.2648 H   0  0  0  0  0  0  0  0  0  0  0  0
    2.3443    2.1321   -2.2615 H   0  0  0  0  0  0  0  0  0  0  0  0
    2.8137    1.5818    0.2519 H   0  0  0  0  0  0  0  0  0  0  0  0
    3.6575    0.0550   -0.0442 H   0  0  0  0  0  0  0  0  0  0  0  0
   -1.6814    1.1789    0.4608 H   0  0  0  0  0  0  0  0  0  0  0  0
    0.9512    0.2264   -1.8767 H   0  0  0  0  0  0  0  0  0  0  0  0
    0.3743   -1.7178    1.1651 H   0  0  0  0  0  0  0  0  0  0  0  0
  1  2  1  0
  2  3  1  0
  3  4  1  0
  4  5  2  0
  4  6  1  0
  6  7  2  0
  7  8  1  0
  8  9  1  0
  9 10  1  0
 10 11  1  0
 11 12  1  0
 10 13  1  0
 13 14  1  0
  8 15  1  0
 15 16  1  0
 16 17  1  0
 17 18  1  0
 17 19  2  0
 15 20  1  0
 20 21  1  0
 20 22  1  0
 23 24  2  0
 24 25  1  0
 24 26  1  0
 24 27  1  0
 22  6  1  0
  1 28  1  0
  1 29  1  0
  1 30  1  0
  2 31  1  0
  2 32  1  0
  7 33  1  0
  8 34  1  6
 10 35  1  0
 11 36  1  0
 11 37  1  0
 12 38  1  0
 12 39  1  0
 12 40  1  0
 13 41  1  0
 13 42  1  0
 14 43  1  0
 14 44  1  0
 14 45  1  0
 15 46  1  1
 16 47  1  0
 18 48  1  0
 18 49  1  0
 18 50  1  0
 20 51  1  6
 21 52  1  0
 21 53  1  0
 22 54  1  0
 22 55  1  0
 25 56  1  0
 26 57  1  0
 27 58  1  0
M  END
$$$$
