
     RDKit          3D

 76 81  0  0  0  0  0  0  0  0999 V2000
   -3.6669   -1.5596    3.6063 C   0  0  0  0  0  0  0  0  0  0  0  0
   -2.7547   -1.1819    2.5832 O   0  0  0  0  0  0  0  0  0  0  0  0
   -3.2820   -0.5886    1.4551 C   0  0  0  0  0  0  0  0  0  0  0  0
   -4.6546   -0.4230    1.2051 C   0  0  0  0  0  0  0  0  0  0  0  0
   -5.1318    0.1969    0.0378 C   0  0  0  0  0  0  0  0  0  0  0  0
   -6.4867    0.3660   -0.1977 N   0  0  0  0  0  0  0  0  0  0  0  0
   -6.9888    1.3243   -1.1985 C   0  0  0  0  0  0  0  0  0  0  0  0
   -8.4261    1.7724   -0.8436 C   0  0  0  0  0  0  0  0  0  0  0  0
   -9.4138    0.6715   -0.7980 N   0  0  0  0  0  0  0  0  0  0  0  0
  -10.5252    1.0186    0.0834 C   0  0  0  0  0  0  0  0  0  0  0  0
   -8.7780   -0.6029   -0.4023 C   0  0  0  0  0  0  0  0  0  0  0  0
   -7.4977   -0.4807    0.4586 C   0  0  0  0  0  0  0  0  0  0  0  0
   -4.1613    0.6430   -0.8688 C   0  0  0  0  0  0  0  0  0  0  0  0
   -2.7881    0.4811   -0.6352 C   0  0  0  0  0  0  0  0  0  0  0  0
   -2.3243   -0.1362    0.5237 C   0  0  0  0  0  0  0  0  0  0  0  0
   -0.9649   -0.3193    0.8184 N   0  0  0  0  0  0  0  0  0  0  0  0
    0.2261    0.0582    0.2176 C   0  0  0  0  0  0  0  0  0  0  0  0
    0.2511    0.7849   -0.9065 N   0  0  0  0  0  0  0  0  0  0  0  0
    1.4533    1.1237   -1.3952 C   0  0  0  0  0  0  0  0  0  0  0  0
    2.6374    0.7457   -0.8133 C   0  0  0  0  0  0  0  0  0  0  0  0
    2.5386   -0.0040    0.3290 C   0  0  0  0  0  0  0  0  0  0  0  0
    1.3409   -0.3375    0.8513 N   0  0  0  0  0  0  0  0  0  0  0  0
    3.7325   -0.4337    0.9772 N   0  0  0  0  0  0  0  0  0  0  0  0
    3.5659   -1.1321    2.2964 C   0  0  0  0  0  0  0  0  0  0  0  0
    4.5881   -0.8177    3.4149 C   0  0  0  0  0  0  0  0  0  0  0  0
    4.5290   -2.3135    3.7945 C   0  0  0  0  0  0  0  0  0  0  0  0
    4.0324   -2.6051    2.3630 C   0  0  0  0  0  0  0  0  0  0  0  0
    4.9801   -0.3602    0.3346 C   0  0  0  0  0  0  0  0  0  0  0  0
    5.9933   -0.8765    0.8105 O   0  0  0  0  0  0  0  0  0  0  0  0
    4.9993    0.2711   -0.9104 N   0  0  0  0  0  0  0  0  0  0  0  0
    6.2292    0.4210   -1.6162 C   0  0  0  0  0  0  0  0  0  0  0  0
    7.2604    1.2583   -1.1366 C   0  0  0  0  0  0  0  0  0  0  0  0
    7.1903    1.9773    0.1833 C   0  0  0  0  0  0  0  0  0  0  0  0
    8.4311    1.3951   -1.9003 C   0  0  0  0  0  0  0  0  0  0  0  0
    8.5688    0.7438   -3.1238 C   0  0  0  0  0  0  0  0  0  0  0  0
    7.5468   -0.0748   -3.5961 C   0  0  0  0  0  0  0  0  0  0  0  0
    6.3754   -0.2574   -2.8476 C   0  0  0  0  0  0  0  0  0  0  0  0
    5.3104   -1.1793   -3.3780 C   0  0  0  0  0  0  0  0  0  0  0  0
    3.9571    1.2030   -1.2871 C   0  0  0  0  0  0  0  0  0  0  0  0
   -3.0843   -1.9627    4.4397 H   0  0  0  0  0  0  0  0  0  0  0  0
   -4.3428   -2.3490    3.2610 H   0  0  0  0  0  0  0  0  0  0  0  0
   -4.2255   -0.6948    3.9795 H   0  0  0  0  0  0  0  0  0  0  0  0
   -5.3750   -0.7598    1.9398 H   0  0  0  0  0  0  0  0  0  0  0  0
   -6.3647    2.2263   -1.2223 H   0  0  0  0  0  0  0  0  0  0  0  0
   -6.9681    0.8660   -2.1954 H   0  0  0  0  0  0  0  0  0  0  0  0
   -8.7623    2.5123   -1.5790 H   0  0  0  0  0  0  0  0  0  0  0  0
   -8.3792    2.2823    0.1294 H   0  0  0  0  0  0  0  0  0  0  0  0
  -10.9882    1.9599   -0.2337 H   0  0  0  0  0  0  0  0  0  0  0  0
  -10.2085    1.1228    1.1273 H   0  0  0  0  0  0  0  0  0  0  0  0
  -11.3072    0.2523    0.0354 H   0  0  0  0  0  0  0  0  0  0  0  0
   -9.4953   -1.2640    0.1014 H   0  0  0  0  0  0  0  0  0  0  0  0
   -8.5077   -1.1231   -1.3326 H   0  0  0  0  0  0  0  0  0  0  0  0
   -7.7476   -0.0546    1.4382 H   0  0  0  0  0  0  0  0  0  0  0  0
   -7.1132   -1.4964    0.6150 H   0  0  0  0  0  0  0  0  0  0  0  0
   -4.4509    1.1135   -1.8044 H   0  0  0  0  0  0  0  0  0  0  0  0
   -2.0986    0.8433   -1.3907 H   0  0  0  0  0  0  0  0  0  0  0  0
   -0.7951   -0.8222    1.6801 H   0  0  0  0  0  0  0  0  0  0  0  0
    1.4252    1.7365   -2.2921 H   0  0  0  0  0  0  0  0  0  0  0  0
    2.5525   -1.0246    2.7087 H   0  0  0  0  0  0  0  0  0  0  0  0
    5.5828   -0.4852    3.1069 H   0  0  0  0  0  0  0  0  0  0  0  0
    4.2311   -0.1336    4.1913 H   0  0  0  0  0  0  0  0  0  0  0  0
    5.4842   -2.7707    4.0655 H   0  0  0  0  0  0  0  0  0  0  0  0
    3.7895   -2.5418    4.5710 H   0  0  0  0  0  0  0  0  0  0  0  0
    4.8316   -2.8923    1.6726 H   0  0  0  0  0  0  0  0  0  0  0  0
    3.2345   -3.3500    2.2920 H   0  0  0  0  0  0  0  0  0  0  0  0
    7.4952    1.3100    0.9943 H   0  0  0  0  0  0  0  0  0  0  0  0
    7.8565    2.8471    0.1917 H   0  0  0  0  0  0  0  0  0  0  0  0
    6.1842    2.3559    0.3861 H   0  0  0  0  0  0  0  0  0  0  0  0
    9.2493    2.0161   -1.5409 H   0  0  0  0  0  0  0  0  0  0  0  0
    9.4805    0.8644   -3.7036 H   0  0  0  0  0  0  0  0  0  0  0  0
    7.6780   -0.5870   -4.5467 H   0  0  0  0  0  0  0  0  0  0  0  0
    5.6957   -1.8077   -4.1885 H   0  0  0  0  0  0  0  0  0  0  0  0
    4.9558   -1.8559   -2.5935 H   0  0  0  0  0  0  0  0  0  0  0  0
    4.4680   -0.6020   -3.7701 H   0  0  0  0  0  0  0  0  0  0  0  0
    4.1793    2.1778   -0.8370 H   0  0  0  0  0  0  0  0  0  0  0  0
    3.9478    1.3190   -2.3773 H   0  0  0  0  0  0  0  0  0  0  0  0
  1  2  1  0
  2  3  1  0
  3  4  2  0
  4  5  1  0
  5  6  1  0
  6  7  1  0
  7  8  1  0
  8  9  1  0
  9 10  1  0
  9 11  1  0
 11 12  1  0
  5 13  2  0
 13 14  1  0
 14 15  2  0
 15 16  1  0
 16 17  1  0
 17 18  2  0
 18 19  1  0
 19 20  2  0
 20 21  1  0
 21 22  2  0
 21 23  1  0
 23 24  1  0
 24 25  1  0
 25 26  1  0
 26 27  1  0
 23 28  1  0
 28 29  2  0
 28 30  1  0
 30 31  1  0
 31 32  2  0
 32 33  1  0
 32 34  1  0
 34 35  2  0
 35 36  1  0
 36 37  2  0
 37 38  1  0
 30 39  1  0
 15  3  1  0
 22 17  1  0
 27 24  1  0
 37 31  1  0
 12  6  1  0
 39 20  1  0
  1 40  1  0
  1 41  1  0
  1 42  1  0
  4 43  1  0
  7 44  1  0
  7 45  1  0
  8 46  1  0
  8 47  1  0
 10 48  1  0
 10 49  1  0
 10 50  1  0
 11 51  1  0
 11 52  1  0
 12 53  1  0
 12 54  1  0
 13 55  1  0
 14 56  1  0
 16 57  1  0
 19 58  1  0
 24 59  1  0
 25 60  1  0
 25 61  1  0
 26 62  1  0
 26 63  1  0
 27 64  1  0
 27 65  1  0
 33 66  1  0
 33 67  1  0
 33 68  1  0
 34 69  1  0
 35 70  1  0
 36 71  1  0
 38 72  1  0
 38 73  1  0
 38 74  1  0
 39 75  1  0
 39 76  1  0
M  END
$$$$
