
     RDKit          3D

 75 76  0  0  0  0  0  0  0  0999 V2000
   -9.4650    0.9158    1.7101 C   0  0  0  0  0  0  0  0  0  0  0  0
   -8.1769    0.8853    0.4372 S   0  0  0  0  0  0  0  0  0  0  0  0
   -6.7683    1.5045    1.4110 C   0  0  0  0  0  0  0  0  0  0  0  0
   -6.2208    0.5426    2.4706 C   0  0  0  0  0  0  0  0  0  0  0  0
   -5.4769   -0.7057    1.9692 C   0  0  2  0  0  0  0  0  0  0  0  0
   -4.3562   -0.3519    1.0942 N   0  0  0  0  0  0  0  0  0  0  0  0
   -3.2266   -1.1433    1.0538 C   0  0  0  0  0  0  0  0  0  0  0  0
   -3.0503   -2.0860    1.8294 O   0  0  0  0  0  0  0  0  0  0  0  0
   -2.1668   -0.7495   -0.0008 C   0  0  2  0  0  0  0  0  0  0  0  0
   -2.6078   -1.0892   -1.4353 C   0  0  0  0  0  0  0  0  0  0  0  0
   -3.5821   -0.0974   -2.0270 C   0  0  0  0  0  0  0  0  0  0  0  0
   -3.1864    1.2239   -2.2796 C   0  0  0  0  0  0  0  0  0  0  0  0
   -4.0998    2.1510   -2.7817 C   0  0  0  0  0  0  0  0  0  0  0  0
   -5.4135    1.7667   -3.0413 C   0  0  0  0  0  0  0  0  0  0  0  0
   -5.8118    0.4518   -2.8107 C   0  0  0  0  0  0  0  0  0  0  0  0
   -4.8988   -0.4788   -2.3151 C   0  0  0  0  0  0  0  0  0  0  0  0
   -0.9486   -1.4810    0.3529 N   0  0  0  0  0  0  0  0  0  0  0  0
    0.3001   -1.0840   -0.0514 C   0  0  0  0  0  0  0  0  0  0  0  0
    0.4988   -0.0520   -0.6912 O   0  0  0  0  0  0  0  0  0  0  0  0
    1.4331   -2.0063    0.4103 C   0  0  0  0  0  0  0  0  0  0  0  0
    2.5696   -1.8484   -0.4725 N   0  0  0  0  0  0  0  0  0  0  0  0
    2.6664   -2.5906   -1.6290 C   0  0  0  0  0  0  0  0  0  0  0  0
    1.9268   -3.5400   -1.8760 O   0  0  0  0  0  0  0  0  0  0  0  0
    3.7305   -2.1079   -2.6242 C   0  0  0  0  0  0  0  0  0  0  0  0
    4.5339   -0.9882   -2.1443 N   0  0  0  0  0  0  0  0  0  0  0  0
    5.7093   -1.2037   -1.4550 C   0  0  0  0  0  0  0  0  0  0  0  0
    6.0728   -2.3292   -1.1172 O   0  0  0  0  0  0  0  0  0  0  0  0
    6.5052    0.0613   -1.0650 C   0  0  1  0  0  0  0  0  0  0  0  0
    6.0983    1.2423   -1.8653 N   0  0  0  0  0  0  0  0  0  0  0  0
    6.3223    0.3026    0.4454 C   0  0  0  0  0  0  0  0  0  0  0  0
    7.4580    1.0803    1.0700 C   0  0  0  0  0  0  0  0  0  0  0  0
    8.5049    0.4054    1.7174 C   0  0  0  0  0  0  0  0  0  0  0  0
    9.5597    1.1169    2.2952 C   0  0  0  0  0  0  0  0  0  0  0  0
    9.5705    2.5061    2.2201 C   0  0  0  0  0  0  0  0  0  0  0  0
   10.5803    3.2398    2.7705 O   0  0  0  0  0  0  0  0  0  0  0  0
    8.5477    3.1909    1.5768 C   0  0  0  0  0  0  0  0  0  0  0  0
    7.4931    2.4800    1.0006 C   0  0  0  0  0  0  0  0  0  0  0  0
   -6.3847   -1.7437    1.2997 C   0  0  0  0  0  0  0  0  0  0  0  0
   -6.2453   -2.2321    0.1883 O   0  0  0  0  0  0  0  0  0  0  0  0
   -7.3995   -2.1485    2.0941 O   0  0  0  0  0  0  0  0  0  0  0  0
  -10.4292    0.6867    1.2463 H   0  0  0  0  0  0  0  0  0  0  0  0
   -9.2684    0.1643    2.4788 H   0  0  0  0  0  0  0  0  0  0  0  0
   -9.5284    1.9075    2.1673 H   0  0  0  0  0  0  0  0  0  0  0  0
   -7.0846    2.4341    1.8979 H   0  0  0  0  0  0  0  0  0  0  0  0
   -5.9787    1.7882    0.7080 H   0  0  0  0  0  0  0  0  0  0  0  0
   -7.0206    0.2490    3.1602 H   0  0  0  0  0  0  0  0  0  0  0  0
   -5.5073    1.1197    3.0770 H   0  0  0  0  0  0  0  0  0  0  0  0
   -5.0578   -1.2138    2.8473 H   0  0  0  0  0  0  0  0  0  0  0  0
   -4.5933    0.1369    0.2371 H   0  0  0  0  0  0  0  0  0  0  0  0
   -1.9501    0.3192    0.1154 H   0  0  0  0  0  0  0  0  0  0  0  0
   -3.0365   -2.0986   -1.4621 H   0  0  0  0  0  0  0  0  0  0  0  0
   -1.7376   -1.1223   -2.1032 H   0  0  0  0  0  0  0  0  0  0  0  0
   -2.1611    1.5376   -2.0896 H   0  0  0  0  0  0  0  0  0  0  0  0
   -3.7845    3.1732   -2.9771 H   0  0  0  0  0  0  0  0  0  0  0  0
   -6.1260    2.4884   -3.4307 H   0  0  0  0  0  0  0  0  0  0  0  0
   -6.8368    0.1484   -3.0137 H   0  0  0  0  0  0  0  0  0  0  0  0
   -5.2316   -1.5011   -2.1394 H   0  0  0  0  0  0  0  0  0  0  0  0
   -1.0748   -2.3328    0.8934 H   0  0  0  0  0  0  0  0  0  0  0  0
    1.1003   -3.0481    0.4215 H   0  0  0  0  0  0  0  0  0  0  0  0
    1.7402   -1.7027    1.4149 H   0  0  0  0  0  0  0  0  0  0  0  0
    3.0238   -0.9436   -0.4896 H   0  0  0  0  0  0  0  0  0  0  0  0
    3.2148   -1.7672   -3.5285 H   0  0  0  0  0  0  0  0  0  0  0  0
    4.3816   -2.9523   -2.8730 H   0  0  0  0  0  0  0  0  0  0  0  0
    4.3659   -0.0756   -2.5454 H   0  0  0  0  0  0  0  0  0  0  0  0
    7.5550   -0.1519   -1.3010 H   0  0  0  0  0  0  0  0  0  0  0  0
    5.1538    1.5352   -1.6397 H   0  0  0  0  0  0  0  0  0  0  0  0
    6.1816    1.0404   -2.8595 H   0  0  0  0  0  0  0  0  0  0  0  0
    6.2269   -0.6553    0.9748 H   0  0  0  0  0  0  0  0  0  0  0  0
    5.3747    0.8220    0.6431 H   0  0  0  0  0  0  0  0  0  0  0  0
    8.5028   -0.6817    1.7773 H   0  0  0  0  0  0  0  0  0  0  0  0
   10.3541    0.5723    2.7948 H   0  0  0  0  0  0  0  0  0  0  0  0
   11.2277    2.6266    3.1562 H   0  0  0  0  0  0  0  0  0  0  0  0
    8.5718    4.2757    1.5197 H   0  0  0  0  0  0  0  0  0  0  0  0
    6.7035    3.0267    0.4905 H   0  0  0  0  0  0  0  0  0  0  0  0
   -7.8665   -2.8152    1.5463 H   0  0  0  0  0  0  0  0  0  0  0  0
  1  2  1  0
  2  3  1  0
  3  4  1  0
  4  5  1  0
  5  6  1  0
  6  7  1  0
  7  8  2  0
  7  9  1  0
  9 10  1  0
 10 11  1  0
 11 12  2  0
 12 13  1  0
 13 14  2  0
 14 15  1  0
 15 16  2  0
  9 17  1  0
 17 18  1  0
 18 19  2  0
 18 20  1  0
 20 21  1  0
 21 22  1  0
 22 23  2  0
 22 24  1  0
 24 25  1  0
 25 26  1  0
 26 27  2  0
 26 28  1  0
 28 29  1  0
 28 30  1  0
 30 31  1  0
 31 32  2  0
 32 33  1  0
 33 34  2  0
 34 35  1  0
 34 36  1  0
 36 37  2  0
  5 38  1  0
 38 39  2  0
 38 40  1  0
 16 11  1  0
 37 31  1  0
  1 41  1  0
  1 42  1  0
  1 43  1  0
  3 44  1  0
  3 45  1  0
  4 46  1  0
  4 47  1  0
  5 48  1  1
  6 49  1  0
  9 50  1  6
 10 51  1  0
 10 52  1  0
 12 53  1  0
 13 54  1  0
 14 55  1  0
 15 56  1  0
 16 57  1  0
 17 58  1  0
 20 59  1  0
 20 60  1  0
 21 61  1  0
 24 62  1  0
 24 63  1  0
 25 64  1  0
 28 65  1  1
 29 66  1  0
 29 67  1  0
 30 68  1  0
 30 69  1  0
 32 70  1  0
 33 71  1  0
 35 72  1  0
 36 73  1  0
 37 74  1  0
 40 75  1  0
M  END
$$$$
