
     RDKit          3D

 29 30  0  0  0  0  0  0  0  0999 V2000
    4.2813   -0.0278    1.5801 C   0  0  0  0  0  0  0  0  0  0  0  0
    4.3839    0.5958    0.3063 O   0  0  0  0  0  0  0  0  0  0  0  0
    3.2291    0.7602   -0.4163 C   0  0  0  0  0  0  0  0  0  0  0  0
    1.9575    0.3548    0.0160 C   0  0  0  0  0  0  0  0  0  0  0  0
    0.8263    0.5596   -0.7830 C   0  0  0  0  0  0  0  0  0  0  0  0
   -0.4738    0.1781   -0.4091 N   0  0  0  0  0  0  0  0  0  0  0  0
   -0.8902   -0.4427    0.7541 C   0  0  0  0  0  0  0  0  0  0  0  0
   -0.1934   -0.7865    1.7013 O   0  0  0  0  0  0  0  0  0  0  0  0
   -2.3718   -0.6865    0.7799 C   0  0  0  0  0  0  0  0  0  0  0  0
   -2.9594   -1.3028    1.8776 C   0  0  0  0  0  0  0  0  0  0  0  0
   -4.3355   -1.5070    1.8547 C   0  0  0  0  0  0  0  0  0  0  0  0
   -5.0691   -1.0923    0.7468 C   0  0  0  0  0  0  0  0  0  0  0  0
   -4.3976   -0.4851   -0.3039 C   0  0  0  0  0  0  0  0  0  0  0  0
   -3.0642   -0.2688   -0.3208 N   0  0  0  0  0  0  0  0  0  0  0  0
    0.9721    1.1773   -2.0291 C   0  0  0  0  0  0  0  0  0  0  0  0
    2.2303    1.5857   -2.4726 C   0  0  0  0  0  0  0  0  0  0  0  0
    3.3530    1.3781   -1.6700 C   0  0  0  0  0  0  0  0  0  0  0  0
    4.8858    1.9056   -2.2731 Cl  0  0  0  0  0  0  0  0  0  0  0  0
    3.9113   -1.0542    1.4889 H   0  0  0  0  0  0  0  0  0  0  0  0
    5.2866   -0.0749    2.0098 H   0  0  0  0  0  0  0  0  0  0  0  0
    3.6576    0.5620    2.2597 H   0  0  0  0  0  0  0  0  0  0  0  0
    1.8446   -0.1235    0.9804 H   0  0  0  0  0  0  0  0  0  0  0  0
   -1.2328    0.3706   -1.0609 H   0  0  0  0  0  0  0  0  0  0  0  0
   -2.3617   -1.6155    2.7278 H   0  0  0  0  0  0  0  0  0  0  0  0
   -4.8316   -1.9859    2.6948 H   0  0  0  0  0  0  0  0  0  0  0  0
   -6.1433   -1.2395    0.7037 H   0  0  0  0  0  0  0  0  0  0  0  0
   -4.9356   -0.1475   -1.1860 H   0  0  0  0  0  0  0  0  0  0  0  0
    0.1107    1.3485   -2.6700 H   0  0  0  0  0  0  0  0  0  0  0  0
    2.3298    2.0644   -3.4431 H   0  0  0  0  0  0  0  0  0  0  0  0
  1  2  1  0
  2  3  1  0
  3  4  2  0
  4  5  1  0
  5  6  1  0
  6  7  1  0
  7  8  2  0
  7  9  1  0
  9 10  2  0
 10 11  1  0
 11 12  2  0
 12 13  1  0
 13 14  2  0
  5 15  2  0
 15 16  1  0
 16 17  2  0
 17 18  1  0
 17  3  1  0
 14  9  1  0
  1 19  1  0
  1 20  1  0
  1 21  1  0
  4 22  1  0
  6 23  1  0
 10 24  1  0
 11 25  1  0
 12 26  1  0
 13 27  1  0
 15 28  1  0
 16 29  1  0
M  END
$$$$
