
     RDKit          3D

 94 99  0  0  0  0  0  0  0  0999 V2000
    5.7864   -8.5452   -0.3605 C   0  0  0  0  0  0  0  0  0  0  0  0
    5.6302   -7.4311   -1.2339 O   0  0  0  0  0  0  0  0  0  0  0  0
    5.2013   -6.2748   -0.6658 C   0  0  0  0  0  0  0  0  0  0  0  0
    4.9927   -5.1981   -1.4993 C   0  0  0  0  0  0  0  0  0  0  0  0
    4.5554   -3.9897   -1.0874 N   0  0  0  0  0  0  0  0  0  0  0  0
    4.3140   -3.8533    0.2323 C   0  0  0  0  0  0  0  0  0  0  0  0
    3.8085   -2.5498    0.7138 C   0  0  0  0  0  0  0  0  0  0  0  0
    3.5980   -1.4759   -0.1688 C   0  0  0  0  0  0  0  0  0  0  0  0
    3.1061   -0.2426    0.2760 C   0  0  0  0  0  0  0  0  0  0  0  0
    2.7928   -0.0382    1.6255 C   0  0  0  0  0  0  0  0  0  0  0  0
    2.2826    1.2897    2.1455 C   0  0  0  0  0  0  0  0  0  0  0  0
    1.3059    1.9279    1.2558 N   0  0  0  0  0  0  0  0  0  0  0  0
    1.5408    2.9949    0.3959 C   0  0  0  0  0  0  0  0  0  0  0  0
    2.8847    3.6820    0.2861 C   0  0  0  0  0  0  0  0  0  0  0  0
    3.1694    4.8677    1.2553 C   0  0  0  0  0  0  0  0  0  0  0  0
    4.6546    4.8137    1.6772 C   0  0  0  0  0  0  0  0  0  0  0  0
    2.3141    4.8587    2.5371 C   0  0  0  0  0  0  0  0  0  0  0  0
    3.0251    6.1867    0.4994 C   0  0  0  0  0  0  0  0  0  0  0  0
    3.3543    6.4039   -0.6558 O   0  0  0  0  0  0  0  0  0  0  0  0
    2.5738    7.2093    1.2499 O   0  0  0  0  0  0  0  0  0  0  0  0
    0.3936    3.1378   -0.3759 C   0  0  0  0  0  0  0  0  0  0  0  0
    0.2108    4.2116   -1.7503 S   0  0  0  0  0  0  0  0  0  0  0  0
   -0.9901    5.5133   -1.2414 C   0  0  0  0  0  0  0  0  0  0  0  0
   -0.5633    6.2072    0.0525 C   0  0  0  0  0  0  0  0  0  0  0  0
   -2.4153    4.9713   -1.0962 C   0  0  0  0  0  0  0  0  0  0  0  0
   -0.9836    6.5509   -2.3817 C   0  0  0  0  0  0  0  0  0  0  0  0
   -0.5405    2.1312    0.0094 C   0  0  0  0  0  0  0  0  0  0  0  0
   -1.7938    1.6880   -0.4733 C   0  0  0  0  0  0  0  0  0  0  0  0
   -2.4909    0.6542    0.1651 C   0  0  0  0  0  0  0  0  0  0  0  0
   -3.6852    0.3382   -0.4247 O   0  0  0  0  0  0  0  0  0  0  0  0
   -4.4424   -0.7528    0.1044 C   0  0  0  0  0  0  0  0  0  0  0  0
   -3.9146   -2.1226   -0.3717 C   0  0  2  0  0  0  0  0  0  0  0  0
   -3.8611   -2.2007   -1.9089 C   0  0  0  0  0  0  0  0  0  0  0  0
   -4.9044   -3.2313   -2.2021 C   0  0  0  0  0  0  0  0  0  0  0  0
   -5.3225   -3.6280   -3.4669 C   0  0  0  0  0  0  0  0  0  0  0  0
   -6.2532   -4.6594   -3.5628 C   0  0  0  0  0  0  0  0  0  0  0  0
   -6.7415   -5.2736   -2.4024 C   0  0  0  0  0  0  0  0  0  0  0  0
   -6.3122   -4.8619   -1.1328 C   0  0  0  0  0  0  0  0  0  0  0  0
   -5.3912   -3.8304   -1.0351 C   0  0  0  0  0  0  0  0  0  0  0  0
   -4.7823   -3.2382    0.0905 N   0  0  0  0  0  0  0  0  0  0  0  0
   -4.8376   -3.5391    1.4360 C   0  0  0  0  0  0  0  0  0  0  0  0
   -5.7854   -4.5949    1.9320 C   0  0  0  0  0  0  0  0  0  0  0  0
   -4.1158   -2.9575    2.2512 O   0  0  0  0  0  0  0  0  0  0  0  0
   -1.9394    0.0470    1.2854 C   0  0  0  0  0  0  0  0  0  0  0  0
   -0.6751    0.4241    1.7568 C   0  0  0  0  0  0  0  0  0  0  0  0
    0.0159    1.4500    1.0906 C   0  0  0  0  0  0  0  0  0  0  0  0
    3.0182   -1.0915    2.5202 C   0  0  0  0  0  0  0  0  0  0  0  0
    3.5112   -2.3246    2.0701 C   0  0  0  0  0  0  0  0  0  0  0  0
    4.4941   -4.8377    1.1363 N   0  0  0  0  0  0  0  0  0  0  0  0
    4.9356   -6.0236    0.6613 C   0  0  0  0  0  0  0  0  0  0  0  0
    6.0978   -9.4029   -0.9638 H   0  0  0  0  0  0  0  0  0  0  0  0
    4.8383   -8.8051    0.1224 H   0  0  0  0  0  0  0  0  0  0  0  0
    6.5669   -8.3533    0.3833 H   0  0  0  0  0  0  0  0  0  0  0  0
    5.1703   -5.2800   -2.5676 H   0  0  0  0  0  0  0  0  0  0  0  0
    3.8125   -1.5939   -1.2303 H   0  0  0  0  0  0  0  0  0  0  0  0
    2.9556    0.5440   -0.4609 H   0  0  0  0  0  0  0  0  0  0  0  0
    3.1281    1.9619    2.3016 H   0  0  0  0  0  0  0  0  0  0  0  0
    1.7823    1.1755    3.1148 H   0  0  0  0  0  0  0  0  0  0  0  0
    3.6601    2.9165    0.4160 H   0  0  0  0  0  0  0  0  0  0  0  0
    3.0249    3.9939   -0.7556 H   0  0  0  0  0  0  0  0  0  0  0  0
    4.8723    3.9063    2.2514 H   0  0  0  0  0  0  0  0  0  0  0  0
    4.9210    5.6756    2.3013 H   0  0  0  0  0  0  0  0  0  0  0  0
    5.3196    4.8280    0.8045 H   0  0  0  0  0  0  0  0  0  0  0  0
    2.6001    5.6718    3.2153 H   0  0  0  0  0  0  0  0  0  0  0  0
    2.4351    3.9342    3.1070 H   0  0  0  0  0  0  0  0  0  0  0  0
    1.2508    4.9904    2.3182 H   0  0  0  0  0  0  0  0  0  0  0  0
    2.5793    7.9681    0.6288 H   0  0  0  0  0  0  0  0  0  0  0  0
   -0.5217    5.5161    0.8995 H   0  0  0  0  0  0  0  0  0  0  0  0
    0.4114    6.6873   -0.0584 H   0  0  0  0  0  0  0  0  0  0  0  0
   -1.2726    6.9987    0.3225 H   0  0  0  0  0  0  0  0  0  0  0  0
   -2.5229    4.3363   -0.2134 H   0  0  0  0  0  0  0  0  0  0  0  0
   -2.7337    4.4116   -1.9823 H   0  0  0  0  0  0  0  0  0  0  0  0
   -3.1292    5.7921   -0.9697 H   0  0  0  0  0  0  0  0  0  0  0  0
   -1.6397    7.3970   -2.1376 H   0  0  0  0  0  0  0  0  0  0  0  0
   -1.3519    6.1213   -3.3230 H   0  0  0  0  0  0  0  0  0  0  0  0
    0.0184    6.9630   -2.5618 H   0  0  0  0  0  0  0  0  0  0  0  0
   -2.2254    2.1458   -1.3571 H   0  0  0  0  0  0  0  0  0  0  0  0
   -5.4656   -0.6229   -0.2723 H   0  0  0  0  0  0  0  0  0  0  0  0
   -4.5371   -0.6784    1.1936 H   0  0  0  0  0  0  0  0  0  0  0  0
   -2.9067   -2.2889    0.0245 H   0  0  0  0  0  0  0  0  0  0  0  0
   -2.8809   -2.5615   -2.2395 H   0  0  0  0  0  0  0  0  0  0  0  0
   -4.0859   -1.2520   -2.4024 H   0  0  0  0  0  0  0  0  0  0  0  0
   -4.9215   -3.1574   -4.3607 H   0  0  0  0  0  0  0  0  0  0  0  0
   -6.5922   -4.9954   -4.5420 H   0  0  0  0  0  0  0  0  0  0  0  0
   -7.4610   -6.0860   -2.4913 H   0  0  0  0  0  0  0  0  0  0  0  0
   -6.7234   -5.3771   -0.2779 H   0  0  0  0  0  0  0  0  0  0  0  0
   -6.8092   -4.3548    1.6344 H   0  0  0  0  0  0  0  0  0  0  0  0
   -5.4733   -5.5790    1.5800 H   0  0  0  0  0  0  0  0  0  0  0  0
   -5.7639   -4.6140    3.0290 H   0  0  0  0  0  0  0  0  0  0  0  0
   -2.4472   -0.7524    1.8176 H   0  0  0  0  0  0  0  0  0  0  0  0
   -0.2415   -0.1034    2.6012 H   0  0  0  0  0  0  0  0  0  0  0  0
    2.8074   -0.9708    3.5804 H   0  0  0  0  0  0  0  0  0  0  0  0
    3.6640   -3.1223    2.7961 H   0  0  0  0  0  0  0  0  0  0  0  0
    5.0618   -6.7766    1.4316 H   0  0  0  0  0  0  0  0  0  0  0  0
  1  2  1  0
  2  3  1  0
  3  4  2  0
  4  5  1  0
  5  6  2  0
  6  7  1  0
  7  8  2  0
  8  9  1  0
  9 10  2  0
 10 11  1  0
 11 12  1  0
 12 13  1  0
 13 14  1  0
 14 15  1  0
 15 16  1  0
 15 17  1  0
 15 18  1  0
 18 19  2  0
 18 20  1  0
 13 21  2  0
 21 22  1  0
 22 23  1  0
 23 24  1  0
 23 25  1  0
 23 26  1  0
 21 27  1  0
 27 28  2  0
 28 29  1  0
 29 30  1  0
 30 31  1  0
 31 32  1  0
 32 33  1  0
 33 34  1  0
 34 35  2  0
 35 36  1  0
 36 37  2  0
 37 38  1  0
 38 39  2  0
 39 40  1  0
 40 41  1  0
 41 42  1  0
 41 43  2  0
 29 44  2  0
 44 45  1  0
 45 46  2  0
 10 47  1  0
 47 48  2  0
  6 49  1  0
 49 50  2  0
 50  3  1  0
 48  7  1  0
 46 12  1  0
 46 27  1  0
 40 32  1  0
 39 34  1  0
  1 51  1  0
  1 52  1  0
  1 53  1  0
  4 54  1  0
  8 55  1  0
  9 56  1  0
 11 57  1  0
 11 58  1  0
 14 59  1  0
 14 60  1  0
 16 61  1  0
 16 62  1  0
 16 63  1  0
 17 64  1  0
 17 65  1  0
 17 66  1  0
 20 67  1  0
 24 68  1  0
 24 69  1  0
 24 70  1  0
 25 71  1  0
 25 72  1  0
 25 73  1  0
 26 74  1  0
 26 75  1  0
 26 76  1  0
 28 77  1  0
 31 78  1  0
 31 79  1  0
 32 80  1  1
 33 81  1  0
 33 82  1  0
 35 83  1  0
 36 84  1  0
 37 85  1  0
 38 86  1  0
 42 87  1  0
 42 88  1  0
 42 89  1  0
 44 90  1  0
 45 91  1  0
 47 92  1  0
 48 93  1  0
 50 94  1  0
M  END
$$$$
