
     RDKit          3D

 61 62  0  0  0  0  0  0  0  0999 V2000
    5.2483    3.4120   -0.6760 C   0  0  0  0  0  0  0  0  0  0  0  0
    4.9162    2.4586    0.4710 C   0  0  0  0  0  0  0  0  0  0  0  0
    6.1029    2.3201    1.4194 C   0  0  0  0  0  0  0  0  0  0  0  0
    4.5361    1.1480   -0.0398 N   0  0  0  0  0  0  0  0  0  0  0  0
    3.2751    0.9237   -0.5310 C   0  0  0  0  0  0  0  0  0  0  0  0
    2.3575    1.7320   -0.4969 O   0  0  0  0  0  0  0  0  0  0  0  0
    3.1722   -0.3384   -1.0623 N   0  0  0  0  0  0  0  0  0  0  0  0
    1.8925   -0.8177   -1.5574 C   0  0  0  0  0  0  0  0  0  0  0  0
    0.9195   -1.1763   -0.4131 C   0  0  0  0  0  0  0  0  0  0  0  0
   -0.3607   -1.7754   -0.8514 N   0  0  0  0  0  0  0  0  0  0  0  0
   -1.0699   -2.5066    0.2219 C   0  0  0  0  0  0  0  0  0  0  0  0
   -1.2184   -1.7830    1.5695 C   0  0  0  0  0  0  0  0  0  0  0  0
   -1.9366   -2.6806    2.5706 C   0  0  0  0  0  0  0  0  0  0  0  0
   -1.2404   -3.9162    2.7322 O   0  0  0  0  0  0  0  0  0  0  0  0
   -1.1748   -4.6596    1.5169 C   0  0  0  0  0  0  0  0  0  0  0  0
   -0.4121   -3.8836    0.4508 C   0  0  0  0  0  0  0  0  0  0  0  0
   -1.1718   -0.8508   -1.6854 C   0  0  0  0  0  0  0  0  0  0  0  0
   -2.4757   -1.4275   -2.2598 C   0  0  0  0  0  0  0  0  0  0  0  0
   -3.5863   -0.8886   -1.3697 C   0  0  0  0  0  0  0  0  0  0  0  0
   -3.0614    0.3222   -0.7632 N   0  0  0  0  0  0  0  0  0  0  0  0
   -3.9288    1.3598   -0.4710 C   0  0  0  0  0  0  0  0  0  0  0  0
   -5.1345    1.2826   -0.7123 O   0  0  0  0  0  0  0  0  0  0  0  0
   -3.3646    2.5159    0.0467 N   0  0  0  0  0  0  0  0  0  0  0  0
   -2.4943    2.4584    1.2103 C   0  0  0  0  0  0  0  0  0  0  0  0
   -4.1404    3.7361   -0.0825 C   0  0  0  0  0  0  0  0  0  0  0  0
   -1.6463    0.4880   -1.0779 C   0  0  0  0  0  0  0  0  0  0  0  0
    5.5337    4.3979   -0.2946 H   0  0  0  0  0  0  0  0  0  0  0  0
    6.0759    3.0262   -1.2821 H   0  0  0  0  0  0  0  0  0  0  0  0
    4.3884    3.5447   -1.3411 H   0  0  0  0  0  0  0  0  0  0  0  0
    4.0650    2.8671    1.0302 H   0  0  0  0  0  0  0  0  0  0  0  0
    5.8571    1.6506    2.2519 H   0  0  0  0  0  0  0  0  0  0  0  0
    6.3850    3.2922    1.8382 H   0  0  0  0  0  0  0  0  0  0  0  0
    6.9762    1.9011    0.9057 H   0  0  0  0  0  0  0  0  0  0  0  0
    5.2616    0.6169   -0.5005 H   0  0  0  0  0  0  0  0  0  0  0  0
    3.7956   -1.0260   -0.6660 H   0  0  0  0  0  0  0  0  0  0  0  0
    2.0996   -1.7011   -2.1711 H   0  0  0  0  0  0  0  0  0  0  0  0
    1.4770   -0.0363   -2.2016 H   0  0  0  0  0  0  0  0  0  0  0  0
    0.7451   -0.2959    0.2149 H   0  0  0  0  0  0  0  0  0  0  0  0
    1.4594   -1.8847    0.2261 H   0  0  0  0  0  0  0  0  0  0  0  0
   -2.0762   -2.7539   -0.1259 H   0  0  0  0  0  0  0  0  0  0  0  0
   -1.7760   -0.8510    1.4589 H   0  0  0  0  0  0  0  0  0  0  0  0
   -0.2315   -1.5380    1.9789 H   0  0  0  0  0  0  0  0  0  0  0  0
   -2.9694   -2.8789    2.2614 H   0  0  0  0  0  0  0  0  0  0  0  0
   -1.9739   -2.1908    3.5486 H   0  0  0  0  0  0  0  0  0  0  0  0
   -0.6594   -5.6018    1.7296 H   0  0  0  0  0  0  0  0  0  0  0  0
   -2.1896   -4.9069    1.1831 H   0  0  0  0  0  0  0  0  0  0  0  0
   -0.3917   -4.4599   -0.4815 H   0  0  0  0  0  0  0  0  0  0  0  0
    0.6229   -3.7656    0.7903 H   0  0  0  0  0  0  0  0  0  0  0  0
   -0.5485   -0.6193   -2.5569 H   0  0  0  0  0  0  0  0  0  0  0  0
   -2.6153   -1.0335   -3.2752 H   0  0  0  0  0  0  0  0  0  0  0  0
   -2.4886   -2.5183   -2.3486 H   0  0  0  0  0  0  0  0  0  0  0  0
   -4.4952   -0.6972   -1.9491 H   0  0  0  0  0  0  0  0  0  0  0  0
   -3.8435   -1.5776   -0.5601 H   0  0  0  0  0  0  0  0  0  0  0  0
   -1.5841    3.0253    0.9944 H   0  0  0  0  0  0  0  0  0  0  0  0
   -2.2477    1.4336    1.4910 H   0  0  0  0  0  0  0  0  0  0  0  0
   -3.0076    2.9120    2.0658 H   0  0  0  0  0  0  0  0  0  0  0  0
   -4.9094    3.7617    0.6970 H   0  0  0  0  0  0  0  0  0  0  0  0
   -3.4763    4.5994    0.0167 H   0  0  0  0  0  0  0  0  0  0  0  0
   -4.6263    3.7732   -1.0631 H   0  0  0  0  0  0  0  0  0  0  0  0
   -1.5606    1.2894   -1.8219 H   0  0  0  0  0  0  0  0  0  0  0  0
   -1.0747    0.7925   -0.2027 H   0  0  0  0  0  0  0  0  0  0  0  0
  1  2  1  0
  2  3  1  0
  2  4  1  0
  4  5  1  0
  5  6  2  0
  5  7  1  0
  7  8  1  0
  8  9  1  0
  9 10  1  0
 10 11  1  0
 11 12  1  0
 12 13  1  0
 13 14  1  0
 14 15  1  0
 15 16  1  0
 10 17  1  0
 17 18  1  0
 18 19  1  0
 19 20  1  0
 20 21  1  0
 21 22  2  0
 21 23  1  0
 23 24  1  0
 23 25  1  0
 20 26  1  0
 16 11  1  0
 26 17  1  0
  1 27  1  0
  1 28  1  0
  1 29  1  0
  2 30  1  0
  3 31  1  0
  3 32  1  0
  3 33  1  0
  4 34  1  0
  7 35  1  0
  8 36  1  0
  8 37  1  0
  9 38  1  0
  9 39  1  0
 11 40  1  0
 12 41  1  0
 12 42  1  0
 13 43  1  0
 13 44  1  0
 15 45  1  0
 15 46  1  0
 16 47  1  0
 16 48  1  0
 17 49  1  0
 18 50  1  0
 18 51  1  0
 19 52  1  0
 19 53  1  0
 24 54  1  0
 24 55  1  0
 24 56  1  0
 25 57  1  0
 25 58  1  0
 25 59  1  0
 26 60  1  0
 26 61  1  0
M  END
$$$$
