
     RDKit          3D

 48 51  0  0  0  0  0  0  0  0999 V2000
   -4.6263    3.3945    1.8996 C   0  0  0  0  0  0  0  0  0  0  0  0
   -4.0934    2.4019    0.9090 C   0  0  0  0  0  0  0  0  0  0  0  0
   -4.7507    2.2040   -0.3142 C   0  0  0  0  0  0  0  0  0  0  0  0
   -4.2510    1.3049   -1.2697 C   0  0  0  0  0  0  0  0  0  0  0  0
   -4.9515    1.1313   -2.5849 C   0  0  0  0  0  0  0  0  0  0  0  0
   -3.0627    0.6179   -1.0038 C   0  0  0  0  0  0  0  0  0  0  0  0
   -2.4200    0.8068    0.2177 C   0  0  0  0  0  0  0  0  0  0  0  0
   -1.1998    0.1768    0.4989 O   0  0  0  0  0  0  0  0  0  0  0  0
   -1.2228   -1.1884    0.6335 C   0  0  0  0  0  0  0  0  0  0  0  0
   -2.2481   -1.9789    0.4783 N   0  0  0  0  0  0  0  0  0  0  0  0
   -2.0228   -3.3280    0.6790 C   0  0  0  0  0  0  0  0  0  0  0  0
   -0.8401   -3.8619    1.0330 C   0  0  0  0  0  0  0  0  0  0  0  0
    0.2238   -3.0283    1.1938 N   0  0  0  0  0  0  0  0  0  0  0  0
    1.5309   -3.2847    1.5213 C   0  0  0  0  0  0  0  0  0  0  0  0
    2.0497   -4.3653    1.7486 O   0  0  0  0  0  0  0  0  0  0  0  0
    2.1494   -2.0195    1.5311 N   0  0  0  0  0  0  0  0  0  0  0  0
    3.5523   -1.7672    1.7848 C   0  0  0  0  0  0  0  0  0  0  0  0
    4.3733   -1.6135    0.5052 C   0  0  0  0  0  0  0  0  0  0  0  0
    5.6017   -1.6521    0.5208 O   0  0  0  0  0  0  0  0  0  0  0  0
    3.6445   -1.3246   -0.6262 N   0  0  0  0  0  0  0  0  0  0  0  0
    4.2724   -0.9321   -1.8658 C   0  0  0  0  0  0  0  0  0  0  0  0
    4.2899    0.5495   -1.9313 C   0  0  0  0  0  0  0  0  0  0  0  0
    5.0979    1.5134   -1.3613 C   0  0  0  0  0  0  0  0  0  0  0  0
    4.5859    2.7637   -1.7837 C   0  0  0  0  0  0  0  0  0  0  0  0
    3.5073    2.4834   -2.5901 C   0  0  0  0  0  0  0  0  0  0  0  0
    3.3139    1.1419   -2.6799 O   0  0  0  0  0  0  0  0  0  0  0  0
    1.2463   -1.0234    1.1804 N   0  0  0  0  0  0  0  0  0  0  0  0
    0.1399   -1.6902    1.0108 C   0  0  0  0  0  0  0  0  0  0  0  0
   -2.9100    1.7039    1.1650 C   0  0  0  0  0  0  0  0  0  0  0  0
   -5.7135    3.3024    1.9904 H   0  0  0  0  0  0  0  0  0  0  0  0
   -4.1992    3.2282    2.8947 H   0  0  0  0  0  0  0  0  0  0  0  0
   -4.3784    4.4119    1.5817 H   0  0  0  0  0  0  0  0  0  0  0  0
   -5.6622    2.7616   -0.5286 H   0  0  0  0  0  0  0  0  0  0  0  0
   -4.6026    1.8832   -3.2995 H   0  0  0  0  0  0  0  0  0  0  0  0
   -4.7652    0.1351   -2.9997 H   0  0  0  0  0  0  0  0  0  0  0  0
   -6.0351    1.2340   -2.4646 H   0  0  0  0  0  0  0  0  0  0  0  0
   -2.6455   -0.0620   -1.7414 H   0  0  0  0  0  0  0  0  0  0  0  0
   -2.8881   -3.9737    0.5331 H   0  0  0  0  0  0  0  0  0  0  0  0
   -0.6802   -4.9232    1.1886 H   0  0  0  0  0  0  0  0  0  0  0  0
    3.6367   -0.8456    2.3695 H   0  0  0  0  0  0  0  0  0  0  0  0
    3.9627   -2.6062    2.3553 H   0  0  0  0  0  0  0  0  0  0  0  0
    2.6899   -1.0156   -0.4656 H   0  0  0  0  0  0  0  0  0  0  0  0
    3.6760   -1.3525   -2.6833 H   0  0  0  0  0  0  0  0  0  0  0  0
    5.2874   -1.3381   -1.9340 H   0  0  0  0  0  0  0  0  0  0  0  0
    5.9429    1.3264   -0.7118 H   0  0  0  0  0  0  0  0  0  0  0  0
    4.9574    3.7470   -1.5325 H   0  0  0  0  0  0  0  0  0  0  0  0
    2.8042    3.0938   -3.1380 H   0  0  0  0  0  0  0  0  0  0  0  0
   -2.3673    1.8572    2.0933 H   0  0  0  0  0  0  0  0  0  0  0  0
  1  2  1  0
  2  3  2  0
  3  4  1  0
  4  5  1  0
  4  6  2  0
  6  7  1  0
  7  8  1  0
  8  9  1  0
  9 10  2  0
 10 11  1  0
 11 12  2  0
 12 13  1  0
 13 14  1  0
 14 15  2  0
 14 16  1  0
 16 17  1  0
 17 18  1  0
 18 19  2  0
 18 20  1  0
 20 21  1  0
 21 22  1  0
 22 23  2  0
 23 24  1  0
 24 25  2  0
 25 26  1  0
 16 27  1  0
 27 28  2  0
  7 29  2  0
 29  2  1  0
 28  9  1  0
 28 13  1  0
 26 22  1  0
  1 30  1  0
  1 31  1  0
  1 32  1  0
  3 33  1  0
  5 34  1  0
  5 35  1  0
  5 36  1  0
  6 37  1  0
 11 38  1  0
 12 39  1  0
 17 40  1  0
 17 41  1  0
 20 42  1  0
 21 43  1  0
 21 44  1  0
 23 45  1  0
 24 46  1  0
 25 47  1  0
 29 48  1  0
M  END
$$$$
