
     RDKit          3D

 49 52  0  0  0  0  0  0  0  0999 V2000
   -5.2476   -0.8212   -1.9770 C   0  0  0  0  0  0  0  0  0  0  0  0
   -4.1796   -0.9681   -0.8839 C   0  0  0  0  0  0  0  0  0  0  0  0
   -4.8510   -0.7438    0.4812 C   0  0  0  0  0  0  0  0  0  0  0  0
   -3.0427    0.0579   -1.1484 C   0  0  0  0  0  0  0  0  0  0  0  0
   -1.7841   -0.3417   -0.4401 C   0  0  0  0  0  0  0  0  0  0  0  0
   -1.6356   -1.6301    0.0329 C   0  0  0  0  0  0  0  0  0  0  0  0
   -0.1336   -1.8689    0.7922 S   0  0  0  0  0  0  0  0  0  0  0  0
    0.3449   -0.2743    0.4682 C   0  0  0  0  0  0  0  0  0  0  0  0
   -0.6151    0.4473   -0.1918 C   0  0  0  0  0  0  0  0  0  0  0  0
   -0.3508    1.8247   -0.5344 C   0  0  0  0  0  0  0  0  0  0  0  0
   -1.2047    2.5374   -1.0552 O   0  0  0  0  0  0  0  0  0  0  0  0
    0.9283    2.2674   -0.1997 N   0  0  0  0  0  0  0  0  0  0  0  0
    1.2572    3.6466   -0.5463 C   0  0  0  0  0  0  0  0  0  0  0  0
    0.8620    4.6324    0.5538 C   0  0  0  0  0  0  0  0  0  0  0  0
    1.1902    5.9586    0.1538 O   0  0  0  0  0  0  0  0  0  0  0  0
    1.8689    1.5525    0.5512 C   0  0  0  0  0  0  0  0  0  0  0  0
    2.9126    2.0930    0.9301 O   0  0  0  0  0  0  0  0  0  0  0  0
    1.5792    0.2203    0.8660 N   0  0  0  0  0  0  0  0  0  0  0  0
    2.6070   -0.5507    1.5764 C   0  0  0  0  0  0  0  0  0  0  0  0
    3.4654   -1.3913    0.6545 C   0  0  0  0  0  0  0  0  0  0  0  0
    3.4072   -2.7921    0.7018 C   0  0  0  0  0  0  0  0  0  0  0  0
    4.1989   -3.5663   -0.1488 C   0  0  0  0  0  0  0  0  0  0  0  0
    5.0626   -2.9507   -1.0517 C   0  0  0  0  0  0  0  0  0  0  0  0
    5.1386   -1.5609   -1.1027 C   0  0  0  0  0  0  0  0  0  0  0  0
    4.3470   -0.7854   -0.2536 C   0  0  0  0  0  0  0  0  0  0  0  0
   -2.6686   -2.7036   -0.0549 C   0  0  0  0  0  0  0  0  0  0  0  0
   -3.6804   -2.3196   -1.0037 O   0  0  0  0  0  0  0  0  0  0  0  0
   -4.8258   -1.0319   -2.9666 H   0  0  0  0  0  0  0  0  0  0  0  0
   -5.6776    0.1857   -1.9902 H   0  0  0  0  0  0  0  0  0  0  0  0
   -6.0585   -1.5438   -1.8288 H   0  0  0  0  0  0  0  0  0  0  0  0
   -5.5901   -1.5277    0.6814 H   0  0  0  0  0  0  0  0  0  0  0  0
   -4.1323   -0.7748    1.3062 H   0  0  0  0  0  0  0  0  0  0  0  0
   -5.3554    0.2277    0.5213 H   0  0  0  0  0  0  0  0  0  0  0  0
   -2.8094    0.0862   -2.2210 H   0  0  0  0  0  0  0  0  0  0  0  0
   -3.3634    1.0625   -0.8515 H   0  0  0  0  0  0  0  0  0  0  0  0
    2.3317    3.7350   -0.7494 H   0  0  0  0  0  0  0  0  0  0  0  0
    0.7584    3.9254   -1.4829 H   0  0  0  0  0  0  0  0  0  0  0  0
    1.3909    4.4102    1.4862 H   0  0  0  0  0  0  0  0  0  0  0  0
   -0.2142    4.5863    0.7499 H   0  0  0  0  0  0  0  0  0  0  0  0
    0.9334    6.5482    0.8839 H   0  0  0  0  0  0  0  0  0  0  0  0
    2.1267   -1.1693    2.3440 H   0  0  0  0  0  0  0  0  0  0  0  0
    3.2689    0.1220    2.1360 H   0  0  0  0  0  0  0  0  0  0  0  0
    2.7429   -3.2944    1.4013 H   0  0  0  0  0  0  0  0  0  0  0  0
    4.1415   -4.6509   -0.1063 H   0  0  0  0  0  0  0  0  0  0  0  0
    5.6788   -3.5536   -1.7134 H   0  0  0  0  0  0  0  0  0  0  0  0
    5.8163   -1.0784   -1.8022 H   0  0  0  0  0  0  0  0  0  0  0  0
    4.4301    0.2986   -0.3020 H   0  0  0  0  0  0  0  0  0  0  0  0
   -3.1367   -2.8897    0.9172 H   0  0  0  0  0  0  0  0  0  0  0  0
   -2.2326   -3.6431   -0.4092 H   0  0  0  0  0  0  0  0  0  0  0  0
  1  2  1  0
  2  3  1  0
  2  4  1  0
  4  5  1  0
  5  6  2  0
  6  7  1  0
  7  8  1  0
  8  9  2  0
  9 10  1  0
 10 11  2  0
 10 12  1  0
 12 13  1  0
 13 14  1  0
 14 15  1  0
 12 16  1  0
 16 17  2  0
 16 18  1  0
 18 19  1  0
 19 20  1  0
 20 21  2  0
 21 22  1  0
 22 23  2  0
 23 24  1  0
 24 25  2  0
  6 26  1  0
 26 27  1  0
 27  2  1  0
  9  5  1  0
 25 20  1  0
 18  8  1  0
  1 28  1  0
  1 29  1  0
  1 30  1  0
  3 31  1  0
  3 32  1  0
  3 33  1  0
  4 34  1  0
  4 35  1  0
 13 36  1  0
 13 37  1  0
 14 38  1  0
 14 39  1  0
 15 40  1  0
 19 41  1  0
 19 42  1  0
 21 43  1  0
 22 44  1  0
 23 45  1  0
 24 46  1  0
 25 47  1  0
 26 48  1  0
 26 49  1  0
M  END
$$$$
