
     RDKit          3D

 28 30  0  0  0  0  0  0  0  0999 V2000
   -0.6747   -1.8483    1.4379 C   0  0  0  0  0  0  0  0  0  0  0  0
   -0.5076   -0.7059    0.5352 N   0  0  0  0  0  0  0  0  0  0  0  0
   -1.6749   -0.0048    0.1416 C   0  0  0  0  0  0  0  0  0  0  0  0
   -2.9531   -0.5997    0.1997 C   0  0  0  0  0  0  0  0  0  0  0  0
   -4.1083    0.0825   -0.1971 C   0  0  0  0  0  0  0  0  0  0  0  0
   -4.0169    1.3823   -0.6727 C   0  0  0  0  0  0  0  0  0  0  0  0
   -2.7690    1.9923   -0.7578 C   0  0  0  0  0  0  0  0  0  0  0  0
   -1.6042    1.3092   -0.3648 C   0  0  0  0  0  0  0  0  0  0  0  0
   -0.0706    2.2073   -0.5039 S   0  0  0  0  0  0  0  0  0  0  0  0
    1.1303    0.8952   -0.3724 C   0  0  0  0  0  0  0  0  0  0  0  0
    2.4447    1.2038   -0.7734 C   0  0  0  0  0  0  0  0  0  0  0  0
    3.4748    0.2719   -0.6655 C   0  0  0  0  0  0  0  0  0  0  0  0
    4.7457    0.5542   -1.1764 N   0  0  0  0  0  0  0  0  0  0  0  0
    3.1521   -1.0150   -0.2522 C   0  0  0  0  0  0  0  0  0  0  0  0
    1.8486   -1.3309    0.1526 C   0  0  0  0  0  0  0  0  0  0  0  0
    0.8095   -0.3809    0.1280 C   0  0  0  0  0  0  0  0  0  0  0  0
    0.1900   -1.9829    2.0989 H   0  0  0  0  0  0  0  0  0  0  0  0
   -0.8300   -2.7711    0.8682 H   0  0  0  0  0  0  0  0  0  0  0  0
   -1.5177   -1.7102    2.1256 H   0  0  0  0  0  0  0  0  0  0  0  0
   -3.0766   -1.6265    0.5317 H   0  0  0  0  0  0  0  0  0  0  0  0
   -5.0757   -0.4100   -0.1400 H   0  0  0  0  0  0  0  0  0  0  0  0
   -4.9094    1.9186   -0.9830 H   0  0  0  0  0  0  0  0  0  0  0  0
   -2.7058    3.0104   -1.1362 H   0  0  0  0  0  0  0  0  0  0  0  0
    2.6624    2.1913   -1.1736 H   0  0  0  0  0  0  0  0  0  0  0  0
    4.9824    1.5418   -1.1675 H   0  0  0  0  0  0  0  0  0  0  0  0
    5.4850   -0.0223   -0.7875 H   0  0  0  0  0  0  0  0  0  0  0  0
    3.9094   -1.7945   -0.2451 H   0  0  0  0  0  0  0  0  0  0  0  0
    1.6599   -2.3579    0.4515 H   0  0  0  0  0  0  0  0  0  0  0  0
  1  2  1  0
  2  3  1  0
  3  4  2  0
  4  5  1  0
  5  6  2  0
  6  7  1  0
  7  8  2  0
  8  9  1  0
  9 10  1  0
 10 11  2  0
 11 12  1  0
 12 13  1  0
 12 14  2  0
 14 15  1  0
 15 16  2  0
 16  2  1  0
  8  3  1  0
 16 10  1  0
  1 17  1  0
  1 18  1  0
  1 19  1  0
  4 20  1  0
  5 21  1  0
  6 22  1  0
  7 23  1  0
 11 24  1  0
 13 25  1  0
 13 26  1  0
 14 27  1  0
 15 28  1  0
M  END
$$$$
