
     RDKit          3D

 52 55  0  0  0  0  0  0  0  0999 V2000
    4.7060    2.7976    1.0221 O   0  0  0  0  0  0  0  0  0  0  0  0
    4.6698    1.7277    0.4175 C   0  0  0  0  0  0  0  0  0  0  0  0
    3.5048    1.3694   -0.1982 N   0  0  0  0  0  0  0  0  0  0  0  0
    3.1367    0.0015   -0.5234 C   0  0  1  0  0  0  0  0  0  0  0  0
    1.6327   -0.1283   -0.8036 C   0  0  0  0  0  0  0  0  0  0  0  0
    0.8116   -0.1573    0.4706 C   0  0  0  0  0  0  0  0  0  0  0  0
    1.3503   -0.1356    1.5770 O   0  0  0  0  0  0  0  0  0  0  0  0
   -0.5719   -0.1902    0.3260 N   0  0  0  0  0  0  0  0  0  0  0  0
   -1.2504   -0.5805   -0.9216 C   0  0  0  0  0  0  0  0  0  0  0  0
   -2.6850   -0.0303   -1.0212 C   0  0  0  0  0  0  0  0  0  0  0  0
   -3.4537   -0.3698    0.1960 N   0  0  0  0  0  0  0  0  0  0  0  0
   -4.8085    0.0089    0.1016 C   0  0  0  0  0  0  0  0  0  0  0  0
   -5.7195   -0.4570    1.0511 C   0  0  0  0  0  0  0  0  0  0  0  0
   -7.0660   -0.1020    0.9615 C   0  0  0  0  0  0  0  0  0  0  0  0
   -7.4925    0.7170   -0.0815 C   0  0  0  0  0  0  0  0  0  0  0  0
   -8.9211    1.1211   -0.2602 C   0  0  0  0  0  0  0  0  0  0  0  0
   -9.0593    2.3923   -0.7291 F   0  0  0  0  0  0  0  0  0  0  0  0
   -9.5801    0.3236   -1.1443 F   0  0  0  0  0  0  0  0  0  0  0  0
   -9.6411    1.0726    0.8952 F   0  0  0  0  0  0  0  0  0  0  0  0
   -6.5348    1.1198   -0.9958 C   0  0  0  0  0  0  0  0  0  0  0  0
   -5.2244    0.7835   -0.9240 N   0  0  0  0  0  0  0  0  0  0  0  0
   -2.8081    0.1597    1.4183 C   0  0  0  0  0  0  0  0  0  0  0  0
   -1.3720   -0.3798    1.5429 C   0  0  0  0  0  0  0  0  0  0  0  0
    3.9277   -0.4366   -1.7576 C   0  0  0  0  0  0  0  0  0  0  0  0
    3.3884   -0.8900   -2.7709 O   0  0  0  0  0  0  0  0  0  0  0  0
    5.2915   -0.4563   -1.6990 N   0  0  0  0  0  0  0  0  0  0  0  0
    6.1520   -0.0701   -0.6585 C   0  0  0  0  0  0  0  0  0  0  0  0
    7.4220   -0.6772   -0.6895 C   0  0  0  0  0  0  0  0  0  0  0  0
    8.3778   -0.4163    0.2937 C   0  0  0  0  0  0  0  0  0  0  0  0
    8.0874    0.4738    1.3172 C   0  0  0  0  0  0  0  0  0  0  0  0
    6.8489    1.1135    1.3401 C   0  0  0  0  0  0  0  0  0  0  0  0
    5.8717    0.8576    0.3556 C   0  0  0  0  0  0  0  0  0  0  0  0
    2.7609    1.9929    0.0960 H   0  0  0  0  0  0  0  0  0  0  0  0
    3.4328   -0.6534    0.3059 H   0  0  0  0  0  0  0  0  0  0  0  0
    1.2945    0.7037   -1.4324 H   0  0  0  0  0  0  0  0  0  0  0  0
    1.4308   -1.0725   -1.3235 H   0  0  0  0  0  0  0  0  0  0  0  0
   -1.2655   -1.6772   -0.9401 H   0  0  0  0  0  0  0  0  0  0  0  0
   -0.6830   -0.2456   -1.7933 H   0  0  0  0  0  0  0  0  0  0  0  0
   -3.1552   -0.4672   -1.9113 H   0  0  0  0  0  0  0  0  0  0  0  0
   -2.6357    1.0594   -1.1519 H   0  0  0  0  0  0  0  0  0  0  0  0
   -5.3917   -1.1180    1.8469 H   0  0  0  0  0  0  0  0  0  0  0  0
   -7.7714   -0.4741    1.7014 H   0  0  0  0  0  0  0  0  0  0  0  0
   -6.7921    1.7468   -1.8472 H   0  0  0  0  0  0  0  0  0  0  0  0
   -2.7814    1.2571    1.3781 H   0  0  0  0  0  0  0  0  0  0  0  0
   -3.3546   -0.1294    2.3231 H   0  0  0  0  0  0  0  0  0  0  0  0
   -0.8814    0.0994    2.3972 H   0  0  0  0  0  0  0  0  0  0  0  0
   -1.3947   -1.4590    1.7400 H   0  0  0  0  0  0  0  0  0  0  0  0
    5.6952   -0.9416   -2.4920 H   0  0  0  0  0  0  0  0  0  0  0  0
    7.6777   -1.3867   -1.4744 H   0  0  0  0  0  0  0  0  0  0  0  0
    9.3467   -0.9086    0.2574 H   0  0  0  0  0  0  0  0  0  0  0  0
    8.8261    0.6901    2.0851 H   0  0  0  0  0  0  0  0  0  0  0  0
    6.6510    1.8412    2.1272 H   0  0  0  0  0  0  0  0  0  0  0  0
  1  2  2  0
  2  3  1  0
  3  4  1  0
  4  5  1  0
  5  6  1  0
  6  7  2  0
  6  8  1  0
  8  9  1  0
  9 10  1  0
 10 11  1  0
 11 12  1  0
 12 13  2  0
 13 14  1  0
 14 15  2  0
 15 16  1  0
 16 17  1  0
 16 18  1  0
 16 19  1  0
 15 20  1  0
 20 21  2  0
 11 22  1  0
 22 23  1  0
  4 24  1  0
 24 25  2  0
 24 26  1  0
 26 27  1  0
 27 28  2  0
 28 29  1  0
 29 30  2  0
 30 31  1  0
 31 32  2  0
 32  2  1  0
 23  8  1  0
 32 27  1  0
 21 12  1  0
  3 33  1  0
  4 34  1  1
  5 35  1  0
  5 36  1  0
  9 37  1  0
  9 38  1  0
 10 39  1  0
 10 40  1  0
 13 41  1  0
 14 42  1  0
 20 43  1  0
 22 44  1  0
 22 45  1  0
 23 46  1  0
 23 47  1  0
 26 48  1  0
 28 49  1  0
 29 50  1  0
 30 51  1  0
 31 52  1  0
M  END
$$$$
