
     RDKit          3D

 61 61  0  0  0  0  0  0  0  0999 V2000
   -6.0861   -3.6237   -0.8269 C   0  0  0  0  0  0  0  0  0  0  0  0
   -5.5717   -2.5536   -0.0463 O   0  0  0  0  0  0  0  0  0  0  0  0
   -4.2684   -2.1361   -0.1085 C   0  0  0  0  0  0  0  0  0  0  0  0
   -3.5123   -2.7730   -0.9314 O   0  0  0  0  0  0  0  0  0  0  0  0
   -3.7201   -1.0344    0.6953 C   0  0  2  0  0  0  0  0  0  0  0  0
   -4.5272    0.1994    0.4365 C   0  0  0  0  0  0  0  0  0  0  0  0
   -4.4812    0.6066   -1.0179 C   0  0  0  0  0  0  0  0  0  0  0  0
   -5.4516    2.1230   -1.2946 S   0  0  0  0  0  0  0  0  0  0  0  0
   -4.7257    3.5122   -0.3817 C   0  0  0  0  0  0  0  0  0  0  0  0
   -2.3160   -0.8983    0.3978 N   0  0  0  0  0  0  0  0  0  0  0  0
   -1.2937   -0.6719    1.3084 C   0  0  0  0  0  0  0  0  0  0  0  0
   -1.7264   -0.5889    2.5312 O   0  0  0  0  0  0  0  0  0  0  0  0
    0.1266   -0.5366    1.0743 C   0  0  0  0  0  0  0  0  0  0  0  0
    0.9571   -1.3836    1.8954 C   0  0  0  0  0  0  0  0  0  0  0  0
    2.3093   -1.3917    1.7268 C   0  0  0  0  0  0  0  0  0  0  0  0
    2.8979   -0.6081    0.7875 C   0  0  0  0  0  0  0  0  0  0  0  0
    4.3156   -0.6136    0.5985 N   0  0  0  0  0  0  0  0  0  0  0  0
    5.2360   -1.2969    1.4687 C   0  0  0  0  0  0  0  0  0  0  0  0
    6.6516   -1.1239    0.9355 C   0  0  1  0  0  0  0  0  0  0  0  0
    6.7500   -1.6825   -0.4056 N   0  0  0  0  0  0  0  0  0  0  0  0
    7.0080    0.3252    0.9681 C   0  0  0  0  0  0  0  0  0  0  0  0
    8.6656    0.6509    0.3279 S   0  0  0  0  0  0  0  0  0  0  0  0
    2.0992    0.1932    0.0145 C   0  0  0  0  0  0  0  0  0  0  0  0
    0.6949    0.2420    0.1480 C   0  0  0  0  0  0  0  0  0  0  0  0
    0.0140    1.1944   -0.7110 C   0  0  0  0  0  0  0  0  0  0  0  0
    0.0981    2.5535   -0.3458 C   0  0  0  0  0  0  0  0  0  0  0  0
   -0.4409    3.5370   -1.1213 C   0  0  0  0  0  0  0  0  0  0  0  0
   -1.0857    3.2435   -2.2889 C   0  0  0  0  0  0  0  0  0  0  0  0
   -1.1703    1.9223   -2.6485 C   0  0  0  0  0  0  0  0  0  0  0  0
   -0.6346    0.9142   -1.8813 C   0  0  0  0  0  0  0  0  0  0  0  0
    0.6912    0.0000    0.0000 Cl  0  0  0  0  0  0  0  0  0  0  0  0
   -5.7698   -4.6192   -0.4643 H   0  0  0  0  0  0  0  0  0  0  0  0
   -5.8694   -3.5112   -1.8921 H   0  0  0  0  0  0  0  0  0  0  0  0
   -7.2021   -3.5398   -0.7273 H   0  0  0  0  0  0  0  0  0  0  0  0
   -3.8363   -1.2592    1.7665 H   0  0  0  0  0  0  0  0  0  0  0  0
   -4.3637    1.0324    1.1257 H   0  0  0  0  0  0  0  0  0  0  0  0
   -5.6030   -0.1024    0.5995 H   0  0  0  0  0  0  0  0  0  0  0  0
   -3.4473    0.7693   -1.3628 H   0  0  0  0  0  0  0  0  0  0  0  0
   -4.9114   -0.1664   -1.6831 H   0  0  0  0  0  0  0  0  0  0  0  0
   -5.4079    3.7908    0.4526 H   0  0  0  0  0  0  0  0  0  0  0  0
   -3.7337    3.2918    0.0515 H   0  0  0  0  0  0  0  0  0  0  0  0
   -4.6470    4.3714   -1.0642 H   0  0  0  0  0  0  0  0  0  0  0  0
   -2.0879   -1.0243   -0.6105 H   0  0  0  0  0  0  0  0  0  0  0  0
    0.4673   -2.0002    2.6436 H   0  0  0  0  0  0  0  0  0  0  0  0
    2.8803   -2.0582    2.3921 H   0  0  0  0  0  0  0  0  0  0  0  0
    4.7234   -0.0890   -0.2293 H   0  0  0  0  0  0  0  0  0  0  0  0
    5.2231   -0.8266    2.4809 H   0  0  0  0  0  0  0  0  0  0  0  0
    4.9783   -2.3806    1.5676 H   0  0  0  0  0  0  0  0  0  0  0  0
    7.3231   -1.7041    1.5901 H   0  0  0  0  0  0  0  0  0  0  0  0
    6.5420   -0.9752   -1.1481 H   0  0  0  0  0  0  0  0  0  0  0  0
    6.0625   -2.4585   -0.4517 H   0  0  0  0  0  0  0  0  0  0  0  0
    6.2784    0.9497    0.4415 H   0  0  0  0  0  0  0  0  0  0  0  0
    7.0152    0.6548    2.0336 H   0  0  0  0  0  0  0  0  0  0  0  0
    9.6194   -0.2622    0.7550 H   0  0  0  0  0  0  0  0  0  0  0  0
    2.5653    0.8114   -0.7223 H   0  0  0  0  0  0  0  0  0  0  0  0
    0.6188    2.8143    0.5879 H   0  0  0  0  0  0  0  0  0  0  0  0
   -0.3352    4.5665   -0.7618 H   0  0  0  0  0  0  0  0  0  0  0  0
   -1.4949    4.0630   -2.8725 H   0  0  0  0  0  0  0  0  0  0  0  0
   -1.6833    1.6809   -3.5816 H   0  0  0  0  0  0  0  0  0  0  0  0
   -0.7164   -0.1197   -2.2210 H   0  0  0  0  0  0  0  0  0  0  0  0
   -0.6912    0.0000    0.0000 H   0  0  0  0  0  0  0  0  0  0  0  0
  1  2  1  0
  2  3  1  0
  3  4  2  0
  3  5  1  0
  5  6  1  0
  6  7  1  0
  7  8  1  0
  8  9  1  0
  5 10  1  0
 10 11  1  0
 11 12  2  0
 11 13  1  0
 13 14  2  0
 14 15  1  0
 15 16  2  0
 16 17  1  0
 17 18  1  0
 18 19  1  0
 19 20  1  0
 19 21  1  0
 21 22  1  0
 16 23  1  0
 23 24  2  0
 24 25  1  0
 25 26  2  0
 26 27  1  0
 27 28  2  0
 28 29  1  0
 29 30  2  0
 24 13  1  0
 30 25  1  0
  1 32  1  0
  1 33  1  0
  1 34  1  0
  5 35  1  1
  6 36  1  0
  6 37  1  0
  7 38  1  0
  7 39  1  0
  9 40  1  0
  9 41  1  0
  9 42  1  0
 10 43  1  0
 14 44  1  0
 15 45  1  0
 17 46  1  0
 18 47  1  0
 18 48  1  0
 19 49  1  1
 20 50  1  0
 20 51  1  0
 21 52  1  0
 21 53  1  0
 22 54  1  0
 23 55  1  0
 26 56  1  0
 27 57  1  0
 28 58  1  0
 29 59  1  0
 30 60  1  0
 31 61  1  0
M  END
$$$$
