
     RDKit          3D

 27 29  0  0  0  0  0  0  0  0999 V2000
    5.1122    0.1239   -0.8549 C   0  0  0  0  0  0  0  0  0  0  0  0
    3.8113   -0.1365   -1.3676 O   0  0  0  0  0  0  0  0  0  0  0  0
    2.7606    0.0518   -0.5126 C   0  0  0  0  0  0  0  0  0  0  0  0
    2.8457    0.4805    0.8084 C   0  0  0  0  0  0  0  0  0  0  0  0
    1.6827    0.6203    1.5719 C   0  0  0  0  0  0  0  0  0  0  0  0
    0.4226    0.3404    1.0240 C   0  0  0  0  0  0  0  0  0  0  0  0
    0.3250   -0.0724   -0.3133 C   0  0  0  0  0  0  0  0  0  0  0  0
    1.5044   -0.2273   -1.0603 C   0  0  0  0  0  0  0  0  0  0  0  0
   -0.9044   -0.4088   -0.9073 N   0  0  0  0  0  0  0  0  0  0  0  0
   -2.1798   -0.2689   -0.3324 C   0  0  0  0  0  0  0  0  0  0  0  0
   -3.3082   -0.6063   -1.0975 C   0  0  0  0  0  0  0  0  0  0  0  0
   -4.5939   -0.5237   -0.5593 C   0  0  0  0  0  0  0  0  0  0  0  0
   -4.7685   -0.1154    0.7583 C   0  0  0  0  0  0  0  0  0  0  0  0
   -3.6565    0.2036    1.5378 C   0  0  0  0  0  0  0  0  0  0  0  0
   -2.3606    0.1230    1.0049 C   0  0  0  0  0  0  0  0  0  0  0  0
   -0.9997    0.5387    2.0832 S   0  0  0  0  0  0  0  0  0  0  0  0
    5.2192    1.1745   -0.5654 H   0  0  0  0  0  0  0  0  0  0  0  0
    5.3482   -0.5433   -0.0194 H   0  0  0  0  0  0  0  0  0  0  0  0
    5.8325   -0.0760   -1.6541 H   0  0  0  0  0  0  0  0  0  0  0  0
    3.7956    0.7092    1.2796 H   0  0  0  0  0  0  0  0  0  0  0  0
    1.7687    0.9484    2.6058 H   0  0  0  0  0  0  0  0  0  0  0  0
    1.4534   -0.5732   -2.0898 H   0  0  0  0  0  0  0  0  0  0  0  0
   -0.8884   -0.5006   -1.9146 H   0  0  0  0  0  0  0  0  0  0  0  0
   -3.1924   -0.9403   -2.1253 H   0  0  0  0  0  0  0  0  0  0  0  0
   -5.4560   -0.7835   -1.1682 H   0  0  0  0  0  0  0  0  0  0  0  0
   -5.7667   -0.0510    1.1833 H   0  0  0  0  0  0  0  0  0  0  0  0
   -3.8070    0.5130    2.5697 H   0  0  0  0  0  0  0  0  0  0  0  0
  1  2  1  0
  2  3  1  0
  3  4  2  0
  4  5  1  0
  5  6  2  0
  6  7  1  0
  7  8  2  0
  7  9  1  0
  9 10  1  0
 10 11  2  0
 11 12  1  0
 12 13  2  0
 13 14  1  0
 14 15  2  0
 15 16  1  0
  8  3  1  0
 15 10  1  0
 16  6  1  0
  1 17  1  0
  1 18  1  0
  1 19  1  0
  4 20  1  0
  5 21  1  0
  8 22  1  0
  9 23  1  0
 11 24  1  0
 12 25  1  0
 13 26  1  0
 14 27  1  0
M  END
$$$$
