
     RDKit          3D

 39 40  0  0  0  0  0  0  0  0999 V2000
    6.1433    0.2741   -0.0519 C   0  0  0  0  0  0  0  0  0  0  0  0
    5.4967    1.4300    0.4703 O   0  0  0  0  0  0  0  0  0  0  0  0
    4.1210    1.3260    0.4813 C   0  0  0  0  0  0  0  0  0  0  0  0
    3.4288    2.4144    0.9766 C   0  0  0  0  0  0  0  0  0  0  0  0
    2.0381    2.3516    1.0059 C   0  0  0  0  0  0  0  0  0  0  0  0
    1.3698    1.2080    0.5421 C   0  0  0  0  0  0  0  0  0  0  0  0
   -0.1284    1.2076    0.6025 C   0  0  0  0  0  0  0  0  0  0  0  0
   -0.6755    2.2095    1.0549 O   0  0  0  0  0  0  0  0  0  0  0  0
   -0.7757    0.0762    0.1431 N   0  0  0  0  0  0  0  0  0  0  0  0
   -2.1662   -0.1868    0.0865 C   0  0  0  0  0  0  0  0  0  0  0  0
   -3.1268    0.7378    0.5167 C   0  0  0  0  0  0  0  0  0  0  0  0
   -4.4999    0.4516    0.4575 C   0  0  0  0  0  0  0  0  0  0  0  0
   -5.5028    1.4776    0.8965 C   0  0  0  0  0  0  0  0  0  0  0  0
   -4.9178   -0.7713   -0.0652 C   0  0  0  0  0  0  0  0  0  0  0  0
   -3.9772   -1.7040   -0.4981 C   0  0  0  0  0  0  0  0  0  0  0  0
   -2.6003   -1.4293   -0.4268 C   0  0  0  0  0  0  0  0  0  0  0  0
   -1.6410   -2.4835   -0.9116 C   0  0  0  0  0  0  0  0  0  0  0  0
    2.1670    0.1657    0.0624 C   0  0  0  0  0  0  0  0  0  0  0  0
    1.5520   -0.9820   -0.4052 O   0  0  0  0  0  0  0  0  0  0  0  0
    2.4640   -1.9759   -0.8690 C   0  0  0  0  0  0  0  0  0  0  0  0
    3.5237    0.2066    0.0250 N   0  0  0  0  0  0  0  0  0  0  0  0
    5.8658    0.1026   -1.0978 H   0  0  0  0  0  0  0  0  0  0  0  0
    5.9329   -0.6093    0.5609 H   0  0  0  0  0  0  0  0  0  0  0  0
    7.2225    0.4524   -0.0191 H   0  0  0  0  0  0  0  0  0  0  0  0
    3.9565    3.2924    1.3321 H   0  0  0  0  0  0  0  0  0  0  0  0
    1.4776    3.2008    1.3931 H   0  0  0  0  0  0  0  0  0  0  0  0
   -0.1749   -0.6647   -0.1980 H   0  0  0  0  0  0  0  0  0  0  0  0
   -2.8331    1.7061    0.9098 H   0  0  0  0  0  0  0  0  0  0  0  0
   -6.4360    1.0024    1.2167 H   0  0  0  0  0  0  0  0  0  0  0  0
   -5.1238    2.0533    1.7475 H   0  0  0  0  0  0  0  0  0  0  0  0
   -5.7216    2.1633    0.0722 H   0  0  0  0  0  0  0  0  0  0  0  0
   -5.9768   -1.0069   -0.1381 H   0  0  0  0  0  0  0  0  0  0  0  0
   -4.3294   -2.6531   -0.8966 H   0  0  0  0  0  0  0  0  0  0  0  0
   -2.1661   -3.3773   -1.2654 H   0  0  0  0  0  0  0  0  0  0  0  0
   -1.0471   -2.1014   -1.7482 H   0  0  0  0  0  0  0  0  0  0  0  0
   -0.9771   -2.7965   -0.0993 H   0  0  0  0  0  0  0  0  0  0  0  0
    3.0482   -1.6117   -1.7211 H   0  0  0  0  0  0  0  0  0  0  0  0
    3.1156   -2.3247   -0.0605 H   0  0  0  0  0  0  0  0  0  0  0  0
    1.8740   -2.8313   -1.2123 H   0  0  0  0  0  0  0  0  0  0  0  0
  1  2  1  0
  2  3  1  0
  3  4  2  0
  4  5  1  0
  5  6  2  0
  6  7  1  0
  7  8  2  0
  7  9  1  0
  9 10  1  0
 10 11  2  0
 11 12  1  0
 12 13  1  0
 12 14  2  0
 14 15  1  0
 15 16  2  0
 16 17  1  0
  6 18  1  0
 18 19  1  0
 19 20  1  0
 18 21  2  0
 21  3  1  0
 16 10  1  0
  1 22  1  0
  1 23  1  0
  1 24  1  0
  4 25  1  0
  5 26  1  0
  9 27  1  0
 11 28  1  0
 13 29  1  0
 13 30  1  0
 13 31  1  0
 14 32  1  0
 15 33  1  0
 17 34  1  0
 17 35  1  0
 17 36  1  0
 20 37  1  0
 20 38  1  0
 20 39  1  0
M  END
$$$$
