
     RDKit          3D

 23 24  0  0  0  0  0  0  0  0999 V2000
   -3.2813   -0.1052    0.6008 N   0  0  0  0  0  0  0  0  0  0  0  0
   -1.8426    0.2342    0.5983 C   0  0  1  0  0  0  0  0  0  0  0  0
   -1.0022   -1.0402    0.5240 C   0  0  0  0  0  0  0  0  0  0  0  0
    0.4561   -0.7319    0.3039 C   0  0  0  0  0  0  0  0  0  0  0  0
    1.4478   -1.6066    0.7667 C   0  0  0  0  0  0  0  0  0  0  0  0
    2.7898   -1.3625    0.4750 C   0  0  0  0  0  0  0  0  0  0  0  0
    3.1474   -0.2574   -0.2952 C   0  0  0  0  0  0  0  0  0  0  0  0
    2.1636    0.6105   -0.7721 C   0  0  0  0  0  0  0  0  0  0  0  0
    0.8180    0.3830   -0.4684 C   0  0  0  0  0  0  0  0  0  0  0  0
   -0.1938    1.2408   -0.9269 N   0  0  0  0  0  0  0  0  0  0  0  0
    0.1604    2.2049   -1.8990 O   0  0  0  0  0  0  0  0  0  0  0  0
   -1.5207    1.1895   -0.5627 C   0  0  0  0  0  0  0  0  0  0  0  0
   -2.3608    1.9430   -1.0664 O   0  0  0  0  0  0  0  0  0  0  0  0
   -3.8075    0.7453    0.3780 H   0  0  0  0  0  0  0  0  0  0  0  0
   -3.5657   -0.3824    1.5386 H   0  0  0  0  0  0  0  0  0  0  0  0
   -1.6121    0.7877    1.5180 H   0  0  0  0  0  0  0  0  0  0  0  0
   -1.1304   -1.6142    1.4503 H   0  0  0  0  0  0  0  0  0  0  0  0
   -1.3359   -1.6754   -0.3075 H   0  0  0  0  0  0  0  0  0  0  0  0
    1.1804   -2.4888    1.3443 H   0  0  0  0  0  0  0  0  0  0  0  0
    3.5572   -2.0426    0.8369 H   0  0  0  0  0  0  0  0  0  0  0  0
    4.1926   -0.0725   -0.5304 H   0  0  0  0  0  0  0  0  0  0  0  0
    2.4574    1.4668   -1.3741 H   0  0  0  0  0  0  0  0  0  0  0  0
   -0.7176    2.5742   -2.1321 H   0  0  0  0  0  0  0  0  0  0  0  0
  1  2  1  0
  2  3  1  0
  3  4  1  0
  4  5  2  0
  5  6  1  0
  6  7  2  0
  7  8  1  0
  8  9  2  0
  9 10  1  0
 10 11  1  0
 10 12  1  0
 12 13  2  0
 12  2  1  0
  9  4  1  0
  1 14  1  0
  1 15  1  0
  2 16  1  1
  3 17  1  0
  3 18  1  0
  5 19  1  0
  6 20  1  0
  7 21  1  0
  8 22  1  0
 11 23  1  0
M  END
$$$$
