
     RDKit          3D

 62 65  0  0  0  0  0  0  0  0999 V2000
   -6.3075   -5.1418    1.4555 C   0  0  0  0  0  0  0  0  0  0  0  0
   -6.7393   -3.8040    0.8861 C   0  0  0  0  0  0  0  0  0  0  0  0
   -5.6100   -2.9202    0.8018 O   0  0  0  0  0  0  0  0  0  0  0  0
   -4.9024   -2.9774   -0.3528 C   0  0  0  0  0  0  0  0  0  0  0  0
   -5.1416   -3.6963   -1.3099 O   0  0  0  0  0  0  0  0  0  0  0  0
   -3.7641   -2.0189   -0.3138 C   0  0  0  0  0  0  0  0  0  0  0  0
   -2.9949   -1.8543   -1.4719 C   0  0  0  0  0  0  0  0  0  0  0  0
   -1.9164   -0.9624   -1.4861 C   0  0  0  0  0  0  0  0  0  0  0  0
   -1.5861   -0.2121   -0.3468 C   0  0  0  0  0  0  0  0  0  0  0  0
   -0.4811    0.6913   -0.3453 N   0  0  0  0  0  0  0  0  0  0  0  0
    0.5415    0.4924    0.5667 C   0  0  0  0  0  0  0  0  0  0  0  0
    1.6933    1.1751    0.5309 C   0  0  0  0  0  0  0  0  0  0  0  0
    2.8297    0.9781    1.4907 C   0  0  0  0  0  0  0  0  0  0  0  0
    3.8352   -0.0237    1.0091 C   0  0  0  0  0  0  0  0  0  0  0  0
    3.7417   -1.3681    1.3093 C   0  0  0  0  0  0  0  0  0  0  0  0
    4.6033   -2.2998    0.8652 N   0  0  0  0  0  0  0  0  0  0  0  0
    5.5973   -1.8564    0.0833 C   0  0  0  0  0  0  0  0  0  0  0  0
    6.4553   -2.8375   -0.3618 O   0  0  0  0  0  0  0  0  0  0  0  0
    7.3984   -2.3654   -1.3178 C   0  0  0  0  0  0  0  0  0  0  0  0
    8.2088   -3.5580   -1.7965 C   0  0  0  0  0  0  0  0  0  0  0  0
    5.7943   -0.5764   -0.2721 N   0  0  0  0  0  0  0  0  0  0  0  0
    4.9000    0.3148    0.1987 C   0  0  0  0  0  0  0  0  0  0  0  0
    1.8454    2.2071   -0.5396 C   0  0  0  0  0  0  0  0  0  0  0  0
    2.8933    2.8410   -0.6071 O   0  0  0  0  0  0  0  0  0  0  0  0
    0.7973    2.4117   -1.4007 N   0  0  0  0  0  0  0  0  0  0  0  0
   -0.2825    1.7024   -1.2892 C   0  0  0  0  0  0  0  0  0  0  0  0
   -1.5491    2.1729   -2.4304 S   0  0  0  0  0  0  0  0  0  0  0  0
   -2.7000    2.9950   -1.2959 C   0  0  0  0  0  0  0  0  0  0  0  0
   -2.0744    4.0841   -0.4572 C   0  0  0  0  0  0  0  0  0  0  0  0
   -1.6332    5.2811   -1.0518 C   0  0  0  0  0  0  0  0  0  0  0  0
   -1.0419    6.2812   -0.2758 C   0  0  0  0  0  0  0  0  0  0  0  0
   -0.8925    6.0886    1.0934 C   0  0  0  0  0  0  0  0  0  0  0  0
   -0.3264    7.0484    1.8391 F   0  0  0  0  0  0  0  0  0  0  0  0
   -1.3246    4.9144    1.7031 C   0  0  0  0  0  0  0  0  0  0  0  0
   -1.9170    3.9122    0.9305 C   0  0  0  0  0  0  0  0  0  0  0  0
   -2.3522   -0.4016    0.8176 C   0  0  0  0  0  0  0  0  0  0  0  0
   -3.4335   -1.2902    0.8347 C   0  0  0  0  0  0  0  0  0  0  0  0
   -5.8229   -5.0067    2.4307 H   0  0  0  0  0  0  0  0  0  0  0  0
   -5.5750   -5.6293    0.8027 H   0  0  0  0  0  0  0  0  0  0  0  0
   -7.1665   -5.8085    1.5771 H   0  0  0  0  0  0  0  0  0  0  0  0
   -7.2328   -3.9214   -0.0864 H   0  0  0  0  0  0  0  0  0  0  0  0
   -7.4648   -3.3312    1.5570 H   0  0  0  0  0  0  0  0  0  0  0  0
   -3.2289   -2.4226   -2.3719 H   0  0  0  0  0  0  0  0  0  0  0  0
   -1.3267   -0.8739   -2.3975 H   0  0  0  0  0  0  0  0  0  0  0  0
    0.3749   -0.2935    1.2982 H   0  0  0  0  0  0  0  0  0  0  0  0
    3.3271    1.9296    1.7129 H   0  0  0  0  0  0  0  0  0  0  0  0
    2.4374    0.6466    2.4609 H   0  0  0  0  0  0  0  0  0  0  0  0
    2.9440   -1.7588    1.9346 H   0  0  0  0  0  0  0  0  0  0  0  0
    8.0733   -1.6335   -0.8596 H   0  0  0  0  0  0  0  0  0  0  0  0
    6.8878   -1.9159   -2.1783 H   0  0  0  0  0  0  0  0  0  0  0  0
    8.7127   -4.0461   -0.9547 H   0  0  0  0  0  0  0  0  0  0  0  0
    7.5547   -4.3097   -2.2536 H   0  0  0  0  0  0  0  0  0  0  0  0
    8.9596   -3.2506   -2.5308 H   0  0  0  0  0  0  0  0  0  0  0  0
    5.0724    1.3427   -0.1131 H   0  0  0  0  0  0  0  0  0  0  0  0
   -3.5107    3.4316   -1.8907 H   0  0  0  0  0  0  0  0  0  0  0  0
   -3.1718    2.2428   -0.6555 H   0  0  0  0  0  0  0  0  0  0  0  0
   -1.7361    5.4340   -2.1269 H   0  0  0  0  0  0  0  0  0  0  0  0
   -0.6907    7.2034   -0.7330 H   0  0  0  0  0  0  0  0  0  0  0  0
   -1.1963    4.7911    2.7745 H   0  0  0  0  0  0  0  0  0  0  0  0
   -2.2539    2.9989    1.4185 H   0  0  0  0  0  0  0  0  0  0  0  0
   -2.1233    0.1580    1.7220 H   0  0  0  0  0  0  0  0  0  0  0  0
   -4.0072   -1.4042    1.7520 H   0  0  0  0  0  0  0  0  0  0  0  0
  1  2  1  0
  2  3  1  0
  3  4  1  0
  4  5  2  0
  4  6  1  0
  6  7  2  0
  7  8  1  0
  8  9  2  0
  9 10  1  0
 10 11  1  0
 11 12  2  0
 12 13  1  0
 13 14  1  0
 14 15  2  0
 15 16  1  0
 16 17  2  0
 17 18  1  0
 18 19  1  0
 19 20  1  0
 17 21  1  0
 21 22  2  0
 12 23  1  0
 23 24  2  0
 23 25  1  0
 25 26  2  0
 26 27  1  0
 27 28  1  0
 28 29  1  0
 29 30  2  0
 30 31  1  0
 31 32  2  0
 32 33  1  0
 32 34  1  0
 34 35  2  0
  9 36  1  0
 36 37  2  0
 37  6  1  0
 26 10  1  0
 35 29  1  0
 22 14  1  0
  1 38  1  0
  1 39  1  0
  1 40  1  0
  2 41  1  0
  2 42  1  0
  7 43  1  0
  8 44  1  0
 11 45  1  0
 13 46  1  0
 13 47  1  0
 15 48  1  0
 19 49  1  0
 19 50  1  0
 20 51  1  0
 20 52  1  0
 20 53  1  0
 22 54  1  0
 28 55  1  0
 28 56  1  0
 30 57  1  0
 31 58  1  0
 34 59  1  0
 35 60  1  0
 36 61  1  0
 37 62  1  0
M  END
$$$$
