
     RDKit          3D

 60 62  0  0  0  0  0  0  0  0999 V2000
   -4.1785   -5.0735   -0.5476 C   0  0  0  0  0  0  0  0  0  0  0  0
   -3.6943   -4.1344    0.4614 N   0  0  0  0  0  0  0  0  0  0  0  0
   -3.5686   -4.6755    1.8150 C   0  0  0  0  0  0  0  0  0  0  0  0
   -2.8035   -3.1216    0.0798 C   0  0  0  0  0  0  0  0  0  0  0  0
   -2.2355   -2.2449    1.0182 C   0  0  0  0  0  0  0  0  0  0  0  0
   -1.3533   -1.2159    0.6508 C   0  0  0  0  0  0  0  0  0  0  0  0
   -1.0028   -0.9978   -0.6903 C   0  0  0  0  0  0  0  0  0  0  0  0
   -0.0274    0.1323   -1.0919 C   0  0  0  0  0  0  0  0  0  0  0  0
    0.0262    0.1724   -2.5383 O   0  0  0  0  0  0  0  0  0  0  0  0
   -0.4885    1.5564   -0.6944 C   0  0  0  0  0  0  0  0  0  0  0  0
   -1.8310    1.8651   -0.4342 C   0  0  0  0  0  0  0  0  0  0  0  0
   -2.2313    3.1760   -0.1346 C   0  0  0  0  0  0  0  0  0  0  0  0
   -1.3268    4.2479   -0.1104 C   0  0  0  0  0  0  0  0  0  0  0  0
   -1.7679    5.5408    0.2116 N   0  0  0  0  0  0  0  0  0  0  0  0
   -2.9062    6.0158   -0.5812 C   0  0  0  0  0  0  0  0  0  0  0  0
   -0.7640    6.5638    0.5036 C   0  0  0  0  0  0  0  0  0  0  0  0
    0.0092    3.9392   -0.3942 C   0  0  0  0  0  0  0  0  0  0  0  0
    0.4178    2.6315   -0.6984 C   0  0  0  0  0  0  0  0  0  0  0  0
    1.3915   -0.2421   -0.6015 C   0  0  0  0  0  0  0  0  0  0  0  0
    2.2841   -0.9400   -1.4248 C   0  0  0  0  0  0  0  0  0  0  0  0
    3.5679   -1.2956   -0.9783 C   0  0  0  0  0  0  0  0  0  0  0  0
    4.0252   -0.9984    0.3150 C   0  0  0  0  0  0  0  0  0  0  0  0
    5.3129   -1.3347    0.7514 N   0  0  0  0  0  0  0  0  0  0  0  0
    6.1227   -2.2414   -0.0605 C   0  0  0  0  0  0  0  0  0  0  0  0
    5.5833   -1.3600    2.1865 C   0  0  0  0  0  0  0  0  0  0  0  0
    3.1189   -0.3035    1.1314 C   0  0  0  0  0  0  0  0  0  0  0  0
    1.8333    0.0575    0.6949 C   0  0  0  0  0  0  0  0  0  0  0  0
   -1.5708   -1.8602   -1.6369 C   0  0  0  0  0  0  0  0  0  0  0  0
   -2.4536   -2.8860   -1.2583 C   0  0  0  0  0  0  0  0  0  0  0  0
   -4.9247   -5.7552   -0.1218 H   0  0  0  0  0  0  0  0  0  0  0  0
   -4.6847   -4.5509   -1.3680 H   0  0  0  0  0  0  0  0  0  0  0  0
   -3.3592   -5.6824   -0.9472 H   0  0  0  0  0  0  0  0  0  0  0  0
   -3.8625   -3.9352    2.5666 H   0  0  0  0  0  0  0  0  0  0  0  0
   -4.2309   -5.5365    1.9629 H   0  0  0  0  0  0  0  0  0  0  0  0
   -2.5446   -5.0127    2.0130 H   0  0  0  0  0  0  0  0  0  0  0  0
   -2.4764   -2.3286    2.0738 H   0  0  0  0  0  0  0  0  0  0  0  0
   -0.9572   -0.5763    1.4366 H   0  0  0  0  0  0  0  0  0  0  0  0
   -0.3051    1.0407   -2.8187 H   0  0  0  0  0  0  0  0  0  0  0  0
   -2.6002    1.0953   -0.4564 H   0  0  0  0  0  0  0  0  0  0  0  0
   -3.2776    3.3403    0.1092 H   0  0  0  0  0  0  0  0  0  0  0  0
   -2.6507    6.0578   -1.6465 H   0  0  0  0  0  0  0  0  0  0  0  0
   -3.1961    7.0252   -0.2678 H   0  0  0  0  0  0  0  0  0  0  0  0
   -3.7941    5.3894   -0.4515 H   0  0  0  0  0  0  0  0  0  0  0  0
   -1.2438    7.4517    0.9299 H   0  0  0  0  0  0  0  0  0  0  0  0
   -0.2331    6.8733   -0.4036 H   0  0  0  0  0  0  0  0  0  0  0  0
   -0.0428    6.2141    1.2504 H   0  0  0  0  0  0  0  0  0  0  0  0
    0.7714    4.7131   -0.4115 H   0  0  0  0  0  0  0  0  0  0  0  0
    1.4667    2.4679   -0.9449 H   0  0  0  0  0  0  0  0  0  0  0  0
    1.9917   -1.2205   -2.4351 H   0  0  0  0  0  0  0  0  0  0  0  0
    4.1970   -1.8233   -1.6877 H   0  0  0  0  0  0  0  0  0  0  0  0
    7.1069   -2.4070    0.3918 H   0  0  0  0  0  0  0  0  0  0  0  0
    6.3163   -1.8175   -1.0522 H   0  0  0  0  0  0  0  0  0  0  0  0
    5.6384   -3.2190   -0.1652 H   0  0  0  0  0  0  0  0  0  0  0  0
    5.4790   -0.3632    2.6277 H   0  0  0  0  0  0  0  0  0  0  0  0
    4.9187   -2.0625    2.7010 H   0  0  0  0  0  0  0  0  0  0  0  0
    6.6145   -1.6711    2.3912 H   0  0  0  0  0  0  0  0  0  0  0  0
    3.3890   -0.0129    2.1415 H   0  0  0  0  0  0  0  0  0  0  0  0
    1.1878    0.5900    1.3900 H   0  0  0  0  0  0  0  0  0  0  0  0
   -1.3339   -1.7527   -2.6933 H   0  0  0  0  0  0  0  0  0  0  0  0
   -2.8488   -3.5046   -2.0581 H   0  0  0  0  0  0  0  0  0  0  0  0
  1  2  1  0
  2  3  1  0
  2  4  1  0
  4  5  2  0
  5  6  1  0
  6  7  2  0
  7  8  1  0
  8  9  1  0
  8 10  1  0
 10 11  2  0
 11 12  1  0
 12 13  2  0
 13 14  1  0
 14 15  1  0
 14 16  1  0
 13 17  1  0
 17 18  2  0
  8 19  1  0
 19 20  2  0
 20 21  1  0
 21 22  2  0
 22 23  1  0
 23 24  1  0
 23 25  1  0
 22 26  1  0
 26 27  2  0
  7 28  1  0
 28 29  2  0
 29  4  1  0
 18 10  1  0
 27 19  1  0
  1 30  1  0
  1 31  1  0
  1 32  1  0
  3 33  1  0
  3 34  1  0
  3 35  1  0
  5 36  1  0
  6 37  1  0
  9 38  1  0
 11 39  1  0
 12 40  1  0
 15 41  1  0
 15 42  1  0
 15 43  1  0
 16 44  1  0
 16 45  1  0
 16 46  1  0
 17 47  1  0
 18 48  1  0
 20 49  1  0
 21 50  1  0
 24 51  1  0
 24 52  1  0
 24 53  1  0
 25 54  1  0
 25 55  1  0
 25 56  1  0
 26 57  1  0
 27 58  1  0
 28 59  1  0
 29 60  1  0
M  END
$$$$
