
     RDKit          3D

 38 39  0  0  0  0  0  0  0  0999 V2000
    2.4175    2.0700    0.7545 C   0  0  0  0  0  0  0  0  0  0  0  0
    2.3201    0.6705    0.9778 O   0  0  0  0  0  0  0  0  0  0  0  0
    2.2173   -0.1191   -0.1432 C   0  0  0  0  0  0  0  0  0  0  0  0
    2.5987    0.2674   -1.4292 C   0  0  0  0  0  0  0  0  0  0  0  0
    2.4530   -0.6233   -2.4971 C   0  0  0  0  0  0  0  0  0  0  0  0
    1.9360   -1.9005   -2.2828 C   0  0  0  0  0  0  0  0  0  0  0  0
    1.5685   -2.2994   -0.9980 C   0  0  0  0  0  0  0  0  0  0  0  0
    1.7147   -1.4144    0.0680 C   0  0  0  0  0  0  0  0  0  0  0  0
    1.3222   -1.7877    1.3932 N   0  0  0  0  0  0  0  0  0  0  0  0
   -0.3209   -2.0549    1.6976 S   0  0  0  0  0  6  0  0  0  0  0  0
   -0.7220   -3.2573    0.9960 O   0  0  0  0  0  0  0  0  0  0  0  0
   -0.4722   -1.9816    3.1431 O   0  0  0  0  0  0  0  0  0  0  0  0
   -1.1125   -0.6073    1.0263 C   0  0  0  0  0  0  0  0  0  0  0  0
   -0.9892    0.5827    1.7705 C   0  0  0  0  0  0  0  0  0  0  0  0
   -1.5574    1.7739    1.3117 C   0  0  0  0  0  0  0  0  0  0  0  0
   -1.3725    3.0579    2.0636 C   0  0  0  0  0  0  0  0  0  0  0  0
   -2.2504    1.7601    0.1011 C   0  0  0  0  0  0  0  0  0  0  0  0
   -2.3942    0.5716   -0.6262 C   0  0  0  0  0  0  0  0  0  0  0  0
   -1.8261   -0.6260   -0.1772 C   0  0  0  0  0  0  0  0  0  0  0  0
   -1.9193   -1.8057   -0.8549 O   0  0  0  0  0  0  0  0  0  0  0  0
   -2.6929   -1.8461   -2.0439 C   0  0  0  0  0  0  0  0  0  0  0  0
    3.4175    2.3371    0.4013 H   0  0  0  0  0  0  0  0  0  0  0  0
    2.2607    2.5702    1.7138 H   0  0  0  0  0  0  0  0  0  0  0  0
    1.6480    2.4322    0.0607 H   0  0  0  0  0  0  0  0  0  0  0  0
    3.0249    1.2451   -1.6328 H   0  0  0  0  0  0  0  0  0  0  0  0
    2.7500   -0.3215   -3.4996 H   0  0  0  0  0  0  0  0  0  0  0  0
    1.8183   -2.5881   -3.1187 H   0  0  0  0  0  0  0  0  0  0  0  0
    1.1618   -3.2969   -0.8420 H   0  0  0  0  0  0  0  0  0  0  0  0
    1.7295   -1.2044    2.1269 H   0  0  0  0  0  0  0  0  0  0  0  0
   -0.4257    0.5811    2.7039 H   0  0  0  0  0  0  0  0  0  0  0  0
   -2.2704    3.6816    1.9979 H   0  0  0  0  0  0  0  0  0  0  0  0
   -0.5235    3.6115    1.6466 H   0  0  0  0  0  0  0  0  0  0  0  0
   -1.1801    2.8766    3.1269 H   0  0  0  0  0  0  0  0  0  0  0  0
   -2.7000    2.6735   -0.2878 H   0  0  0  0  0  0  0  0  0  0  0  0
   -2.9543    0.6244   -1.5553 H   0  0  0  0  0  0  0  0  0  0  0  0
   -2.2663   -1.1985   -2.8174 H   0  0  0  0  0  0  0  0  0  0  0  0
   -3.7388   -1.5857   -1.8452 H   0  0  0  0  0  0  0  0  0  0  0  0
   -2.6702   -2.8690   -2.4300 H   0  0  0  0  0  0  0  0  0  0  0  0
  1  2  1  0
  2  3  1  0
  3  4  2  0
  4  5  1  0
  5  6  2  0
  6  7  1  0
  7  8  2  0
  8  9  1  0
  9 10  1  0
 10 11  2  0
 10 12  2  0
 10 13  1  0
 13 14  2  0
 14 15  1  0
 15 16  1  0
 15 17  2  0
 17 18  1  0
 18 19  2  0
 19 20  1  0
 20 21  1  0
  8  3  1  0
 19 13  1  0
  1 22  1  0
  1 23  1  0
  1 24  1  0
  4 25  1  0
  5 26  1  0
  6 27  1  0
  7 28  1  0
  9 29  1  0
 14 30  1  0
 16 31  1  0
 16 32  1  0
 16 33  1  0
 17 34  1  0
 18 35  1  0
 21 36  1  0
 21 37  1  0
 21 38  1  0
M  END
$$$$
