
     RDKit          3D

 56 57  0  0  0  0  0  0  0  0999 V2000
   -1.1515    1.6590   -5.5508 C   0  0  0  0  0  0  0  0  0  0  0  0
   -1.5393    1.3363   -4.1999 N   0  0  0  0  0  0  0  0  0  0  0  0
   -0.6493    1.5352   -3.1598 C   0  0  0  0  0  0  0  0  0  0  0  0
    0.4321    2.1031   -3.3033 O   0  0  0  0  0  0  0  0  0  0  0  0
   -1.1638    1.0637   -1.7879 C   0  0  2  0  0  0  0  0  0  0  0  0
   -1.9642    2.2058   -1.1465 C   0  0  0  0  0  0  0  0  0  0  0  0
   -2.2210    2.0698    0.3298 C   0  0  0  0  0  0  0  0  0  0  0  0
   -1.9812    3.0614    1.2632 C   0  0  0  0  0  0  0  0  0  0  0  0
   -2.3094    2.5859    2.5015 N   0  0  0  0  0  0  0  0  0  0  0  0
   -2.7587    1.2908    2.4075 C   0  0  0  0  0  0  0  0  0  0  0  0
   -3.1781    0.4143    3.4162 C   0  0  0  0  0  0  0  0  0  0  0  0
   -3.5850   -0.8667    3.0354 C   0  0  0  0  0  0  0  0  0  0  0  0
   -3.5760   -1.2492    1.6980 C   0  0  0  0  0  0  0  0  0  0  0  0
   -3.1562   -0.3577    0.7022 C   0  0  0  0  0  0  0  0  0  0  0  0
   -2.7310    0.9405    1.0558 C   0  0  0  0  0  0  0  0  0  0  0  0
   -0.0235    0.6462   -0.9815 N   0  0  0  0  0  0  0  0  0  0  0  0
    0.3939   -0.6632   -0.9705 C   0  0  0  0  0  0  0  0  0  0  0  0
   -0.1913   -1.5496   -1.5855 O   0  0  0  0  0  0  0  0  0  0  0  0
    1.5991   -0.9150   -0.0639 C   0  0  1  0  0  0  0  0  0  0  0  0
    1.1332   -0.7402    1.3929 C   0  0  0  0  0  0  0  0  0  0  0  0
    1.2134    0.6998    1.8606 C   0  0  0  0  0  0  0  0  0  0  0  0
    1.7260    1.6151    1.2189 O   0  0  0  0  0  0  0  0  0  0  0  0
    0.6781    0.8960    3.1180 N   0  0  0  0  0  0  0  0  0  0  0  0
    0.6505    2.2562    3.5272 O   0  0  0  0  0  0  0  0  0  0  0  0
    2.1596   -2.3295   -0.3273 C   0  0  0  0  0  0  0  0  0  0  0  0
    3.5063   -2.6544    0.3530 C   0  0  0  0  0  0  0  0  0  0  0  0
    3.9032   -4.1000    0.0382 C   0  0  0  0  0  0  0  0  0  0  0  0
    4.6263   -1.7068   -0.0785 C   0  0  0  0  0  0  0  0  0  0  0  0
   -2.0413    1.6329   -6.1835 H   0  0  0  0  0  0  0  0  0  0  0  0
   -0.6992    2.6544   -5.5845 H   0  0  0  0  0  0  0  0  0  0  0  0
   -0.4265    0.9170   -5.8972 H   0  0  0  0  0  0  0  0  0  0  0  0
   -2.2353    0.6106   -4.0817 H   0  0  0  0  0  0  0  0  0  0  0  0
   -1.8170    0.1990   -1.9437 H   0  0  0  0  0  0  0  0  0  0  0  0
   -2.9277    2.3078   -1.6627 H   0  0  0  0  0  0  0  0  0  0  0  0
   -1.4364    3.1546   -1.3168 H   0  0  0  0  0  0  0  0  0  0  0  0
   -1.5901    4.0637    1.1499 H   0  0  0  0  0  0  0  0  0  0  0  0
   -2.1989    3.0943    3.3684 H   0  0  0  0  0  0  0  0  0  0  0  0
   -3.1944    0.7162    4.4588 H   0  0  0  0  0  0  0  0  0  0  0  0
   -3.9216   -1.5711    3.7937 H   0  0  0  0  0  0  0  0  0  0  0  0
   -3.9001   -2.2498    1.4178 H   0  0  0  0  0  0  0  0  0  0  0  0
   -3.1563   -0.6839   -0.3329 H   0  0  0  0  0  0  0  0  0  0  0  0
    0.6478    1.3669   -0.7180 H   0  0  0  0  0  0  0  0  0  0  0  0
    2.3627   -0.1795   -0.3416 H   0  0  0  0  0  0  0  0  0  0  0  0
    0.1036   -1.0963    1.5197 H   0  0  0  0  0  0  0  0  0  0  0  0
    1.7628   -1.3146    2.0793 H   0  0  0  0  0  0  0  0  0  0  0  0
   -0.1361    0.3488    3.3863 H   0  0  0  0  0  0  0  0  0  0  0  0
    1.1011    2.7053    2.7768 H   0  0  0  0  0  0  0  0  0  0  0  0
    2.2778   -2.4663   -1.4118 H   0  0  0  0  0  0  0  0  0  0  0  0
    1.4137   -3.0726   -0.0115 H   0  0  0  0  0  0  0  0  0  0  0  0
    3.3971   -2.5790    1.4409 H   0  0  0  0  0  0  0  0  0  0  0  0
    4.8393   -4.3648    0.5411 H   0  0  0  0  0  0  0  0  0  0  0  0
    3.1329   -4.7989    0.3817 H   0  0  0  0  0  0  0  0  0  0  0  0
    4.0422   -4.2502   -1.0380 H   0  0  0  0  0  0  0  0  0  0  0  0
    4.7280   -1.6820   -1.1687 H   0  0  0  0  0  0  0  0  0  0  0  0
    4.4426   -0.6872    0.2721 H   0  0  0  0  0  0  0  0  0  0  0  0
    5.5871   -2.0224    0.3432 H   0  0  0  0  0  0  0  0  0  0  0  0
  1  2  1  0
  2  3  1  0
  3  4  2  0
  3  5  1  0
  5  6  1  0
  6  7  1  0
  7  8  2  0
  8  9  1  0
  9 10  1  0
 10 11  2  0
 11 12  1  0
 12 13  2  0
 13 14  1  0
 14 15  2  0
  5 16  1  0
 16 17  1  0
 17 18  2  0
 17 19  1  0
 19 20  1  0
 20 21  1  0
 21 22  2  0
 21 23  1  0
 23 24  1  0
 19 25  1  0
 25 26  1  0
 26 27  1  0
 26 28  1  0
 15  7  1  0
 15 10  1  0
  1 29  1  0
  1 30  1  0
  1 31  1  0
  2 32  1  0
  5 33  1  6
  6 34  1  0
  6 35  1  0
  8 36  1  0
  9 37  1  0
 11 38  1  0
 12 39  1  0
 13 40  1  0
 14 41  1  0
 16 42  1  0
 19 43  1  6
 20 44  1  0
 20 45  1  0
 23 46  1  0
 24 47  1  0
 25 48  1  0
 25 49  1  0
 26 50  1  0
 27 51  1  0
 27 52  1  0
 27 53  1  0
 28 54  1  0
 28 55  1  0
 28 56  1  0
M  END
$$$$
