
     RDKit          3D

 47 47  0  0  0  0  0  0  0  0999 V2000
   -6.1431    1.9192   -2.1102 N   0  0  0  0  0  0  0  0  0  0  0  0
   -5.4915    1.3010   -1.0443 C   0  0  0  0  0  0  0  0  0  0  0  0
   -6.1365    0.3104   -0.3870 N   0  0  0  0  0  0  0  0  0  0  0  0
   -5.4972   -0.2937    0.6370 C   0  0  0  0  0  0  0  0  0  0  0  0
   -4.2596   -0.0524    1.1220 N   0  0  0  0  0  0  0  0  0  0  0  0
   -3.6588    0.9269    0.4231 C   0  0  0  0  0  0  0  0  0  0  0  0
   -4.1884    1.6415   -0.6412 C   0  0  0  0  0  0  0  0  0  0  0  0
   -3.2843    2.5649   -1.1115 N   0  0  0  0  0  0  0  0  0  0  0  0
   -2.2146    2.4005   -0.3563 C   0  0  0  0  0  0  0  0  0  0  0  0
   -2.3880    1.4169    0.5811 N   0  0  0  0  0  0  0  0  0  0  0  0
   -1.4543    1.0136    1.6207 C   0  0  2  0  0  0  0  0  0  0  0  0
   -0.1754    1.6543    1.4075 O   0  0  0  0  0  0  0  0  0  0  0  0
    0.8572    0.6353    1.5531 C   0  0  2  0  0  0  0  0  0  0  0  0
    1.3649    0.2819    0.1514 C   0  0  0  0  0  0  0  0  0  0  0  0
    1.9383   -1.0081    0.1428 O   0  0  0  0  0  0  0  0  0  0  0  0
    2.3546   -1.6034   -1.3045 P   0  0  0  0  0  5  0  0  0  0  0  0
    1.1203   -1.8702   -2.1204 O   0  0  0  0  0  0  0  0  0  0  0  0
    3.1588   -2.9128   -0.8589 O   0  0  0  0  0  0  0  0  0  0  0  0
    3.3595   -0.5201   -1.8566 O   0  0  0  0  0  0  0  0  0  0  0  0
    4.5906   -0.6452   -2.8579 P   0  0  0  0  0  5  0  0  0  0  0  0
    4.6699   -2.0438   -3.4204 O   0  0  0  0  0  0  0  0  0  0  0  0
    4.5286    0.5244   -3.8198 O   0  0  0  0  0  1  0  0  0  0  0  0
    5.8229   -0.4063   -1.8543 O   0  0  0  0  0  0  0  0  0  0  0  0
    5.8663   -0.6675   -0.2816 P   0  0  0  0  0  5  0  0  0  0  0  0
    5.1748   -1.9664    0.0673 O   0  0  0  0  0  0  0  0  0  0  0  0
    5.6080    0.5705    0.5276 O   0  0  0  0  0  1  0  0  0  0  0  0
    7.4312   -1.0425   -0.1355 O   0  0  0  0  0  0  0  0  0  0  0  0
    0.1877   -0.5287    2.2819 C   0  0  1  0  0  0  0  0  0  0  0  0
    0.0737   -0.2496    3.6938 O   0  0  0  0  0  0  0  0  0  0  0  0
   -1.2079   -0.5020    1.6875 C   0  0  1  0  0  0  0  0  0  0  0  0
   -2.1310   -1.1999    2.5331 O   0  0  0  0  0  0  0  0  0  0  0  0
    0.0000    0.0000    0.0000 Na  0  0  0  0  0 15  0  0  0  0  0  0
    0.0000    0.0000    0.0000 Na  0  0  0  0  0 15  0  0  0  0  0  0
   -6.8337    1.3090   -2.5318 H   0  0  0  0  0  0  0  0  0  0  0  0
   -5.4952    2.3969   -2.7287 H   0  0  0  0  0  0  0  0  0  0  0  0
   -6.0592   -1.0729    1.1441 H   0  0  0  0  0  0  0  0  0  0  0  0
   -1.2908    2.9609   -0.4466 H   0  0  0  0  0  0  0  0  0  0  0  0
   -1.8684    1.3949    2.5627 H   0  0  0  0  0  0  0  0  0  0  0  0
    1.6689    1.0586    2.1538 H   0  0  0  0  0  0  0  0  0  0  0  0
    0.5500    0.3264   -0.5809 H   0  0  0  0  0  0  0  0  0  0  0  0
    2.1076    1.0227   -0.1597 H   0  0  0  0  0  0  0  0  0  0  0  0
    4.0130   -2.6322   -0.4095 H   0  0  0  0  0  0  0  0  0  0  0  0
    7.4443   -1.9950   -0.3197 H   0  0  0  0  0  0  0  0  0  0  0  0
    0.6930   -1.4926    2.1848 H   0  0  0  0  0  0  0  0  0  0  0  0
   -0.5757   -0.9081    4.0143 H   0  0  0  0  0  0  0  0  0  0  0  0
   -1.2175   -0.9648    0.6924 H   0  0  0  0  0  0  0  0  0  0  0  0
   -3.0130   -1.0527    2.1331 H   0  0  0  0  0  0  0  0  0  0  0  0
  1  2  1  0
  2  3  2  0
  3  4  1  0
  4  5  2  0
  5  6  1  0
  6  7  2  0
  7  8  1  0
  8  9  2  0
  9 10  1  0
 10 11  1  0
 11 12  1  0
 12 13  1  0
 13 14  1  0
 14 15  1  0
 15 16  1  0
 16 17  2  0
 16 18  1  0
 16 19  1  0
 19 20  1  0
 20 21  2  0
 20 22  1  0
 20 23  1  0
 23 24  1  0
 24 25  2  0
 24 26  1  0
 24 27  1  0
 13 28  1  0
 28 29  1  0
 28 30  1  0
 30 31  1  0
  7  2  1  0
 30 11  1  0
 10  6  1  0
  1 34  1  0
  1 35  1  0
  4 36  1  0
  9 37  1  0
 11 38  1  1
 13 39  1  1
 14 40  1  0
 14 41  1  0
 18 42  1  0
 27 43  1  0
 28 44  1  1
 29 45  1  0
 30 46  1  6
 31 47  1  0
M  CHG  4  22  -1  26  -1  32   1  33   1
M  END
$$$$
