
     RDKit          3D

 45 47  0  0  0  0  0  0  0  0999 V2000
    3.5014   -2.3282    0.6813 O   0  0  0  0  0  0  0  0  0  0  0  0
    3.4519   -1.1413    0.3430 C   0  0  0  0  0  0  0  0  0  0  0  0
    4.7225   -0.5240   -0.1835 C   0  0  0  0  0  0  0  0  0  0  0  0
    5.7472   -1.3742   -0.5974 C   0  0  0  0  0  0  0  0  0  0  0  0
    6.9377   -0.8196   -1.0606 C   0  0  0  0  0  0  0  0  0  0  0  0
    7.0756    0.5621   -1.0910 C   0  0  0  0  0  0  0  0  0  0  0  0
    6.0136    1.3358   -0.6540 C   0  0  0  0  0  0  0  0  0  0  0  0
    4.8457    0.8284   -0.2019 N   0  0  0  0  0  0  0  0  0  0  0  0
    2.2570   -0.4100    0.4293 N   0  0  0  0  0  0  0  0  0  0  0  0
    2.0881    0.9701   -0.0273 C   0  0  0  0  0  0  0  0  0  0  0  0
    0.6267    1.4286   -0.0219 C   0  0  0  0  0  0  0  0  0  0  0  0
   -0.2736    0.3570   -0.6496 C   0  0  0  0  0  0  0  0  0  0  0  0
   -1.7439    0.7929   -0.7691 C   0  0  0  0  0  0  0  0  0  0  0  0
   -2.4196    1.1934    0.5443 C   0  0  0  0  0  0  0  0  0  0  0  0
   -3.7790    1.5690    0.3086 O   0  0  0  0  0  0  0  0  0  0  0  0
   -4.7505    0.6110    0.3821 C   0  0  0  0  0  0  0  0  0  0  0  0
   -6.0580    1.1043    0.2919 C   0  0  0  0  0  0  0  0  0  0  0  0
   -7.1566    0.2426    0.3466 C   0  0  0  0  0  0  0  0  0  0  0  0
   -6.9507   -1.1261    0.4888 C   0  0  0  0  0  0  0  0  0  0  0  0
   -5.6515   -1.6129    0.5714 C   0  0  0  0  0  0  0  0  0  0  0  0
   -5.4524   -2.9315    0.7022 F   0  0  0  0  0  0  0  0  0  0  0  0
   -4.5507   -0.7606    0.5181 C   0  0  0  0  0  0  0  0  0  0  0  0
   -0.1106   -1.0031    0.0613 C   0  0  0  0  0  0  0  0  0  0  0  0
    1.0841   -1.0475    1.0151 C   0  0  0  0  0  0  0  0  0  0  0  0
    5.6229   -2.4523   -0.5577 H   0  0  0  0  0  0  0  0  0  0  0  0
    7.7494   -1.4628   -1.3889 H   0  0  0  0  0  0  0  0  0  0  0  0
    7.9909    1.0255   -1.4427 H   0  0  0  0  0  0  0  0  0  0  0  0
    6.0775    2.4206   -0.6548 H   0  0  0  0  0  0  0  0  0  0  0  0
    2.6667    1.6268    0.6304 H   0  0  0  0  0  0  0  0  0  0  0  0
    2.4856    1.0444   -1.0456 H   0  0  0  0  0  0  0  0  0  0  0  0
    0.3189    1.6270    1.0119 H   0  0  0  0  0  0  0  0  0  0  0  0
    0.5389    2.3761   -0.5661 H   0  0  0  0  0  0  0  0  0  0  0  0
    0.0806    0.2134   -1.6813 H   0  0  0  0  0  0  0  0  0  0  0  0
   -2.3161   -0.0070   -1.2549 H   0  0  0  0  0  0  0  0  0  0  0  0
   -1.8090    1.6443   -1.4600 H   0  0  0  0  0  0  0  0  0  0  0  0
   -2.3323    0.4376    1.3315 H   0  0  0  0  0  0  0  0  0  0  0  0
   -1.9321    2.0917    0.9388 H   0  0  0  0  0  0  0  0  0  0  0  0
   -6.2206    2.1742    0.1792 H   0  0  0  0  0  0  0  0  0  0  0  0
   -8.1652    0.6411    0.2774 H   0  0  0  0  0  0  0  0  0  0  0  0
   -7.7883   -1.8145    0.5328 H   0  0  0  0  0  0  0  0  0  0  0  0
   -3.5669   -1.2077    0.5757 H   0  0  0  0  0  0  0  0  0  0  0  0
   -1.0119   -1.2878    0.6139 H   0  0  0  0  0  0  0  0  0  0  0  0
    0.0220   -1.7739   -0.7095 H   0  0  0  0  0  0  0  0  0  0  0  0
    0.8515   -0.5098    1.9424 H   0  0  0  0  0  0  0  0  0  0  0  0
    1.2830   -2.0855    1.2997 H   0  0  0  0  0  0  0  0  0  0  0  0
  1  2  2  0
  2  3  1  0
  3  4  2  0
  4  5  1  0
  5  6  2  0
  6  7  1  0
  7  8  2  0
  2  9  1  0
  9 10  1  0
 10 11  1  0
 11 12  1  0
 12 13  1  0
 13 14  1  0
 14 15  1  0
 15 16  1  0
 16 17  2  0
 17 18  1  0
 18 19  2  0
 19 20  1  0
 20 21  1  0
 20 22  2  0
 12 23  1  0
 23 24  1  0
  8  3  1  0
 24  9  1  0
 22 16  1  0
  4 25  1  0
  5 26  1  0
  6 27  1  0
  7 28  1  0
 10 29  1  0
 10 30  1  0
 11 31  1  0
 11 32  1  0
 12 33  1  0
 13 34  1  0
 13 35  1  0
 14 36  1  0
 14 37  1  0
 17 38  1  0
 18 39  1  0
 19 40  1  0
 22 41  1  0
 23 42  1  0
 23 43  1  0
 24 44  1  0
 24 45  1  0
M  END
$$$$
