
     RDKit          3D

 26 26  0  0  0  0  0  0  0  0999 V2000
    3.2563   -1.5102    0.1329 N   0  0  0  0  0  0  0  0  0  0  0  0
    1.9536   -0.9671   -0.3161 C   0  0  0  0  0  0  0  0  0  0  0  0
    1.0648   -0.6223    0.8922 C   0  0  0  0  0  0  0  0  0  0  0  0
   -0.3141   -0.1302    0.5152 C   0  0  0  0  0  0  0  0  0  0  0  0
   -1.3054   -1.0747    0.1905 C   0  0  0  0  0  0  0  0  0  0  0  0
   -2.5990   -0.6606   -0.1303 C   0  0  0  0  0  0  0  0  0  0  0  0
   -3.5618   -1.5791   -0.4415 O   0  0  0  0  0  0  0  0  0  0  0  0
   -2.9231    0.6943   -0.1303 C   0  0  0  0  0  0  0  0  0  0  0  0
   -4.1967    1.0811   -0.4403 O   0  0  0  0  0  0  0  0  0  0  0  0
   -1.9542    1.6430    0.1801 C   0  0  0  0  0  0  0  0  0  0  0  0
   -0.6579    1.2293    0.4879 C   0  0  0  0  0  0  0  0  0  0  0  0
    0.2348    2.2285    0.7580 O   0  0  0  0  0  0  0  0  0  0  0  0
    2.2090    0.2441   -1.2169 C   0  0  0  0  0  0  0  0  0  0  0  0
    2.1883    0.2649   -2.4366 O   0  0  0  0  0  0  0  0  0  0  0  0
    2.5539    1.3615   -0.5303 O   0  0  0  0  0  0  0  0  0  0  0  0
    3.7426   -0.8026    0.6856 H   0  0  0  0  0  0  0  0  0  0  0  0
    3.1028   -2.3037    0.7534 H   0  0  0  0  0  0  0  0  0  0  0  0
    1.4572   -1.7259   -0.9327 H   0  0  0  0  0  0  0  0  0  0  0  0
    0.9424   -1.5183    1.5175 H   0  0  0  0  0  0  0  0  0  0  0  0
    1.5565    0.1042    1.5514 H   0  0  0  0  0  0  0  0  0  0  0  0
   -1.0638   -2.1343    0.2017 H   0  0  0  0  0  0  0  0  0  0  0  0
   -3.1773   -2.4681   -0.4247 H   0  0  0  0  0  0  0  0  0  0  0  0
   -4.2525    2.0477   -0.3898 H   0  0  0  0  0  0  0  0  0  0  0  0
   -2.1852    2.7032    0.1802 H   0  0  0  0  0  0  0  0  0  0  0  0
    1.1438    1.9118    0.6011 H   0  0  0  0  0  0  0  0  0  0  0  0
    2.7848    1.9833   -1.2583 H   0  0  0  0  0  0  0  0  0  0  0  0
  1  2  1  0
  2  3  1  0
  3  4  1  0
  4  5  2  0
  5  6  1  0
  6  7  1  0
  6  8  2  0
  8  9  1  0
  8 10  1  0
 10 11  2  0
 11 12  1  0
  2 13  1  0
 13 14  2  0
 13 15  1  0
 11  4  1  0
  1 16  1  0
  1 17  1  0
  2 18  1  0
  3 19  1  0
  3 20  1  0
  5 21  1  0
  7 22  1  0
  9 23  1  0
 10 24  1  0
 12 25  1  0
 15 26  1  0
M  END
$$$$
