
     RDKit          3D

 43 45  0  0  0  0  0  0  0  0999 V2000
   -0.5901    1.3992   -0.6200 O   0  0  0  0  0  0  0  0  0  0  0  0
   -0.4809    0.2469   -0.2082 C   0  0  0  0  0  0  0  0  0  0  0  0
   -1.5797   -0.5455    0.0914 N   0  0  0  0  0  0  0  0  0  0  0  0
   -2.9355   -0.0986   -0.2167 C   0  0  0  0  0  0  0  0  0  0  0  0
   -3.9623   -0.7913    0.6929 C   0  0  0  0  0  0  0  0  0  0  0  0
   -5.2309   -1.1992   -0.0554 C   0  0  0  0  0  0  0  0  0  0  0  0
   -5.6818   -0.1550   -0.9671 N   0  0  0  0  0  0  0  0  0  0  0  0
   -4.6887    0.1627   -1.9995 C   0  0  0  0  0  0  0  0  0  0  0  0
   -3.2678   -0.3155   -1.6936 C   0  0  0  0  0  0  0  0  0  0  0  0
    0.8786   -0.4414    0.0698 C   0  0  2  0  0  0  0  0  0  0  0  0
    1.1089   -0.6354    1.5993 C   0  0  0  0  0  0  0  0  0  0  0  0
    1.9930    0.4554    2.2638 C   0  0  0  0  0  0  0  0  0  0  0  0
    3.0955    0.9820    1.3204 C   0  0  2  0  0  0  0  0  0  0  0  0
    2.3862    1.4888    0.0745 C   0  0  0  0  0  0  0  0  0  0  0  0
    2.0291    0.2227   -0.5625 N   0  0  0  0  0  0  0  0  0  0  0  0
    3.2239   -0.5571   -0.4261 C   0  0  0  0  0  0  0  0  0  0  0  0
    3.6548   -1.3873   -1.2102 O   0  0  0  0  0  0  0  0  0  0  0  0
    3.8250   -0.1447    0.7615 N   0  0  0  0  0  0  0  0  0  0  0  0
    5.2101   -0.2226    0.9880 O   0  0  0  0  0  0  0  0  0  0  0  0
    6.2126    0.0911   -0.2810 S   0  0  0  0  0  6  0  0  0  0  0  0
    5.6084    1.1258   -1.0961 O   0  0  0  0  0  0  0  0  0  0  0  0
    7.5485    0.2572    0.2498 O   0  0  0  0  0  0  0  0  0  0  0  0
    6.1957   -1.2769   -1.1393 O   0  0  0  0  0  0  0  0  0  0  0  0
   -1.4300   -1.5443    0.1712 H   0  0  0  0  0  0  0  0  0  0  0  0
   -2.9765    0.9807   -0.0155 H   0  0  0  0  0  0  0  0  0  0  0  0
   -3.5363   -1.6834    1.1694 H   0  0  0  0  0  0  0  0  0  0  0  0
   -4.2214   -0.1056    1.5108 H   0  0  0  0  0  0  0  0  0  0  0  0
   -6.0250   -1.4184    0.6663 H   0  0  0  0  0  0  0  0  0  0  0  0
   -5.0635   -2.1290   -0.6129 H   0  0  0  0  0  0  0  0  0  0  0  0
   -5.8990    0.6921   -0.4397 H   0  0  0  0  0  0  0  0  0  0  0  0
   -5.0145   -0.2731   -2.9504 H   0  0  0  0  0  0  0  0  0  0  0  0
   -4.6825    1.2492   -2.1459 H   0  0  0  0  0  0  0  0  0  0  0  0
   -3.1683   -1.3806   -1.9436 H   0  0  0  0  0  0  0  0  0  0  0  0
   -2.5559    0.2146   -2.3383 H   0  0  0  0  0  0  0  0  0  0  0  0
    0.8075   -1.4369   -0.3921 H   0  0  0  0  0  0  0  0  0  0  0  0
    1.6245   -1.5962    1.7351 H   0  0  0  0  0  0  0  0  0  0  0  0
    0.1662   -0.7261    2.1492 H   0  0  0  0  0  0  0  0  0  0  0  0
    2.4435    0.0400    3.1731 H   0  0  0  0  0  0  0  0  0  0  0  0
    1.3549    1.2922    2.5743 H   0  0  0  0  0  0  0  0  0  0  0  0
    3.7517    1.7165    1.7939 H   0  0  0  0  0  0  0  0  0  0  0  0
    1.5300    2.1375    0.2700 H   0  0  0  0  0  0  0  0  0  0  0  0
    3.0789    2.0179   -0.5911 H   0  0  0  0  0  0  0  0  0  0  0  0
    5.2635   -1.4615   -1.4194 H   0  0  0  0  0  0  0  0  0  0  0  0
  1  2  2  0
  2  3  1  0
  3  4  1  0
  4  5  1  0
  5  6  1  0
  6  7  1  0
  7  8  1  0
  8  9  1  0
  2 10  1  0
 10 11  1  0
 11 12  1  0
 12 13  1  0
 13 14  1  0
 14 15  1  0
 15 16  1  0
 16 17  2  0
 16 18  1  0
 18 19  1  0
 19 20  1  0
 20 21  2  0
 20 22  2  0
 20 23  1  0
  9  4  1  0
 15 10  1  0
 18 13  1  0
  3 24  1  0
  4 25  1  0
  5 26  1  0
  5 27  1  0
  6 28  1  0
  6 29  1  0
  7 30  1  0
  8 31  1  0
  8 32  1  0
  9 33  1  0
  9 34  1  0
 10 35  1  6
 11 36  1  0
 11 37  1  0
 12 38  1  0
 12 39  1  0
 13 40  1  1
 14 41  1  0
 14 42  1  0
 23 43  1  0
M  END
$$$$
