
     RDKit          3D

 49 53  0  0  0  0  0  0  0  0999 V2000
   -5.7385    1.3889    1.7734 C   0  0  0  0  0  0  0  0  0  0  0  0
   -5.3575    2.5059    1.0364 C   0  0  0  0  0  0  0  0  0  0  0  0
   -4.0776    2.5712    0.4781 C   0  0  0  0  0  0  0  0  0  0  0  0
   -3.1570    1.5224    0.6437 C   0  0  0  0  0  0  0  0  0  0  0  0
   -1.8238    1.6113    0.0424 C   0  0  0  0  0  0  0  0  0  0  0  0
   -1.3612    2.8892   -0.1193 O   0  0  0  0  0  0  0  0  0  0  0  0
   -0.1352    2.8264   -0.7005 C   0  0  0  0  0  0  0  0  0  0  0  0
    0.5710    3.9239   -0.9977 N   0  0  0  0  0  0  0  0  0  0  0  0
    1.7250    3.6060   -1.5901 C   0  0  0  0  0  0  0  0  0  0  0  0
    2.1871    2.3807   -1.8948 N   0  0  0  0  0  0  0  0  0  0  0  0
    1.4546    1.2886   -1.5638 C   0  0  0  0  0  0  0  0  0  0  0  0
    1.9101    0.0173   -1.9111 N   0  0  0  0  0  0  0  0  0  0  0  0
    3.3588   -0.1764   -1.9900 C   0  0  0  0  0  0  0  0  0  0  0  0
    4.0074   -0.5716   -0.6514 C   0  0  2  0  0  0  0  0  0  0  0  0
    3.5833   -1.9280   -0.1075 C   0  0  0  0  0  0  0  0  0  0  0  0
    3.9159   -1.7837    1.3571 C   0  0  0  0  0  0  0  0  0  0  0  0
    3.5587   -0.3372    1.6258 C   0  0  0  0  0  0  0  0  0  0  0  0
    3.7531    0.3785    0.3998 O   0  0  0  0  0  0  0  0  0  0  0  0
    0.2186    1.5064   -0.9292 C   0  0  0  0  0  0  0  0  0  0  0  0
   -0.8663    0.7206   -0.4256 C   0  0  0  0  0  0  0  0  0  0  0  0
   -1.0125   -0.7185   -0.4275 C   0  0  0  0  0  0  0  0  0  0  0  0
   -1.7458   -1.3515   -1.4354 C   0  0  0  0  0  0  0  0  0  0  0  0
   -1.8639   -2.7421   -1.4419 C   0  0  0  0  0  0  0  0  0  0  0  0
   -1.2497   -3.5011   -0.4454 C   0  0  0  0  0  0  0  0  0  0  0  0
   -0.5157   -2.8729    0.5603 C   0  0  0  0  0  0  0  0  0  0  0  0
   -0.3942   -1.4829    0.5692 C   0  0  0  0  0  0  0  0  0  0  0  0
   -3.5588    0.4092    1.3945 C   0  0  0  0  0  0  0  0  0  0  0  0
   -4.8395    0.3414    1.9538 C   0  0  0  0  0  0  0  0  0  0  0  0
   -6.7326    1.3364    2.2092 H   0  0  0  0  0  0  0  0  0  0  0  0
   -6.0525    3.3293    0.8940 H   0  0  0  0  0  0  0  0  0  0  0  0
   -3.8038    3.4550   -0.0958 H   0  0  0  0  0  0  0  0  0  0  0  0
    2.3674    4.4364   -1.8661 H   0  0  0  0  0  0  0  0  0  0  0  0
    1.3966   -0.7250   -1.4535 H   0  0  0  0  0  0  0  0  0  0  0  0
    3.8603    0.7116   -2.3920 H   0  0  0  0  0  0  0  0  0  0  0  0
    3.5453   -0.9785   -2.7141 H   0  0  0  0  0  0  0  0  0  0  0  0
    5.0956   -0.5811   -0.7982 H   0  0  0  0  0  0  0  0  0  0  0  0
    4.1076   -2.7585   -0.5885 H   0  0  0  0  0  0  0  0  0  0  0  0
    2.5083   -2.0947   -0.2211 H   0  0  0  0  0  0  0  0  0  0  0  0
    3.3766   -2.4829    2.0014 H   0  0  0  0  0  0  0  0  0  0  0  0
    4.9907   -1.9373    1.5101 H   0  0  0  0  0  0  0  0  0  0  0  0
    2.5063   -0.2339    1.9083 H   0  0  0  0  0  0  0  0  0  0  0  0
    4.1742    0.1063    2.4134 H   0  0  0  0  0  0  0  0  0  0  0  0
   -2.2261   -0.7693   -2.2190 H   0  0  0  0  0  0  0  0  0  0  0  0
   -2.4361   -3.2333   -2.2252 H   0  0  0  0  0  0  0  0  0  0  0  0
   -1.3462   -4.5842   -0.4527 H   0  0  0  0  0  0  0  0  0  0  0  0
   -0.0409   -3.4661    1.3377 H   0  0  0  0  0  0  0  0  0  0  0  0
    0.1763   -0.9997    1.3590 H   0  0  0  0  0  0  0  0  0  0  0  0
   -2.8827   -0.4213    1.5712 H   0  0  0  0  0  0  0  0  0  0  0  0
   -5.1309   -0.5308    2.5334 H   0  0  0  0  0  0  0  0  0  0  0  0
  1  2  2  0
  2  3  1  0
  3  4  2  0
  4  5  1  0
  5  6  1  0
  6  7  1  0
  7  8  2  0
  8  9  1  0
  9 10  2  0
 10 11  1  0
 11 12  1  0
 12 13  1  0
 13 14  1  0
 14 15  1  0
 15 16  1  0
 16 17  1  0
 17 18  1  0
 11 19  2  0
 19 20  1  0
 20 21  1  0
 21 22  2  0
 22 23  1  0
 23 24  2  0
 24 25  1  0
 25 26  2  0
  4 27  1  0
 27 28  2  0
 28  1  1  0
 20  5  2  0
 26 21  1  0
 19  7  1  0
 18 14  1  0
  1 29  1  0
  2 30  1  0
  3 31  1  0
  9 32  1  0
 12 33  1  0
 13 34  1  0
 13 35  1  0
 14 36  1  6
 15 37  1  0
 15 38  1  0
 16 39  1  0
 16 40  1  0
 17 41  1  0
 17 42  1  0
 22 43  1  0
 23 44  1  0
 24 45  1  0
 25 46  1  0
 26 47  1  0
 27 48  1  0
 28 49  1  0
M  END
$$$$
