
     RDKit          3D

 61 63  0  0  0  0  0  0  0  0999 V2000
   -3.6946   -2.0473    2.0804 O   0  0  0  0  0  0  0  0  0  0  0  0
   -3.2281   -1.2169    1.3178 C   0  0  0  0  0  0  0  0  0  0  0  0
   -4.0014   -0.2316    0.5363 C   0  0  0  0  0  0  0  0  0  0  0  0
   -5.3456   -0.2645    0.5608 C   0  0  0  0  0  0  0  0  0  0  0  0
   -6.2024    0.6906   -0.1557 C   0  0  0  0  0  0  0  0  0  0  0  0
   -7.4378    1.0409    0.4196 C   0  0  0  0  0  0  0  0  0  0  0  0
   -8.3049    1.9247   -0.2267 C   0  0  0  0  0  0  0  0  0  0  0  0
   -7.9357    2.4540   -1.4537 C   0  0  0  0  0  0  0  0  0  0  0  0
   -8.7792    3.3209   -2.0864 O   0  0  0  0  0  0  0  0  0  0  0  0
   -6.7212    2.1077   -2.0430 C   0  0  0  0  0  0  0  0  0  0  0  0
   -6.4273    2.6605   -3.2592 O   0  0  0  0  0  0  0  0  0  0  0  0
   -5.8534    1.2232   -1.4083 C   0  0  0  0  0  0  0  0  0  0  0  0
   -1.9202   -1.0427    1.0168 O   0  0  0  0  0  0  0  0  0  0  0  0
   -0.9789   -1.8743    1.7290 C   0  0  0  0  0  0  0  0  0  0  0  0
   -0.8846   -3.2581    1.0807 C   0  0  0  0  0  0  0  0  0  0  0  0
   -0.2633   -3.2464   -0.3226 C   0  0  0  0  0  0  0  0  0  0  0  0
    0.1042   -4.6061   -0.6250 O   0  0  0  0  0  0  0  0  0  0  0  0
   -1.2827   -2.7753   -1.3815 C   0  0  0  0  0  0  0  0  0  0  0  0
   -1.4685   -1.6472   -1.7919 O   0  0  0  0  0  0  0  0  0  0  0  0
   -2.0295   -3.8144   -1.8554 O   0  0  0  0  0  0  0  0  0  0  0  0
    1.0272   -2.4247   -0.3901 C   0  0  0  0  0  0  0  0  0  0  0  0
    0.9055   -1.0413    0.2518 C   0  0  0  0  0  0  0  0  0  0  0  0
    2.2223   -0.4467    0.2376 O   0  0  0  0  0  0  0  0  0  0  0  0
    2.2455    0.9109    0.2579 C   0  0  0  0  0  0  0  0  0  0  0  0
    1.2633    1.6415    0.2841 O   0  0  0  0  0  0  0  0  0  0  0  0
    3.6183    1.4509    0.2292 C   0  0  0  0  0  0  0  0  0  0  0  0
    4.7339    0.7033    0.1913 C   0  0  0  0  0  0  0  0  0  0  0  0
    6.0993    1.2557    0.1586 C   0  0  0  0  0  0  0  0  0  0  0  0
    6.3974    2.5053   -0.4171 C   0  0  0  0  0  0  0  0  0  0  0  0
    7.7092    2.9966   -0.4427 C   0  0  0  0  0  0  0  0  0  0  0  0
    8.7306    2.2260    0.0963 C   0  0  0  0  0  0  0  0  0  0  0  0
   10.0302    2.6509    0.1074 O   0  0  0  0  0  0  0  0  0  0  0  0
    8.4510    0.9783    0.6465 C   0  0  0  0  0  0  0  0  0  0  0  0
    9.4673    0.2195    1.1641 O   0  0  0  0  0  0  0  0  0  0  0  0
    7.1505    0.4872    0.6793 C   0  0  0  0  0  0  0  0  0  0  0  0
    0.3877   -1.1680    1.6994 C   0  0  0  0  0  0  0  0  0  0  0  0
    0.2729    0.1038    2.3460 O   0  0  0  0  0  0  0  0  0  0  0  0
   -3.4311    0.5080   -0.0197 H   0  0  0  0  0  0  0  0  0  0  0  0
   -5.8679   -1.0157    1.1598 H   0  0  0  0  0  0  0  0  0  0  0  0
   -7.7311    0.6368    1.3861 H   0  0  0  0  0  0  0  0  0  0  0  0
   -9.2561    2.1971    0.2235 H   0  0  0  0  0  0  0  0  0  0  0  0
   -8.3026    3.5696   -2.9079 H   0  0  0  0  0  0  0  0  0  0  0  0
   -5.5435    2.3438   -3.5357 H   0  0  0  0  0  0  0  0  0  0  0  0
   -4.9193    0.9408   -1.8850 H   0  0  0  0  0  0  0  0  0  0  0  0
   -1.3049   -1.9608    2.7733 H   0  0  0  0  0  0  0  0  0  0  0  0
   -0.2834   -3.9072    1.7312 H   0  0  0  0  0  0  0  0  0  0  0  0
   -1.8768   -3.7235    1.0313 H   0  0  0  0  0  0  0  0  0  0  0  0
   -0.6522   -5.0033   -1.1063 H   0  0  0  0  0  0  0  0  0  0  0  0
   -2.6409   -3.4079   -2.5056 H   0  0  0  0  0  0  0  0  0  0  0  0
    1.8444   -2.9766    0.0957 H   0  0  0  0  0  0  0  0  0  0  0  0
    1.3598   -2.3174   -1.4316 H   0  0  0  0  0  0  0  0  0  0  0  0
    0.2327   -0.4206   -0.3507 H   0  0  0  0  0  0  0  0  0  0  0  0
    3.6496    2.5364    0.2509 H   0  0  0  0  0  0  0  0  0  0  0  0
    4.6719   -0.3848    0.1998 H   0  0  0  0  0  0  0  0  0  0  0  0
    5.6114    3.1161   -0.8599 H   0  0  0  0  0  0  0  0  0  0  0  0
    7.9032    3.9701   -0.8843 H   0  0  0  0  0  0  0  0  0  0  0  0
   10.0584    3.5383   -0.2886 H   0  0  0  0  0  0  0  0  0  0  0  0
   10.2707    0.7635    1.0316 H   0  0  0  0  0  0  0  0  0  0  0  0
    6.9679   -0.4868    1.1215 H   0  0  0  0  0  0  0  0  0  0  0  0
    1.1110   -1.7402    2.2930 H   0  0  0  0  0  0  0  0  0  0  0  0
    0.0717    0.7774    1.6673 H   0  0  0  0  0  0  0  0  0  0  0  0
  1  2  2  0
  2  3  1  0
  3  4  2  0
  4  5  1  0
  5  6  2  0
  6  7  1  0
  7  8  2  0
  8  9  1  0
  8 10  1  0
 10 11  1  0
 10 12  2  0
  2 13  1  0
 13 14  1  0
 14 15  1  0
 15 16  1  0
 16 17  1  0
 16 18  1  0
 18 19  2  0
 18 20  1  0
 16 21  1  0
 21 22  1  0
 22 23  1  0
 23 24  1  0
 24 25  2  0
 24 26  1  0
 26 27  2  0
 27 28  1  0
 28 29  2  0
 29 30  1  0
 30 31  2  0
 31 32  1  0
 31 33  1  0
 33 34  1  0
 33 35  2  0
 22 36  1  0
 36 37  1  0
 12  5  1  0
 36 14  1  0
 35 28  1  0
  3 38  1  0
  4 39  1  0
  6 40  1  0
  7 41  1  0
  9 42  1  0
 11 43  1  0
 12 44  1  0
 14 45  1  0
 15 46  1  0
 15 47  1  0
 17 48  1  0
 20 49  1  0
 21 50  1  0
 21 51  1  0
 22 52  1  0
 26 53  1  0
 27 54  1  0
 29 55  1  0
 30 56  1  0
 32 57  1  0
 34 58  1  0
 35 59  1  0
 36 60  1  0
 37 61  1  0
M  END
$$$$
