
     RDKit          3D

 30 32  0  0  0  0  0  0  0  0999 V2000
   -3.2821    2.5821   -1.1393 O   0  0  0  0  0  0  0  0  0  0  0  0
   -2.1809    2.4702   -0.6387 C   0  0  0  0  0  0  0  0  0  0  0  0
   -1.4472    3.5583   -0.3367 O   0  0  0  0  0  0  0  0  0  0  0  0
   -1.4807    1.2129   -0.2689 C   0  0  0  0  0  0  0  0  0  0  0  0
   -0.0807    1.2130   -0.2961 C   0  0  0  0  0  0  0  0  0  0  0  0
    0.5998    0.0500    0.0186 C   0  0  0  0  0  0  0  0  0  0  0  0
    2.0750   -0.0495    0.0213 C   0  0  0  0  0  0  0  0  0  0  0  0
    2.8997    1.0417    0.3564 C   0  0  0  0  0  0  0  0  0  0  0  0
    4.2955    0.9299    0.3509 C   0  0  0  0  0  0  0  0  0  0  0  0
    4.8914   -0.2810    0.0130 C   0  0  0  0  0  0  0  0  0  0  0  0
    6.7748   -0.4331    0.0057 Br  0  0  0  0  0  0  0  0  0  0  0  0
    4.1062   -1.3806   -0.3146 C   0  0  0  0  0  0  0  0  0  0  0  0
    2.7121   -1.2625   -0.3066 C   0  0  0  0  0  0  0  0  0  0  0  0
   -0.0651   -1.0862    0.3332 N   0  0  0  0  0  0  0  0  0  0  0  0
   -1.4053   -1.0950    0.3649 C   0  0  0  0  0  0  0  0  0  0  0  0
   -2.0285   -2.2875    0.7086 C   0  0  0  0  0  0  0  0  0  0  0  0
   -3.4176   -2.4033    0.7811 C   0  0  0  0  0  0  0  0  0  0  0  0
   -4.2041   -1.2973    0.5047 C   0  0  0  0  0  0  0  0  0  0  0  0
   -5.9164   -1.4181    0.5972 Cl  0  0  0  0  0  0  0  0  0  0  0  0
   -3.6065   -0.0879    0.1557 C   0  0  0  0  0  0  0  0  0  0  0  0
   -2.1926    0.0366    0.0730 C   0  0  0  0  0  0  0  0  0  0  0  0
   -2.0169    4.3104   -0.6065 H   0  0  0  0  0  0  0  0  0  0  0  0
    0.4621    2.1074   -0.5846 H   0  0  0  0  0  0  0  0  0  0  0  0
    2.4663    1.9963    0.6478 H   0  0  0  0  0  0  0  0  0  0  0  0
    4.9029    1.7908    0.6179 H   0  0  0  0  0  0  0  0  0  0  0  0
    4.5604   -2.3329   -0.5746 H   0  0  0  0  0  0  0  0  0  0  0  0
    2.1128   -2.1356   -0.5633 H   0  0  0  0  0  0  0  0  0  0  0  0
   -1.4119   -3.1566    0.9313 H   0  0  0  0  0  0  0  0  0  0  0  0
   -3.8679   -3.3535    1.0551 H   0  0  0  0  0  0  0  0  0  0  0  0
   -4.2544    0.7608   -0.0503 H   0  0  0  0  0  0  0  0  0  0  0  0
  1  2  2  0
  2  3  1  0
  2  4  1  0
  4  5  2  0
  5  6  1  0
  6  7  1  0
  7  8  2  0
  8  9  1  0
  9 10  2  0
 10 11  1  0
 10 12  1  0
 12 13  2  0
  6 14  2  0
 14 15  1  0
 15 16  2  0
 16 17  1  0
 17 18  2  0
 18 19  1  0
 18 20  1  0
 20 21  2  0
 21  4  1  0
 13  7  1  0
 21 15  1  0
  3 22  1  0
  5 23  1  0
  8 24  1  0
  9 25  1  0
 12 26  1  0
 13 27  1  0
 16 28  1  0
 17 29  1  0
 20 30  1  0
M  END
$$$$
