
     RDKit          3D

 50 53  0  0  0  0  0  0  0  0999 V2000
   -4.4197   -1.9887    1.1907 C   0  0  0  0  0  0  0  0  0  0  0  0
   -3.6582   -0.9127    0.6558 O   0  0  0  0  0  0  0  0  0  0  0  0
   -4.3478    0.2255    0.3326 C   0  0  0  0  0  0  0  0  0  0  0  0
   -5.7147    0.2505    0.0328 C   0  0  0  0  0  0  0  0  0  0  0  0
   -6.3493    1.4556   -0.2896 C   0  0  0  0  0  0  0  0  0  0  0  0
   -5.6283    2.6480   -0.3155 C   0  0  0  0  0  0  0  0  0  0  0  0
   -4.2649    2.6368   -0.0313 C   0  0  0  0  0  0  0  0  0  0  0  0
   -3.6229    1.4270    0.2693 C   0  0  0  0  0  0  0  0  0  0  0  0
   -2.1805    1.4905    0.5915 C   0  0  0  0  0  0  0  0  0  0  0  0
   -1.8518    2.1862    1.5512 O   0  0  0  0  0  0  0  0  0  0  0  0
   -1.2688    0.8032   -0.2070 N   0  0  0  0  0  0  0  0  0  0  0  0
   -1.5742    0.3123   -1.5694 C   0  0  0  0  0  0  0  0  0  0  0  0
   -0.9941   -1.0945   -1.8290 C   0  0  0  0  0  0  0  0  0  0  0  0
    0.4020   -1.1156   -1.3296 C   0  0  0  0  0  0  0  0  0  0  0  0
    0.9241   -0.2137   -0.4265 C   0  0  0  0  0  0  0  0  0  0  0  0
    2.2698   -0.6138   -0.2674 C   0  0  0  0  0  0  0  0  0  0  0  0
    3.3308    0.1021    0.6324 C   0  0  0  0  0  0  0  0  0  0  0  0
    3.0837    1.1882    1.3390 N   0  0  0  0  0  0  0  0  0  0  0  0
    4.2370    1.5407    1.9969 N   0  0  0  0  0  0  0  0  0  0  0  0
    5.1607    0.6644    1.6777 C   0  0  0  0  0  0  0  0  0  0  0  0
    6.7953    0.6647    2.2436 S   0  0  0  0  0  0  0  0  0  0  0  0
    6.7488    2.0640    3.3867 C   0  0  0  0  0  0  0  0  0  0  0  0
    4.6431   -0.2636    0.8183 N   0  0  0  0  0  0  0  0  0  0  0  0
    5.2928   -1.3965    0.2146 C   0  0  0  0  0  0  0  0  0  0  0  0
    2.5553   -1.7015   -1.0036 N   0  0  0  0  0  0  0  0  0  0  0  0
    1.3953   -1.9932   -1.6275 N   0  0  0  0  0  0  0  0  0  0  0  0
    1.3218   -3.1291   -2.5144 C   0  0  0  0  0  0  0  0  0  0  0  0
    0.1562    0.9144    0.1717 C   0  0  0  0  0  0  0  0  0  0  0  0
   -5.0735   -1.6558    2.0041 H   0  0  0  0  0  0  0  0  0  0  0  0
   -3.7189   -2.7206    1.6037 H   0  0  0  0  0  0  0  0  0  0  0  0
   -4.9931   -2.4865    0.4022 H   0  0  0  0  0  0  0  0  0  0  0  0
   -6.3142   -0.6543    0.0369 H   0  0  0  0  0  0  0  0  0  0  0  0
   -7.4136    1.4631   -0.5138 H   0  0  0  0  0  0  0  0  0  0  0  0
   -6.1279    3.5845   -0.5503 H   0  0  0  0  0  0  0  0  0  0  0  0
   -3.6991    3.5660   -0.0343 H   0  0  0  0  0  0  0  0  0  0  0  0
   -2.6459    0.3085   -1.7772 H   0  0  0  0  0  0  0  0  0  0  0  0
   -1.1280    1.0374   -2.2630 H   0  0  0  0  0  0  0  0  0  0  0  0
   -1.5814   -1.8428   -1.2846 H   0  0  0  0  0  0  0  0  0  0  0  0
   -1.0460   -1.3281   -2.8971 H   0  0  0  0  0  0  0  0  0  0  0  0
    6.0216    1.8872    4.1839 H   0  0  0  0  0  0  0  0  0  0  0  0
    6.4942    2.9864    2.8573 H   0  0  0  0  0  0  0  0  0  0  0  0
    7.7355    2.1897    3.8406 H   0  0  0  0  0  0  0  0  0  0  0  0
    6.3306   -1.4758    0.5408 H   0  0  0  0  0  0  0  0  0  0  0  0
    5.2758   -1.2719   -0.8713 H   0  0  0  0  0  0  0  0  0  0  0  0
    4.7636   -2.3050    0.5139 H   0  0  0  0  0  0  0  0  0  0  0  0
    1.2044   -2.7580   -3.5357 H   0  0  0  0  0  0  0  0  0  0  0  0
    2.2401   -3.7168   -2.4329 H   0  0  0  0  0  0  0  0  0  0  0  0
    0.4638   -3.7411   -2.2252 H   0  0  0  0  0  0  0  0  0  0  0  0
    0.2459    0.9096    1.2630 H   0  0  0  0  0  0  0  0  0  0  0  0
    0.5248    1.8732   -0.2095 H   0  0  0  0  0  0  0  0  0  0  0  0
  1  2  1  0
  2  3  1  0
  3  4  2  0
  4  5  1  0
  5  6  2  0
  6  7  1  0
  7  8  2  0
  8  9  1  0
  9 10  2  0
  9 11  1  0
 11 12  1  0
 12 13  1  0
 13 14  1  0
 14 15  2  0
 15 16  1  0
 16 17  1  0
 17 18  2  0
 18 19  1  0
 19 20  2  0
 20 21  1  0
 21 22  1  0
 20 23  1  0
 23 24  1  0
 16 25  2  0
 25 26  1  0
 26 27  1  0
 15 28  1  0
  8  3  1  0
 28 11  1  0
 26 14  1  0
 23 17  1  0
  1 29  1  0
  1 30  1  0
  1 31  1  0
  4 32  1  0
  5 33  1  0
  6 34  1  0
  7 35  1  0
 12 36  1  0
 12 37  1  0
 13 38  1  0
 13 39  1  0
 22 40  1  0
 22 41  1  0
 22 42  1  0
 24 43  1  0
 24 44  1  0
 24 45  1  0
 27 46  1  0
 27 47  1  0
 27 48  1  0
 28 49  1  0
 28 50  1  0
M  END
$$$$
