
     RDKit          3D

 46 47  0  0  0  0  0  0  0  0999 V2000
    6.6299    1.1408    0.3067 C   0  0  0  0  0  0  0  0  0  0  0  0
    5.3587    1.6673    0.9617 C   0  0  0  0  0  0  0  0  0  0  0  0
    5.0951    3.1099    0.5459 C   0  0  0  0  0  0  0  0  0  0  0  0
    4.2748    0.8321    0.5124 O   0  0  0  0  0  0  0  0  0  0  0  0
    3.1764    0.7717    1.3268 C   0  0  0  0  0  0  0  0  0  0  0  0
    3.0787    1.3834    2.3838 O   0  0  0  0  0  0  0  0  0  0  0  0
    2.0902   -0.1443    0.7152 C   0  0  0  0  0  0  0  0  0  0  0  0
    2.6929   -1.5369    0.4920 C   0  0  0  0  0  0  0  0  0  0  0  0
    1.6377    0.4939   -0.6080 C   0  0  0  0  0  0  0  0  0  0  0  0
    1.0488   -0.2041    1.7202 O   0  0  0  0  0  0  0  0  0  0  0  0
   -0.1837   -0.6252    1.3182 C   0  0  0  0  0  0  0  0  0  0  0  0
   -0.4956   -1.9811    1.2739 C   0  0  0  0  0  0  0  0  0  0  0  0
   -1.7835   -2.3844    0.9146 C   0  0  0  0  0  0  0  0  0  0  0  0
   -2.7633   -1.4290    0.6163 C   0  0  0  0  0  0  0  0  0  0  0  0
   -4.1242   -1.9013    0.2537 C   0  0  0  0  0  0  0  0  0  0  0  0
   -4.5500   -2.9443    0.7427 O   0  0  0  0  0  0  0  0  0  0  0  0
   -4.9859   -1.1464   -0.6906 C   0  0  0  0  0  0  0  0  0  0  0  0
   -4.4543   -0.4881   -1.8070 C   0  0  0  0  0  0  0  0  0  0  0  0
   -5.3034    0.1966   -2.6813 C   0  0  0  0  0  0  0  0  0  0  0  0
   -6.6785    0.2114   -2.4466 C   0  0  0  0  0  0  0  0  0  0  0  0
   -7.7185    1.0556   -3.5257 Cl  0  0  0  0  0  0  0  0  0  0  0  0
   -7.2159   -0.4592   -1.3490 C   0  0  0  0  0  0  0  0  0  0  0  0
   -6.3699   -1.1445   -0.4737 C   0  0  0  0  0  0  0  0  0  0  0  0
   -2.4605   -0.0662    0.7257 C   0  0  0  0  0  0  0  0  0  0  0  0
   -1.1703    0.3323    1.0832 C   0  0  0  0  0  0  0  0  0  0  0  0
    6.5464    1.1580   -0.7857 H   0  0  0  0  0  0  0  0  0  0  0  0
    7.5034    1.7299    0.6020 H   0  0  0  0  0  0  0  0  0  0  0  0
    6.8001    0.0970    0.5921 H   0  0  0  0  0  0  0  0  0  0  0  0
    5.4744    1.5959    2.0499 H   0  0  0  0  0  0  0  0  0  0  0  0
    4.9437    3.1836   -0.5368 H   0  0  0  0  0  0  0  0  0  0  0  0
    5.9267    3.7622    0.8297 H   0  0  0  0  0  0  0  0  0  0  0  0
    4.1829    3.4916    1.0156 H   0  0  0  0  0  0  0  0  0  0  0  0
    3.5939   -1.5035   -0.1298 H   0  0  0  0  0  0  0  0  0  0  0  0
    1.9845   -2.2048   -0.0077 H   0  0  0  0  0  0  0  0  0  0  0  0
    2.9584   -2.0025    1.4480 H   0  0  0  0  0  0  0  0  0  0  0  0
    2.4710    0.6080   -1.3100 H   0  0  0  0  0  0  0  0  0  0  0  0
    1.2104    1.4883   -0.4357 H   0  0  0  0  0  0  0  0  0  0  0  0
    0.8730   -0.1091   -1.1091 H   0  0  0  0  0  0  0  0  0  0  0  0
    0.2456   -2.7287    1.5398 H   0  0  0  0  0  0  0  0  0  0  0  0
   -2.0266   -3.4450    0.8831 H   0  0  0  0  0  0  0  0  0  0  0  0
   -3.3887   -0.5147   -2.0203 H   0  0  0  0  0  0  0  0  0  0  0  0
   -4.8892    0.7074   -3.5471 H   0  0  0  0  0  0  0  0  0  0  0  0
   -8.2883   -0.4586   -1.1718 H   0  0  0  0  0  0  0  0  0  0  0  0
   -6.7907   -1.6785    0.3767 H   0  0  0  0  0  0  0  0  0  0  0  0
   -3.2196    0.6951    0.5668 H   0  0  0  0  0  0  0  0  0  0  0  0
   -0.9373    1.3885    1.1931 H   0  0  0  0  0  0  0  0  0  0  0  0
  1  2  1  0
  2  3  1  0
  2  4  1  0
  4  5  1  0
  5  6  2  0
  5  7  1  0
  7  8  1  0
  7  9  1  0
  7 10  1  0
 10 11  1  0
 11 12  2  0
 12 13  1  0
 13 14  2  0
 14 15  1  0
 15 16  2  0
 15 17  1  0
 17 18  2  0
 18 19  1  0
 19 20  2  0
 20 21  1  0
 20 22  1  0
 22 23  2  0
 14 24  1  0
 24 25  2  0
 25 11  1  0
 23 17  1  0
  1 26  1  0
  1 27  1  0
  1 28  1  0
  2 29  1  0
  3 30  1  0
  3 31  1  0
  3 32  1  0
  8 33  1  0
  8 34  1  0
  8 35  1  0
  9 36  1  0
  9 37  1  0
  9 38  1  0
 12 39  1  0
 13 40  1  0
 18 41  1  0
 19 42  1  0
 22 43  1  0
 23 44  1  0
 24 45  1  0
 25 46  1  0
M  END
$$$$
