
     RDKit          3D

 61 62  0  0  0  0  0  0  0  0999 V2000
    8.4734   -0.6229   -1.7830 N   0  0  0  0  0  0  0  0  0  0  0  0
    7.7416   -1.7342   -1.1825 C   0  0  0  0  0  0  0  0  0  0  0  0
    8.1053   -1.9482    0.2885 C   0  0  0  0  0  0  0  0  0  0  0  0
    7.7461   -0.7870    1.2241 C   0  0  0  0  0  0  0  0  0  0  0  0
    6.3405   -0.3714    1.1822 N   0  0  0  0  0  0  0  0  0  0  0  0
    5.4363   -1.3767    1.7453 C   0  0  0  0  0  0  0  0  0  0  0  0
    3.9921   -0.8647    1.7796 C   0  0  0  0  0  0  0  0  0  0  0  0
    3.4292   -0.5714    0.3826 C   0  0  0  0  0  0  0  0  0  0  0  0
    1.9335   -0.2373    0.4004 C   0  0  0  0  0  0  0  0  0  0  0  0
    1.6746    0.9781    1.1684 N   0  0  0  0  0  0  0  0  0  0  0  0
    0.2496    1.2856    1.3013 C   0  0  0  0  0  0  0  0  0  0  0  0
   -0.3717    1.8569    0.0228 C   0  0  0  0  0  0  0  0  0  0  0  0
   -1.8340    2.2446    0.2318 C   0  0  0  0  0  0  0  0  0  0  0  0
   -2.6834    1.0829    0.4118 N   0  0  0  0  0  0  0  0  0  0  0  0
   -3.8683    1.1719    1.1180 C   0  0  0  0  0  0  0  0  0  0  0  0
   -4.2063    2.1803    1.7318 O   0  0  0  0  0  0  0  0  0  0  0  0
   -4.6970   -0.1034    1.1090 C   0  0  0  0  0  0  0  0  0  0  0  0
   -6.1011    0.1077    0.5800 C   0  0  0  0  0  0  0  0  0  0  0  0
   -7.1068    0.4125    1.5167 C   0  0  0  0  0  0  0  0  0  0  0  0
   -8.4192    0.6265    1.1123 C   0  0  0  0  0  0  0  0  0  0  0  0
   -8.7478    0.5474   -0.2371 C   0  0  0  0  0  0  0  0  0  0  0  0
   -7.7700    0.2614   -1.2009 C   0  0  0  0  0  0  0  0  0  0  0  0
   -8.1263    0.1989   -2.5584 C   0  0  0  0  0  0  0  0  0  0  0  0
   -7.1761   -0.0772   -3.5395 C   0  0  0  0  0  0  0  0  0  0  0  0
   -5.8554   -0.2950   -3.1743 C   0  0  0  0  0  0  0  0  0  0  0  0
   -5.4854   -0.2374   -1.8274 C   0  0  0  0  0  0  0  0  0  0  0  0
   -6.4247    0.0397   -0.8057 C   0  0  0  0  0  0  0  0  0  0  0  0
    8.1587    0.2434   -1.3465 H   0  0  0  0  0  0  0  0  0  0  0  0
    8.2038   -0.5423   -2.7619 H   0  0  0  0  0  0  0  0  0  0  0  0
    6.6649   -1.5707   -1.2983 H   0  0  0  0  0  0  0  0  0  0  0  0
    7.9868   -2.6461   -1.7377 H   0  0  0  0  0  0  0  0  0  0  0  0
    9.1853   -2.1331    0.3677 H   0  0  0  0  0  0  0  0  0  0  0  0
    7.6204   -2.8682    0.6373 H   0  0  0  0  0  0  0  0  0  0  0  0
    8.3587    0.0823    0.9571 H   0  0  0  0  0  0  0  0  0  0  0  0
    8.0301   -1.0468    2.2517 H   0  0  0  0  0  0  0  0  0  0  0  0
    6.2405    0.4907    1.7204 H   0  0  0  0  0  0  0  0  0  0  0  0
    5.4663   -2.2990    1.1546 H   0  0  0  0  0  0  0  0  0  0  0  0
    5.7403   -1.6241    2.7695 H   0  0  0  0  0  0  0  0  0  0  0  0
    3.3699   -1.6260    2.2670 H   0  0  0  0  0  0  0  0  0  0  0  0
    3.9383    0.0346    2.4059 H   0  0  0  0  0  0  0  0  0  0  0  0
    3.9823    0.2541   -0.0827 H   0  0  0  0  0  0  0  0  0  0  0  0
    3.5768   -1.4502   -0.2575 H   0  0  0  0  0  0  0  0  0  0  0  0
    1.3848   -1.0832    0.8316 H   0  0  0  0  0  0  0  0  0  0  0  0
    1.5975   -0.1157   -0.6351 H   0  0  0  0  0  0  0  0  0  0  0  0
    2.1716    1.7658    0.7534 H   0  0  0  0  0  0  0  0  0  0  0  0
   -0.2968    0.3985    1.6422 H   0  0  0  0  0  0  0  0  0  0  0  0
    0.1506    2.0283    2.1016 H   0  0  0  0  0  0  0  0  0  0  0  0
   -0.3008    1.1341   -0.7971 H   0  0  0  0  0  0  0  0  0  0  0  0
    0.1858    2.7501   -0.2828 H   0  0  0  0  0  0  0  0  0  0  0  0
   -1.9368    2.9229    1.0857 H   0  0  0  0  0  0  0  0  0  0  0  0
   -2.2073    2.7706   -0.6540 H   0  0  0  0  0  0  0  0  0  0  0  0
   -2.5859    0.3271   -0.2526 H   0  0  0  0  0  0  0  0  0  0  0  0
   -4.1941   -0.9032    0.5549 H   0  0  0  0  0  0  0  0  0  0  0  0
   -4.7354   -0.4678    2.1444 H   0  0  0  0  0  0  0  0  0  0  0  0
   -6.8633    0.4972    2.5750 H   0  0  0  0  0  0  0  0  0  0  0  0
   -9.1841    0.8630    1.8474 H   0  0  0  0  0  0  0  0  0  0  0  0
   -9.7801    0.7214   -0.5330 H   0  0  0  0  0  0  0  0  0  0  0  0
   -9.1567    0.3693   -2.8637 H   0  0  0  0  0  0  0  0  0  0  0  0
   -7.4696   -0.1193   -4.5848 H   0  0  0  0  0  0  0  0  0  0  0  0
   -5.1096   -0.5099   -3.9355 H   0  0  0  0  0  0  0  0  0  0  0  0
   -4.4416   -0.4153   -1.5933 H   0  0  0  0  0  0  0  0  0  0  0  0
  1  2  1  0
  2  3  1  0
  3  4  1  0
  4  5  1  0
  5  6  1  0
  6  7  1  0
  7  8  1  0
  8  9  1  0
  9 10  1  0
 10 11  1  0
 11 12  1  0
 12 13  1  0
 13 14  1  0
 14 15  1  0
 15 16  2  0
 15 17  1  0
 17 18  1  0
 18 19  2  0
 19 20  1  0
 20 21  2  0
 21 22  1  0
 22 23  2  0
 23 24  1  0
 24 25  2  0
 25 26  1  0
 26 27  2  0
 27 18  1  0
 27 22  1  0
  1 28  1  0
  1 29  1  0
  2 30  1  0
  2 31  1  0
  3 32  1  0
  3 33  1  0
  4 34  1  0
  4 35  1  0
  5 36  1  0
  6 37  1  0
  6 38  1  0
  7 39  1  0
  7 40  1  0
  8 41  1  0
  8 42  1  0
  9 43  1  0
  9 44  1  0
 10 45  1  0
 11 46  1  0
 11 47  1  0
 12 48  1  0
 12 49  1  0
 13 50  1  0
 13 51  1  0
 14 52  1  0
 17 53  1  0
 17 54  1  0
 19 55  1  0
 20 56  1  0
 21 57  1  0
 23 58  1  0
 24 59  1  0
 25 60  1  0
 26 61  1  0
M  END
$$$$
