
     RDKit          3D

 24 23  0  0  0  0  0  0  0  0999 V2000
    0.6902    0.0000    0.0000 Cl  0  0  0  0  0  0  0  0  0  0  0  0
    0.6850    0.0000    0.0000 Cl  0  0  0  0  0  0  0  0  0  0  0  0
   -1.8178   -1.8351   -0.8320 N   0  0  0  0  0  0  0  0  0  0  0  0
   -1.3032   -0.6110   -0.3353 C   0  0  0  0  0  0  0  0  0  0  0  0
   -2.1379    0.4430   -0.0176 C   0  0  0  0  0  0  0  0  0  0  0  0
   -1.6745    1.6395    0.4644 C   0  0  0  0  0  0  0  0  0  0  0  0
   -0.3233    1.8428    0.6558 C   0  0  0  0  0  0  0  0  0  0  0  0
    0.1669    3.0556    1.1461 O   0  0  0  0  0  0  0  0  0  0  0  0
    0.5292    0.8022    0.3445 C   0  0  0  0  0  0  0  0  0  0  0  0
    1.8569    0.9524    0.5142 N   0  0  0  0  0  0  0  0  0  0  0  0
    2.6976   -0.0483    0.2167 C   0  0  0  0  0  0  0  0  0  0  0  0
    2.2481   -1.2704   -0.2736 C   0  0  0  0  0  0  0  0  0  0  0  0
    0.8918   -1.4386   -0.4524 C   0  0  0  0  0  0  0  0  0  0  0  0
    0.0512   -0.4123   -0.1454 C   0  0  0  0  0  0  0  0  0  0  0  0
   -0.6902    0.0000    0.0000 H   0  0  0  0  0  0  0  0  0  0  0  0
   -0.6850    0.0000    0.0000 H   0  0  0  0  0  0  0  0  0  0  0  0
   -2.1842   -1.8580   -1.8028 H   0  0  0  0  0  0  0  0  0  0  0  0
   -1.8494   -2.7122   -0.2790 H   0  0  0  0  0  0  0  0  0  0  0  0
   -3.2099    0.2615   -0.1769 H   0  0  0  0  0  0  0  0  0  0  0  0
   -2.3524    2.4360    0.7005 H   0  0  0  0  0  0  0  0  0  0  0  0
    1.1641    3.1542    1.2683 H   0  0  0  0  0  0  0  0  0  0  0  0
    3.7729    0.0495    0.3453 H   0  0  0  0  0  0  0  0  0  0  0  0
    2.9217   -2.0687   -0.5107 H   0  0  0  0  0  0  0  0  0  0  0  0
    0.5522   -2.3822   -0.8303 H   0  0  0  0  0  0  0  0  0  0  0  0
  3  4  1  0
  4  5  2  0
  5  6  1  0
  6  7  2  0
  7  8  1  0
  7  9  1  0
  9 10  2  0
 10 11  1  0
 11 12  2  0
 12 13  1  0
 13 14  2  0
 14  4  1  0
 14  9  1  0
  1 15  1  0
  2 16  1  0
  3 17  1  0
  3 18  1  0
  5 19  1  0
  6 20  1  0
  8 21  1  0
 11 22  1  0
 12 23  1  0
 13 24  1  0
M  END
$$$$
