
     RDKit          3D

 39 41  0  0  0  0  0  0  0  0999 V2000
   -3.2941   -2.1412    1.6560 C   0  0  0  0  0  0  0  0  0  0  0  0
   -2.9545   -1.8405    0.1973 C   0  0  0  0  0  0  0  0  0  0  0  0
   -4.1529   -1.1330   -0.5283 C   0  0  0  0  0  0  0  0  0  0  0  0
   -3.6261    0.2449   -0.7722 C   0  0  0  0  0  0  0  0  0  0  0  0
   -4.2305    1.3679   -1.3067 C   0  0  0  0  0  0  0  0  0  0  0  0
   -3.4593    2.5328   -1.4564 C   0  0  0  0  0  0  0  0  0  0  0  0
   -2.1014    2.5617   -1.0815 C   0  0  0  0  0  0  0  0  0  0  0  0
   -1.5136    1.4155   -0.5501 C   0  0  0  0  0  0  0  0  0  0  0  0
   -0.0956    1.3158   -0.1256 C   0  0  0  0  0  0  0  0  0  0  0  0
    0.6515    2.2852   -0.2390 O   0  0  0  0  0  0  0  0  0  0  0  0
    0.3808    0.0015    0.4376 C   0  0  0  0  0  0  0  0  0  0  0  0
    1.7718   -0.2469    0.9147 C   0  0  0  0  0  0  0  0  0  0  0  0
    2.1256   -1.3432    1.3408 O   0  0  0  0  0  0  0  0  0  0  0  0
    2.6211    0.8274    0.8333 N   0  0  0  0  0  0  0  0  0  0  0  0
    4.0054    0.7785    1.2519 C   0  0  0  0  0  0  0  0  0  0  0  0
    4.9592    0.5426    0.0869 C   0  0  0  0  0  0  0  0  0  0  0  0
    4.8895   -0.8748   -0.4657 C   0  0  0  0  0  0  0  0  0  0  0  0
    5.8668   -1.0298   -1.4912 O   0  0  0  0  0  0  0  0  0  0  0  0
   -0.5061   -1.0127    0.5193 C   0  0  0  0  0  0  0  0  0  0  0  0
   -1.8135   -0.9214    0.1159 N   0  0  0  0  0  0  0  0  0  0  0  0
   -2.2921    0.2836   -0.4041 C   0  0  0  0  0  0  0  0  0  0  0  0
   -3.5151   -1.2245    2.2140 H   0  0  0  0  0  0  0  0  0  0  0  0
   -2.4580   -2.6399    2.1577 H   0  0  0  0  0  0  0  0  0  0  0  0
   -4.1662   -2.7999    1.7218 H   0  0  0  0  0  0  0  0  0  0  0  0
   -2.7208   -2.7810   -0.3169 H   0  0  0  0  0  0  0  0  0  0  0  0
   -5.0625   -1.1194    0.0798 H   0  0  0  0  0  0  0  0  0  0  0  0
   -4.3587   -1.6265   -1.4843 H   0  0  0  0  0  0  0  0  0  0  0  0
   -5.2729    1.3551   -1.6102 H   0  0  0  0  0  0  0  0  0  0  0  0
   -3.9160    3.4282   -1.8745 H   0  0  0  0  0  0  0  0  0  0  0  0
   -1.5178    3.4699   -1.2085 H   0  0  0  0  0  0  0  0  0  0  0  0
    2.2565    1.7024    0.4521 H   0  0  0  0  0  0  0  0  0  0  0  0
    4.2229    1.7508    1.7068 H   0  0  0  0  0  0  0  0  0  0  0  0
    4.1367    0.0123    2.0237 H   0  0  0  0  0  0  0  0  0  0  0  0
    5.9865    0.7379    0.4195 H   0  0  0  0  0  0  0  0  0  0  0  0
    4.7645    1.2608   -0.7195 H   0  0  0  0  0  0  0  0  0  0  0  0
    3.9087   -1.0997   -0.8948 H   0  0  0  0  0  0  0  0  0  0  0  0
    5.1037   -1.6104    0.3156 H   0  0  0  0  0  0  0  0  0  0  0  0
    5.6101   -0.4438   -2.2235 H   0  0  0  0  0  0  0  0  0  0  0  0
   -0.2334   -1.9861    0.9201 H   0  0  0  0  0  0  0  0  0  0  0  0
  1  2  1  0
  2  3  1  0
  3  4  1  0
  4  5  2  0
  5  6  1  0
  6  7  2  0
  7  8  1  0
  8  9  1  0
  9 10  2  0
  9 11  1  0
 11 12  1  0
 12 13  2  0
 12 14  1  0
 14 15  1  0
 15 16  1  0
 16 17  1  0
 17 18  1  0
 11 19  2  0
 19 20  1  0
 20 21  1  0
 20  2  1  0
 21  4  1  0
 21  8  2  0
  1 22  1  0
  1 23  1  0
  1 24  1  0
  2 25  1  0
  3 26  1  0
  3 27  1  0
  5 28  1  0
  6 29  1  0
  7 30  1  0
 14 31  1  0
 15 32  1  0
 15 33  1  0
 16 34  1  0
 16 35  1  0
 17 36  1  0
 17 37  1  0
 18 38  1  0
 19 39  1  0
M  END
$$$$
