
     RDKit          3D

 47 50  0  0  0  0  0  0  0  0999 V2000
    7.7366   -1.4995   -0.9035 C   0  0  0  0  0  0  0  0  0  0  0  0
    6.9134   -0.5306   -0.2690 O   0  0  0  0  0  0  0  0  0  0  0  0
    5.5533   -0.6661   -0.3954 C   0  0  0  0  0  0  0  0  0  0  0  0
    4.9224   -1.6905   -1.1103 C   0  0  0  0  0  0  0  0  0  0  0  0
    3.5395   -1.7807   -1.2042 C   0  0  0  0  0  0  0  0  0  0  0  0
    3.0179   -2.7839   -1.9148 N   0  0  0  0  0  0  0  0  0  0  0  0
    1.6845   -2.8378   -1.9912 C   0  0  0  0  0  0  0  0  0  0  0  0
    0.8277   -1.9942   -1.4122 N   0  0  0  0  0  0  0  0  0  0  0  0
    1.3571   -0.9945   -0.6848 C   0  0  0  0  0  0  0  0  0  0  0  0
    0.4914   -0.0944   -0.0035 N   0  0  0  0  0  0  0  0  0  0  0  0
   -0.8956    0.0993   -0.1939 C   0  0  0  0  0  0  0  0  0  0  0  0
   -1.5219   -0.0851   -1.4329 C   0  0  0  0  0  0  0  0  0  0  0  0
   -2.8841    0.1839   -1.6008 C   0  0  0  0  0  0  0  0  0  0  0  0
   -3.6373    0.6527   -0.5284 C   0  0  0  0  0  0  0  0  0  0  0  0
   -4.9639    0.9294   -0.7643 O   0  0  0  0  0  0  0  0  0  0  0  0
   -5.8763    0.4765    0.1618 C   0  0  0  0  0  0  0  0  0  0  0  0
   -6.8786    1.3660    0.5502 C   0  0  0  0  0  0  0  0  0  0  0  0
   -7.8544    0.9597    1.4609 C   0  0  0  0  0  0  0  0  0  0  0  0
   -7.8354   -0.3395    1.9695 C   0  0  0  0  0  0  0  0  0  0  0  0
   -6.8462   -1.2359    1.5629 C   0  0  0  0  0  0  0  0  0  0  0  0
   -5.8690   -0.8320    0.6519 C   0  0  0  0  0  0  0  0  0  0  0  0
   -3.0221    0.9015    0.6977 C   0  0  0  0  0  0  0  0  0  0  0  0
   -1.6594    0.6306    0.8582 C   0  0  0  0  0  0  0  0  0  0  0  0
    2.7514   -0.8239   -0.5541 C   0  0  0  0  0  0  0  0  0  0  0  0
    3.3821    0.2274    0.1609 C   0  0  0  0  0  0  0  0  0  0  0  0
    4.7733    0.3114    0.2410 C   0  0  0  0  0  0  0  0  0  0  0  0
    5.4562    1.2904    0.9155 O   0  0  0  0  0  0  0  0  0  0  0  0
    4.7112    2.3869    1.4261 C   0  0  0  0  0  0  0  0  0  0  0  0
    8.7792   -1.2392   -0.6969 H   0  0  0  0  0  0  0  0  0  0  0  0
    7.5993   -1.4836   -1.9897 H   0  0  0  0  0  0  0  0  0  0  0  0
    7.5566   -2.4993   -0.4950 H   0  0  0  0  0  0  0  0  0  0  0  0
    5.4990   -2.4546   -1.6224 H   0  0  0  0  0  0  0  0  0  0  0  0
    1.2579   -3.6456   -2.5759 H   0  0  0  0  0  0  0  0  0  0  0  0
    0.7288   -0.1055    0.9832 H   0  0  0  0  0  0  0  0  0  0  0  0
   -0.9537   -0.4340   -2.2910 H   0  0  0  0  0  0  0  0  0  0  0  0
   -3.3510    0.0281   -2.5691 H   0  0  0  0  0  0  0  0  0  0  0  0
   -6.8963    2.3744    0.1463 H   0  0  0  0  0  0  0  0  0  0  0  0
   -8.6317    1.6537    1.7695 H   0  0  0  0  0  0  0  0  0  0  0  0
   -8.5976   -0.6568    2.6767 H   0  0  0  0  0  0  0  0  0  0  0  0
   -6.8401   -2.2517    1.9495 H   0  0  0  0  0  0  0  0  0  0  0  0
   -5.1137   -1.5414    0.3252 H   0  0  0  0  0  0  0  0  0  0  0  0
   -3.5894    1.3144    1.5270 H   0  0  0  0  0  0  0  0  0  0  0  0
   -1.2006    0.8412    1.8206 H   0  0  0  0  0  0  0  0  0  0  0  0
    2.7595    0.9777    0.6364 H   0  0  0  0  0  0  0  0  0  0  0  0
    5.4196    3.1014    1.8563 H   0  0  0  0  0  0  0  0  0  0  0  0
    4.1629    2.9006    0.6294 H   0  0  0  0  0  0  0  0  0  0  0  0
    4.0374    2.0644    2.2264 H   0  0  0  0  0  0  0  0  0  0  0  0
  1  2  1  0
  2  3  1  0
  3  4  2  0
  4  5  1  0
  5  6  2  0
  6  7  1  0
  7  8  2  0
  8  9  1  0
  9 10  1  0
 10 11  1  0
 11 12  2  0
 12 13  1  0
 13 14  2  0
 14 15  1  0
 15 16  1  0
 16 17  2  0
 17 18  1  0
 18 19  2  0
 19 20  1  0
 20 21  2  0
 14 22  1  0
 22 23  2  0
  9 24  2  0
 24 25  1  0
 25 26  2  0
 26 27  1  0
 27 28  1  0
 26  3  1  0
 24  5  1  0
 23 11  1  0
 21 16  1  0
  1 29  1  0
  1 30  1  0
  1 31  1  0
  4 32  1  0
  7 33  1  0
 10 34  1  0
 12 35  1  0
 13 36  1  0
 17 37  1  0
 18 38  1  0
 19 39  1  0
 20 40  1  0
 21 41  1  0
 22 42  1  0
 23 43  1  0
 25 44  1  0
 28 45  1  0
 28 46  1  0
 28 47  1  0
M  END
$$$$
