
     RDKit          3D

 45 47  0  0  0  0  0  0  0  0999 V2000
   -6.5360   -1.0609    0.5741 C   0  0  0  0  0  0  0  0  0  0  0  0
   -6.6245    0.3987    0.9783 C   0  0  0  0  0  0  0  0  0  0  0  0
   -5.2343    0.9406    2.0136 S   0  0  0  0  0  4  0  0  0  0  0  0
   -5.0383   -0.0769    3.1019 O   0  0  0  0  0  0  0  0  0  0  0  0
   -3.9125    0.7620    0.8355 C   0  0  0  0  0  0  0  0  0  0  0  0
   -2.8024    0.1524    1.2612 N   0  0  0  0  0  0  0  0  0  0  0  0
   -1.7920    0.0436    0.3772 C   0  0  0  0  0  0  0  0  0  0  0  0
   -0.5833   -0.6527    0.8689 C   0  0  0  0  0  0  0  0  0  0  0  0
   -0.6941   -1.6688    1.8367 C   0  0  0  0  0  0  0  0  0  0  0  0
    0.4288   -2.3494    2.3080 C   0  0  0  0  0  0  0  0  0  0  0  0
    1.6907   -2.0202    1.8235 C   0  0  0  0  0  0  0  0  0  0  0  0
    1.8422   -1.0072    0.8772 C   0  0  0  0  0  0  0  0  0  0  0  0
    3.1360   -0.7786    0.4978 O   0  0  0  0  0  0  0  0  0  0  0  0
    3.3770    0.2948   -0.4071 C   0  0  0  0  0  0  0  0  0  0  0  0
    4.8625    0.3790   -0.6543 C   0  0  0  0  0  0  0  0  0  0  0  0
    5.4681   -0.4332   -1.6239 C   0  0  0  0  0  0  0  0  0  0  0  0
    6.8445   -0.3647   -1.8455 C   0  0  0  0  0  0  0  0  0  0  0  0
    7.6296    0.5087   -1.0952 C   0  0  0  0  0  0  0  0  0  0  0  0
    7.0408    1.3096   -0.1183 C   0  0  0  0  0  0  0  0  0  0  0  0
    5.6645    1.2426    0.1051 C   0  0  0  0  0  0  0  0  0  0  0  0
    0.7110   -0.3302    0.4066 C   0  0  0  0  0  0  0  0  0  0  0  0
   -1.9078    0.5450   -0.9093 C   0  0  0  0  0  0  0  0  0  0  0  0
   -3.0940    1.1837   -1.2503 C   0  0  0  0  0  0  0  0  0  0  0  0
   -3.2492    1.7293   -2.6614 C   0  0  0  0  0  0  0  0  0  0  0  0
   -2.1437    2.4127   -3.0782 F   0  0  0  0  0  0  0  0  0  0  0  0
   -3.4368    0.7398   -3.5801 F   0  0  0  0  0  0  0  0  0  0  0  0
   -4.2953    2.5877   -2.8122 F   0  0  0  0  0  0  0  0  0  0  0  0
   -4.1195    1.3034   -0.3714 N   0  0  0  0  0  0  0  0  0  0  0  0
   -5.6576   -1.2614   -0.0468 H   0  0  0  0  0  0  0  0  0  0  0  0
   -6.4850   -1.7160    1.4499 H   0  0  0  0  0  0  0  0  0  0  0  0
   -7.4220   -1.3433   -0.0037 H   0  0  0  0  0  0  0  0  0  0  0  0
   -6.6962    1.0476    0.1002 H   0  0  0  0  0  0  0  0  0  0  0  0
   -7.5317    0.5553    1.5714 H   0  0  0  0  0  0  0  0  0  0  0  0
   -1.6727   -1.9381    2.2353 H   0  0  0  0  0  0  0  0  0  0  0  0
    0.3170   -3.1309    3.0551 H   0  0  0  0  0  0  0  0  0  0  0  0
    2.5657   -2.5496    2.1935 H   0  0  0  0  0  0  0  0  0  0  0  0
    2.8644    0.1189   -1.3614 H   0  0  0  0  0  0  0  0  0  0  0  0
    3.0221    1.2435    0.0151 H   0  0  0  0  0  0  0  0  0  0  0  0
    4.8696   -1.1303   -2.2063 H   0  0  0  0  0  0  0  0  0  0  0  0
    7.3053   -0.9982   -2.5990 H   0  0  0  0  0  0  0  0  0  0  0  0
    8.7018    0.5586   -1.2653 H   0  0  0  0  0  0  0  0  0  0  0  0
    7.6548    1.9820    0.4750 H   0  0  0  0  0  0  0  0  0  0  0  0
    5.2219    1.8636    0.8808 H   0  0  0  0  0  0  0  0  0  0  0  0
    0.8233    0.4729   -0.3134 H   0  0  0  0  0  0  0  0  0  0  0  0
   -1.1128    0.4349   -1.6387 H   0  0  0  0  0  0  0  0  0  0  0  0
  1  2  1  0
  2  3  1  0
  3  4  2  0
  3  5  1  0
  5  6  2  0
  6  7  1  0
  7  8  1  0
  8  9  2  0
  9 10  1  0
 10 11  2  0
 11 12  1  0
 12 13  1  0
 13 14  1  0
 14 15  1  0
 15 16  2  0
 16 17  1  0
 17 18  2  0
 18 19  1  0
 19 20  2  0
 12 21  2  0
  7 22  2  0
 22 23  1  0
 23 24  1  0
 24 25  1  0
 24 26  1  0
 24 27  1  0
 23 28  2  0
 28  5  1  0
 21  8  1  0
 20 15  1  0
  1 29  1  0
  1 30  1  0
  1 31  1  0
  2 32  1  0
  2 33  1  0
  9 34  1  0
 10 35  1  0
 11 36  1  0
 14 37  1  0
 14 38  1  0
 16 39  1  0
 17 40  1  0
 18 41  1  0
 19 42  1  0
 20 43  1  0
 21 44  1  0
 22 45  1  0
M  END
$$$$
