
     RDKit          3D

 33 34  0  0  0  0  0  0  0  0999 V2000
   -1.3636    3.1459   -0.0241 O   0  0  0  0  0  0  0  0  0  0  0  0
   -1.9563    2.0648   -0.0409 C   0  0  0  0  0  0  0  0  0  0  0  0
   -3.3227    1.9058    0.5896 C   0  0  0  0  0  0  0  0  0  0  0  0
   -4.2137    1.0319   -0.2814 C   0  0  0  0  0  0  0  0  0  0  0  0
   -3.5794   -0.3270   -0.5371 C   0  0  0  0  0  0  0  0  0  0  0  0
   -2.2371   -0.1381   -1.2037 C   0  0  0  0  0  0  0  0  0  0  0  0
   -1.9056   -0.8030   -2.1860 O   0  0  0  0  0  0  0  0  0  0  0  0
   -1.2736    0.8299   -0.5695 C   0  0  0  0  0  0  0  0  0  0  0  0
   -0.4796    0.1608    0.5213 C   0  0  0  0  0  0  0  0  0  0  0  0
   -0.9682   -0.1484    1.6047 O   0  0  0  0  0  0  0  0  0  0  0  0
    0.9476   -0.1424    0.2837 C   0  0  0  0  0  0  0  0  0  0  0  0
    1.8018    0.8883   -0.1282 C   0  0  0  0  0  0  0  0  0  0  0  0
    3.1732    0.6467   -0.2751 C   0  0  0  0  0  0  0  0  0  0  0  0
    3.7171   -0.6218   -0.0086 C   0  0  0  0  0  0  0  0  0  0  0  0
    5.2053   -0.8646   -0.1390 C   0  0  0  0  0  0  0  0  0  0  0  0
    5.7969   -0.0511   -1.0557 F   0  0  0  0  0  0  0  0  0  0  0  0
    5.8624   -0.6572    1.0327 F   0  0  0  0  0  0  0  0  0  0  0  0
    5.4988   -2.1371   -0.5204 F   0  0  0  0  0  0  0  0  0  0  0  0
    2.8618   -1.6500    0.4206 C   0  0  0  0  0  0  0  0  0  0  0  0
    1.4869   -1.4025    0.5611 C   0  0  0  0  0  0  0  0  0  0  0  0
    0.6303   -2.5105    0.9561 N   0  0  0  0  0  4  0  0  0  0  0  0
   -0.3804   -2.7150    0.2710 O   0  0  0  0  0  0  0  0  0  0  0  0
    1.0086   -3.2009    1.9113 O   0  0  0  0  0  1  0  0  0  0  0  0
   -3.1992    1.4724    1.5874 H   0  0  0  0  0  0  0  0  0  0  0  0
   -3.7762    2.8966    0.7012 H   0  0  0  0  0  0  0  0  0  0  0  0
   -5.1875    0.8999    0.2030 H   0  0  0  0  0  0  0  0  0  0  0  0
   -4.3919    1.5370   -1.2394 H   0  0  0  0  0  0  0  0  0  0  0  0
   -3.4370   -0.8861    0.3934 H   0  0  0  0  0  0  0  0  0  0  0  0
   -4.2228   -0.9194   -1.1965 H   0  0  0  0  0  0  0  0  0  0  0  0
   -0.6142    1.1695   -1.3777 H   0  0  0  0  0  0  0  0  0  0  0  0
    1.4250    1.8954   -0.3071 H   0  0  0  0  0  0  0  0  0  0  0  0
    3.8253    1.4644   -0.5876 H   0  0  0  0  0  0  0  0  0  0  0  0
    3.2680   -2.6382    0.6410 H   0  0  0  0  0  0  0  0  0  0  0  0
  1  2  2  0
  2  3  1  0
  3  4  1  0
  4  5  1  0
  5  6  1  0
  6  7  2  0
  6  8  1  0
  8  9  1  0
  9 10  2  0
  9 11  1  0
 11 12  2  0
 12 13  1  0
 13 14  2  0
 14 15  1  0
 15 16  1  0
 15 17  1  0
 15 18  1  0
 14 19  1  0
 19 20  2  0
 20 21  1  0
 21 22  2  0
 21 23  1  0
  8  2  1  0
 20 11  1  0
  3 24  1  0
  3 25  1  0
  4 26  1  0
  4 27  1  0
  5 28  1  0
  5 29  1  0
  8 30  1  0
 12 31  1  0
 13 32  1  0
 19 33  1  0
M  CHG  2  21   1  23  -1
M  END
$$$$
