
     RDKit          3D

 51 54  0  0  0  0  0  0  0  0999 V2000
    0.5660   -1.0045   -1.3664 O   0  0  0  0  0  0  0  0  0  0  0  0
   -0.1524   -0.4688   -0.5533 C   0  0  0  0  0  0  0  0  0  0  0  0
   -0.0150    0.7454    0.3798 C   0  0  2  0  0  0  0  0  0  0  0  0
    1.0610    0.6980    1.4618 C   0  0  0  0  0  0  0  0  0  0  0  0
    2.4700    0.8193    0.8641 C   0  0  0  0  0  0  0  0  0  0  0  0
    3.1589   -0.5407    0.6785 C   0  0  2  0  0  0  0  0  0  0  0  0
    3.4346   -1.1019    1.9637 O   0  0  0  0  0  0  0  0  0  0  0  0
    4.4423   -0.4176   -0.1166 C   0  0  0  0  0  0  0  0  0  0  0  0
    4.4697   -0.8180   -1.4629 C   0  0  0  0  0  0  0  0  0  0  0  0
    5.6411   -0.6982   -2.2122 C   0  0  0  0  0  0  0  0  0  0  0  0
    6.7837   -0.1744   -1.6199 C   0  0  0  0  0  0  0  0  0  0  0  0
    7.9070   -0.0594   -2.3405 F   0  0  0  0  0  0  0  0  0  0  0  0
    6.7777    0.2354   -0.2923 C   0  0  0  0  0  0  0  0  0  0  0  0
    5.6076    0.1171    0.4590 C   0  0  0  0  0  0  0  0  0  0  0  0
   -1.4601    0.3820    0.8583 C   0  0  1  0  0  0  0  0  0  0  0  0
   -2.5755    1.5026    0.6686 C   0  0  0  0  0  0  0  0  0  0  0  0
   -3.0469    2.2492    1.7688 C   0  0  0  0  0  0  0  0  0  0  0  0
   -4.0231    3.2397    1.6296 C   0  0  0  0  0  0  0  0  0  0  0  0
   -4.5530    3.5095    0.3778 C   0  0  0  0  0  0  0  0  0  0  0  0
   -5.5032    4.4811    0.2837 O   0  0  0  0  0  0  0  0  0  0  0  0
   -4.1206    2.8054   -0.7363 C   0  0  0  0  0  0  0  0  0  0  0  0
   -3.1423    1.8165   -0.5861 C   0  0  0  0  0  0  0  0  0  0  0  0
   -1.4080   -0.7196   -0.1091 N   0  0  0  0  0  0  0  0  0  0  0  0
   -2.3054   -1.7559   -0.3611 C   0  0  0  0  0  0  0  0  0  0  0  0
   -2.0162   -2.7413   -1.3145 C   0  0  0  0  0  0  0  0  0  0  0  0
   -2.9215   -3.7766   -1.5648 C   0  0  0  0  0  0  0  0  0  0  0  0
   -4.1171   -3.8268   -0.8617 C   0  0  0  0  0  0  0  0  0  0  0  0
   -4.9852   -4.8176   -1.1018 F   0  0  0  0  0  0  0  0  0  0  0  0
   -4.4242   -2.8614    0.0875 C   0  0  0  0  0  0  0  0  0  0  0  0
   -3.5185   -1.8266    0.3383 C   0  0  0  0  0  0  0  0  0  0  0  0
    0.0348    1.6827   -0.1918 H   0  0  0  0  0  0  0  0  0  0  0  0
    0.8977    1.5485    2.1356 H   0  0  0  0  0  0  0  0  0  0  0  0
    0.9674   -0.2070    2.0730 H   0  0  0  0  0  0  0  0  0  0  0  0
    2.4363    1.3690   -0.0845 H   0  0  0  0  0  0  0  0  0  0  0  0
    3.0718    1.4185    1.5607 H   0  0  0  0  0  0  0  0  0  0  0  0
    2.4930   -1.2488    0.1793 H   0  0  0  0  0  0  0  0  0  0  0  0
    4.0828   -1.8142    1.8220 H   0  0  0  0  0  0  0  0  0  0  0  0
    3.5746   -1.2210   -1.9358 H   0  0  0  0  0  0  0  0  0  0  0  0
    5.6675   -1.0067   -3.2524 H   0  0  0  0  0  0  0  0  0  0  0  0
    7.6807    0.6460    0.1477 H   0  0  0  0  0  0  0  0  0  0  0  0
    5.6036    0.4447    1.4972 H   0  0  0  0  0  0  0  0  0  0  0  0
   -1.4786   -0.0264    1.8803 H   0  0  0  0  0  0  0  0  0  0  0  0
   -2.6432    2.0543    2.7613 H   0  0  0  0  0  0  0  0  0  0  0  0
   -4.3662    3.7969    2.4969 H   0  0  0  0  0  0  0  0  0  0  0  0
   -5.7796    4.5570   -0.6444 H   0  0  0  0  0  0  0  0  0  0  0  0
   -4.5260    3.0048   -1.7232 H   0  0  0  0  0  0  0  0  0  0  0  0
   -2.8162    1.2723   -1.4719 H   0  0  0  0  0  0  0  0  0  0  0  0
   -1.0872   -2.7214   -1.8793 H   0  0  0  0  0  0  0  0  0  0  0  0
   -2.6977   -4.5397   -2.3034 H   0  0  0  0  0  0  0  0  0  0  0  0
   -5.3646   -2.9174    0.6265 H   0  0  0  0  0  0  0  0  0  0  0  0
   -3.7824   -1.0838    1.0858 H   0  0  0  0  0  0  0  0  0  0  0  0
  1  2  2  0
  2  3  1  0
  3  4  1  0
  4  5  1  0
  5  6  1  0
  6  7  1  0
  6  8  1  0
  8  9  2  0
  9 10  1  0
 10 11  2  0
 11 12  1  0
 11 13  1  0
 13 14  2  0
  3 15  1  0
 15 16  1  0
 16 17  2  0
 17 18  1  0
 18 19  2  0
 19 20  1  0
 19 21  1  0
 21 22  2  0
 15 23  1  0
 23 24  1  0
 24 25  2  0
 25 26  1  0
 26 27  2  0
 27 28  1  0
 27 29  1  0
 29 30  2  0
 23  2  1  0
 30 24  1  0
 14  8  1  0
 22 16  1  0
  3 31  1  6
  4 32  1  0
  4 33  1  0
  5 34  1  0
  5 35  1  0
  6 36  1  6
  7 37  1  0
  9 38  1  0
 10 39  1  0
 13 40  1  0
 14 41  1  0
 15 42  1  1
 17 43  1  0
 18 44  1  0
 20 45  1  0
 21 46  1  0
 22 47  1  0
 25 48  1  0
 26 49  1  0
 29 50  1  0
 30 51  1  0
M  END
$$$$
