
     RDKit          3D

 40 41  0  0  0  0  0  0  0  0999 V2000
    3.7498   -2.2586    1.3001 N   0  0  0  0  0  0  0  0  0  0  0  0
    3.9845   -2.8001    0.0669 C   0  0  0  0  0  0  0  0  0  0  0  0
    4.8660   -3.6330   -0.1077 O   0  0  0  0  0  0  0  0  0  0  0  0
    3.1063   -2.2424   -1.0534 C   0  0  0  0  0  0  0  0  0  0  0  0
    1.7499   -1.9454   -0.5373 N   0  0  0  0  0  0  0  0  0  0  0  0
    0.9660   -1.2607   -1.5699 C   0  0  0  0  0  0  0  0  0  0  0  0
   -0.4742   -0.9965   -1.1125 C   0  0  0  0  0  0  0  0  0  0  0  0
   -0.5945   -0.0481    0.1069 C   0  0  0  0  0  0  0  0  0  0  0  0
   -2.0030   -0.0122    0.7065 C   0  0  0  0  0  0  0  0  0  0  0  0
   -2.1493    0.1059    2.0998 C   0  0  0  0  0  0  0  0  0  0  0  0
   -3.4150    0.1485    2.6876 C   0  0  0  0  0  0  0  0  0  0  0  0
   -4.5546    0.0839    1.8915 C   0  0  0  0  0  0  0  0  0  0  0  0
   -4.4298   -0.0196    0.5084 C   0  0  0  0  0  0  0  0  0  0  0  0
   -3.1649   -0.0639   -0.0799 C   0  0  0  0  0  0  0  0  0  0  0  0
   -0.0681    1.3558   -0.1783 C   0  0  0  0  0  0  0  0  0  0  0  0
    0.9795    1.8769    0.5996 C   0  0  0  0  0  0  0  0  0  0  0  0
    1.4751    3.1589    0.3628 C   0  0  0  0  0  0  0  0  0  0  0  0
    0.9328    3.9397   -0.6541 C   0  0  0  0  0  0  0  0  0  0  0  0
   -0.1063    3.4387   -1.4345 C   0  0  0  0  0  0  0  0  0  0  0  0
   -0.6050    2.1563   -1.1982 C   0  0  0  0  0  0  0  0  0  0  0  0
    2.8380   -1.8406    1.4433 H   0  0  0  0  0  0  0  0  0  0  0  0
    4.2176   -2.6892    2.0853 H   0  0  0  0  0  0  0  0  0  0  0  0
    3.0491   -2.9874   -1.8521 H   0  0  0  0  0  0  0  0  0  0  0  0
    3.5912   -1.3376   -1.4288 H   0  0  0  0  0  0  0  0  0  0  0  0
    1.3003   -2.8330   -0.3139 H   0  0  0  0  0  0  0  0  0  0  0  0
    0.9258   -1.8827   -2.4719 H   0  0  0  0  0  0  0  0  0  0  0  0
    1.4482   -0.3176   -1.8480 H   0  0  0  0  0  0  0  0  0  0  0  0
   -0.9465   -1.9586   -0.8709 H   0  0  0  0  0  0  0  0  0  0  0  0
   -1.0263   -0.5962   -1.9712 H   0  0  0  0  0  0  0  0  0  0  0  0
    0.0408   -0.4910    0.8872 H   0  0  0  0  0  0  0  0  0  0  0  0
   -1.2719    0.1687    2.7403 H   0  0  0  0  0  0  0  0  0  0  0  0
   -3.5104    0.2359    3.7672 H   0  0  0  0  0  0  0  0  0  0  0  0
   -5.5399    0.1195    2.3473 H   0  0  0  0  0  0  0  0  0  0  0  0
   -5.3194   -0.0583   -0.1154 H   0  0  0  0  0  0  0  0  0  0  0  0
   -3.1041   -0.1301   -1.1630 H   0  0  0  0  0  0  0  0  0  0  0  0
    1.4180    1.2839    1.3984 H   0  0  0  0  0  0  0  0  0  0  0  0
    2.2857    3.5488    0.9747 H   0  0  0  0  0  0  0  0  0  0  0  0
    1.3160    4.9397   -0.8356 H   0  0  0  0  0  0  0  0  0  0  0  0
   -0.5346    4.0491   -2.2251 H   0  0  0  0  0  0  0  0  0  0  0  0
   -1.4232    1.7927   -1.8164 H   0  0  0  0  0  0  0  0  0  0  0  0
  1  2  1  0
  2  3  2  0
  2  4  1  0
  4  5  1  0
  5  6  1  0
  6  7  1  0
  7  8  1  0
  8  9  1  0
  9 10  2  0
 10 11  1  0
 11 12  2  0
 12 13  1  0
 13 14  2  0
  8 15  1  0
 15 16  2  0
 16 17  1  0
 17 18  2  0
 18 19  1  0
 19 20  2  0
 14  9  1  0
 20 15  1  0
  1 21  1  0
  1 22  1  0
  4 23  1  0
  4 24  1  0
  5 25  1  0
  6 26  1  0
  6 27  1  0
  7 28  1  0
  7 29  1  0
  8 30  1  0
 10 31  1  0
 11 32  1  0
 12 33  1  0
 13 34  1  0
 14 35  1  0
 16 36  1  0
 17 37  1  0
 18 38  1  0
 19 39  1  0
 20 40  1  0
M  END
$$$$
