
     RDKit          3D

 63 65  0  0  0  0  0  0  0  0999 V2000
   -6.0685   -1.9086   -2.1151 C   0  0  0  0  0  0  0  0  0  0  0  0
   -5.0751   -0.9452   -1.4618 C   0  0  0  0  0  0  0  0  0  0  0  0
   -5.1843   -1.0325    0.0560 C   0  0  0  0  0  0  0  0  0  0  0  0
   -5.4632    0.3159   -1.8332 F   0  0  0  0  0  0  0  0  0  0  0  0
   -3.6672   -1.1698   -2.0462 C   0  0  0  0  0  0  0  0  0  0  0  0
   -2.4878   -0.3899   -1.4338 C   0  0  2  0  0  0  0  0  0  0  0  0
   -2.1325   -0.9510   -0.1071 N   0  0  0  0  0  0  0  0  0  0  0  0
   -1.2130   -2.1250   -0.1765 C   0  0  1  0  0  0  0  0  0  0  0  0
    0.2018   -1.7012    0.2106 C   0  0  0  0  0  0  0  0  0  0  0  0
    1.2137   -1.6344   -0.7582 C   0  0  0  0  0  0  0  0  0  0  0  0
    2.5109   -1.2415   -0.4101 C   0  0  0  0  0  0  0  0  0  0  0  0
    2.8348   -0.8976    0.9106 C   0  0  0  0  0  0  0  0  0  0  0  0
    4.2019   -0.5000    1.2811 C   0  0  0  0  0  0  0  0  0  0  0  0
    4.8450    0.5710    0.6381 C   0  0  0  0  0  0  0  0  0  0  0  0
    6.1440    0.9487    0.9900 C   0  0  0  0  0  0  0  0  0  0  0  0
    6.8109    0.2520    1.9986 C   0  0  0  0  0  0  0  0  0  0  0  0
    8.4660    0.7222    2.4426 S   0  0  0  0  0  6  0  0  0  0  0  0
    8.2192    2.0596    3.5805 C   0  0  0  0  0  0  0  0  0  0  0  0
    9.0560   -0.3829    3.1746 O   0  0  0  0  0  0  0  0  0  0  0  0
    9.1075    1.2438    1.2482 O   0  0  0  0  0  0  0  0  0  0  0  0
    6.2031   -0.8260    2.6416 C   0  0  0  0  0  0  0  0  0  0  0  0
    4.9038   -1.1937    2.2835 C   0  0  0  0  0  0  0  0  0  0  0  0
    1.8162   -0.9497    1.8721 C   0  0  0  0  0  0  0  0  0  0  0  0
    0.5188   -1.3431    1.5295 C   0  0  0  0  0  0  0  0  0  0  0  0
   -1.7038   -3.3673    0.6358 C   0  0  0  0  0  0  0  0  0  0  0  0
   -2.8907   -3.8125    0.1430 F   0  0  0  0  0  0  0  0  0  0  0  0
   -0.8356   -4.4012    0.5366 F   0  0  0  0  0  0  0  0  0  0  0  0
   -1.8889   -3.1048    1.9490 F   0  0  0  0  0  0  0  0  0  0  0  0
   -2.6427    1.1560   -1.2699 C   0  0  0  0  0  0  0  0  0  0  0  0
   -1.9967    1.7402   -0.3991 O   0  0  0  0  0  0  0  0  0  0  0  0
   -3.4254    1.7952   -2.2060 N   0  0  0  0  0  0  0  0  0  0  0  0
   -3.7118    3.2191   -2.2670 C   0  0  0  0  0  0  0  0  0  0  0  0
   -4.6222    3.5678   -3.3482 C   0  0  0  0  0  0  0  0  0  0  0  0
   -5.3519    3.8151   -4.2161 N   0  0  0  0  0  0  0  0  0  0  0  0
   -3.8222    4.0606   -1.0100 C   0  0  0  0  0  0  0  0  0  0  0  0
   -2.6541    4.2533   -1.9335 C   0  0  0  0  0  0  0  0  0  0  0  0
   -6.0732   -1.7794   -3.2044 H   0  0  0  0  0  0  0  0  0  0  0  0
   -5.8279   -2.9528   -1.8903 H   0  0  0  0  0  0  0  0  0  0  0  0
   -7.0903   -1.7040   -1.7751 H   0  0  0  0  0  0  0  0  0  0  0  0
   -4.6326   -0.2228    0.5429 H   0  0  0  0  0  0  0  0  0  0  0  0
   -4.8241   -1.9942    0.4325 H   0  0  0  0  0  0  0  0  0  0  0  0
   -6.2275   -0.9125    0.3725 H   0  0  0  0  0  0  0  0  0  0  0  0
   -3.4350   -2.2427   -2.0180 H   0  0  0  0  0  0  0  0  0  0  0  0
   -3.7111   -0.9070   -3.1137 H   0  0  0  0  0  0  0  0  0  0  0  0
   -1.6250   -0.4891   -2.1069 H   0  0  0  0  0  0  0  0  0  0  0  0
   -1.6666   -0.2001    0.4210 H   0  0  0  0  0  0  0  0  0  0  0  0
   -1.1727   -2.4867   -1.2123 H   0  0  0  0  0  0  0  0  0  0  0  0
    1.0105   -1.8930   -1.7949 H   0  0  0  0  0  0  0  0  0  0  0  0
    3.2775   -1.2196   -1.1822 H   0  0  0  0  0  0  0  0  0  0  0  0
    4.3315    1.1231   -0.1461 H   0  0  0  0  0  0  0  0  0  0  0  0
    6.6258    1.7715    0.4657 H   0  0  0  0  0  0  0  0  0  0  0  0
    7.6755    2.8644    3.0865 H   0  0  0  0  0  0  0  0  0  0  0  0
    7.6615    1.6915    4.4432 H   0  0  0  0  0  0  0  0  0  0  0  0
    9.2002    2.4176    3.8994 H   0  0  0  0  0  0  0  0  0  0  0  0
    6.7287   -1.3913    3.4076 H   0  0  0  0  0  0  0  0  0  0  0  0
    4.4416   -2.0438    2.7823 H   0  0  0  0  0  0  0  0  0  0  0  0
    2.0252   -0.6698    2.9033 H   0  0  0  0  0  0  0  0  0  0  0  0
   -0.2449   -1.3565    2.3075 H   0  0  0  0  0  0  0  0  0  0  0  0
   -4.1574    1.2203   -2.6228 H   0  0  0  0  0  0  0  0  0  0  0  0
   -4.5694    4.8469   -0.9695 H   0  0  0  0  0  0  0  0  0  0  0  0
   -3.6413    3.5968   -0.0471 H   0  0  0  0  0  0  0  0  0  0  0  0
   -1.6792    3.9191   -1.6012 H   0  0  0  0  0  0  0  0  0  0  0  0
   -2.6158    5.1712   -2.5103 H   0  0  0  0  0  0  0  0  0  0  0  0
  1  2  1  0
  2  3  1  0
  2  4  1  0
  2  5  1  0
  5  6  1  0
  6  7  1  0
  7  8  1  0
  8  9  1  0
  9 10  2  0
 10 11  1  0
 11 12  2  0
 12 13  1  0
 13 14  2  0
 14 15  1  0
 15 16  2  0
 16 17  1  0
 17 18  1  0
 17 19  2  0
 17 20  2  0
 16 21  1  0
 21 22  2  0
 12 23  1  0
 23 24  2  0
  8 25  1  0
 25 26  1  0
 25 27  1  0
 25 28  1  0
  6 29  1  0
 29 30  2  0
 29 31  1  0
 31 32  1  0
 32 33  1  0
 33 34  3  0
 32 35  1  0
 35 36  1  0
 24  9  1  0
 36 32  1  0
 22 13  1  0
  1 37  1  0
  1 38  1  0
  1 39  1  0
  3 40  1  0
  3 41  1  0
  3 42  1  0
  5 43  1  0
  5 44  1  0
  6 45  1  6
  7 46  1  0
  8 47  1  6
 10 48  1  0
 11 49  1  0
 14 50  1  0
 15 51  1  0
 18 52  1  0
 18 53  1  0
 18 54  1  0
 21 55  1  0
 22 56  1  0
 23 57  1  0
 24 58  1  0
 31 59  1  0
 35 60  1  0
 35 61  1  0
 36 62  1  0
 36 63  1  0
M  END
$$$$
