
     RDKit          3D

 33 33  0  0  0  0  0  0  0  0999 V2000
    0.7627    0.0000    0.0000 Br  0  0  0  0  0  0  0  0  0  0  0  0
   -1.3094    1.3851    1.4663 C   0  0  0  0  0  0  0  0  0  0  0  0
   -1.2360    0.7643    0.0709 C   0  0  0  0  0  0  0  0  0  0  0  0
   -0.9035    1.8946   -0.8777 C   0  0  0  0  0  0  0  0  0  0  0  0
   -2.5654    0.3197   -0.2426 N   0  0  0  0  0  0  0  0  0  0  0  0
   -2.8951   -0.8759   -0.5390 C   0  0  0  0  0  0  0  0  0  0  0  0
   -4.2594   -1.1401   -0.8220 N   0  0  0  0  0  0  0  0  0  0  0  0
   -1.8990   -1.8778   -0.5733 N   0  0  0  0  0  0  0  0  0  0  0  0
   -0.6441   -1.6435   -0.3148 C   0  0  0  0  0  0  0  0  0  0  0  0
    0.3010   -2.6962   -0.3679 N   0  0  0  0  0  0  0  0  0  0  0  0
   -0.2899   -0.3046    0.0146 N   0  0  0  0  0  0  0  0  0  0  0  0
    1.1085   -0.1050    0.2901 C   0  0  0  0  0  0  0  0  0  0  0  0
    1.9573    0.2217   -0.7391 C   0  0  0  0  0  0  0  0  0  0  0  0
    3.3123    0.4190   -0.4947 C   0  0  0  0  0  0  0  0  0  0  0  0
    3.8294    0.2941    0.7636 C   0  0  0  0  0  0  0  0  0  0  0  0
    5.6978    0.5772    1.0367 Br  0  0  0  0  0  0  0  0  0  0  0  0
    2.9838   -0.0329    1.7984 C   0  0  0  0  0  0  0  0  0  0  0  0
    1.6358   -0.2284    1.5507 C   0  0  0  0  0  0  0  0  0  0  0  0
   -0.7627    0.0000    0.0000 H   0  0  0  0  0  0  0  0  0  0  0  0
   -1.9116    2.3088    1.3506 H   0  0  0  0  0  0  0  0  0  0  0  0
   -1.7630    0.6603    2.1602 H   0  0  0  0  0  0  0  0  0  0  0  0
   -0.2844    1.6570    1.8091 H   0  0  0  0  0  0  0  0  0  0  0  0
   -1.8044    2.5552   -0.9155 H   0  0  0  0  0  0  0  0  0  0  0  0
   -0.1050    2.5078   -0.4068 H   0  0  0  0  0  0  0  0  0  0  0  0
   -0.6788    1.5734   -1.8922 H   0  0  0  0  0  0  0  0  0  0  0  0
   -4.5147   -1.6695   -1.6802 H   0  0  0  0  0  0  0  0  0  0  0  0
   -5.0134   -0.8143   -0.1869 H   0  0  0  0  0  0  0  0  0  0  0  0
    0.7418   -2.9245   -1.2660 H   0  0  0  0  0  0  0  0  0  0  0  0
    0.5437   -3.2249    0.4770 H   0  0  0  0  0  0  0  0  0  0  0  0
    1.6318    0.3397   -1.7607 H   0  0  0  0  0  0  0  0  0  0  0  0
    3.9836    0.6796   -1.3216 H   0  0  0  0  0  0  0  0  0  0  0  0
    3.3860   -0.1351    2.8065 H   0  0  0  0  0  0  0  0  0  0  0  0
    0.9646   -0.4850    2.3542 H   0  0  0  0  0  0  0  0  0  0  0  0
  2  3  1  0
  3  4  1  0
  3  5  1  0
  5  6  2  0
  6  7  1  0
  6  8  1  0
  8  9  2  0
  9 10  1  0
  9 11  1  0
 11 12  1  0
 12 13  2  0
 13 14  1  0
 14 15  2  0
 15 16  1  0
 15 17  1  0
 17 18  2  0
 11  3  1  0
 18 12  1  0
  1 19  1  0
  2 20  1  0
  2 21  1  0
  2 22  1  0
  4 23  1  0
  4 24  1  0
  4 25  1  0
  7 26  1  0
  7 27  1  0
 10 28  1  0
 10 29  1  0
 13 30  1  0
 14 31  1  0
 17 32  1  0
 18 33  1  0
M  END
$$$$
