
     RDKit          3D

 52 55  0  0  0  0  0  0  0  0999 V2000
   -6.6457   -1.6530    0.0053 C   0  0  0  0  0  0  0  0  0  0  0  0
   -5.6641   -0.7391   -0.7334 C   0  0  0  0  0  0  0  0  0  0  0  0
   -6.3886    0.2313   -1.6726 C   0  0  0  0  0  0  0  0  0  0  0  0
   -4.7289   -0.0635    0.1901 N   0  0  0  0  0  0  0  0  0  0  0  0
   -5.2515    0.9115    1.0626 C   0  0  0  0  0  0  0  0  0  0  0  0
   -6.4476    1.1855    1.1395 O   0  0  0  0  0  0  0  0  0  0  0  0
   -4.2534    1.5689    1.8921 C   0  0  0  0  0  0  0  0  0  0  0  0
   -4.5417    2.5760    2.7212 N   0  0  0  0  0  0  0  0  0  0  0  0
   -3.1433    3.0733    3.4569 S   0  0  0  0  0  0  0  0  0  0  0  0
   -2.1275    1.9240    2.6954 C   0  0  0  0  0  0  0  0  0  0  0  0
   -2.8993    1.1499    1.8559 C   0  0  0  0  0  0  0  0  0  0  0  0
   -2.4880    0.0896    1.0534 N   0  0  0  0  0  0  0  0  0  0  0  0
   -1.0906   -0.3431    0.9753 C   0  0  0  0  0  0  0  0  0  0  0  0
   -0.3058    0.4804   -0.0584 C   0  0  0  0  0  0  0  0  0  0  0  0
   -0.8233    1.4216   -0.6635 O   0  0  0  0  0  0  0  0  0  0  0  0
    1.0277    0.1389   -0.2453 N   0  0  0  0  0  0  0  0  0  0  0  0
    1.8538    0.9325   -1.1598 C   0  0  0  0  0  0  0  0  0  0  0  0
    3.2828    1.1483   -0.6273 C   0  0  0  0  0  0  0  0  0  0  0  0
    3.9364   -0.1198   -0.2392 N   0  0  0  0  0  0  0  0  0  0  0  0
    5.3205   -0.2215   -0.3330 C   0  0  0  0  0  0  0  0  0  0  0  0
    6.1482    0.8961   -0.1253 C   0  0  0  0  0  0  0  0  0  0  0  0
    7.5438    0.8138   -0.2046 C   0  0  0  0  0  0  0  0  0  0  0  0
    8.1538   -0.4001   -0.4924 C   0  0  0  0  0  0  0  0  0  0  0  0
    7.3663   -1.5264   -0.6958 C   0  0  0  0  0  0  0  0  0  0  0  0
    5.9707   -1.4345   -0.6128 C   0  0  0  0  0  0  0  0  0  0  0  0
    3.0854   -1.3154   -0.1686 C   0  0  0  0  0  0  0  0  0  0  0  0
    1.7046   -0.9761    0.4271 C   0  0  0  0  0  0  0  0  0  0  0  0
   -3.4007   -0.5307    0.1942 C   0  0  0  0  0  0  0  0  0  0  0  0
   -3.0378   -1.4726   -0.5178 O   0  0  0  0  0  0  0  0  0  0  0  0
   -7.3435   -1.0928    0.6344 H   0  0  0  0  0  0  0  0  0  0  0  0
   -7.2393   -2.2349   -0.7080 H   0  0  0  0  0  0  0  0  0  0  0  0
   -6.1077   -2.3566    0.6496 H   0  0  0  0  0  0  0  0  0  0  0  0
   -5.0873   -1.3943   -1.3963 H   0  0  0  0  0  0  0  0  0  0  0  0
   -5.6732    0.8982   -2.1656 H   0  0  0  0  0  0  0  0  0  0  0  0
   -7.1255    0.8515   -1.1553 H   0  0  0  0  0  0  0  0  0  0  0  0
   -6.9241   -0.3229   -2.4514 H   0  0  0  0  0  0  0  0  0  0  0  0
   -1.0680    1.8964    2.9003 H   0  0  0  0  0  0  0  0  0  0  0  0
   -0.6210   -0.2425    1.9591 H   0  0  0  0  0  0  0  0  0  0  0  0
   -1.0533   -1.3993    0.6924 H   0  0  0  0  0  0  0  0  0  0  0  0
    1.3896    1.9034   -1.3614 H   0  0  0  0  0  0  0  0  0  0  0  0
    1.8870    0.3835   -2.1088 H   0  0  0  0  0  0  0  0  0  0  0  0
    3.2428    1.8001    0.2539 H   0  0  0  0  0  0  0  0  0  0  0  0
    3.8524    1.6643   -1.4099 H   0  0  0  0  0  0  0  0  0  0  0  0
    5.7160    1.8600    0.1293 H   0  0  0  0  0  0  0  0  0  0  0  0
    8.1481    1.7007   -0.0340 H   0  0  0  0  0  0  0  0  0  0  0  0
    9.2361   -0.4689   -0.5551 H   0  0  0  0  0  0  0  0  0  0  0  0
    7.8322   -2.4816   -0.9230 H   0  0  0  0  0  0  0  0  0  0  0  0
    5.4031   -2.3413   -0.7979 H   0  0  0  0  0  0  0  0  0  0  0  0
    3.5362   -2.0829    0.4717 H   0  0  0  0  0  0  0  0  0  0  0  0
    2.9625   -1.7360   -1.1743 H   0  0  0  0  0  0  0  0  0  0  0  0
    1.8158   -0.6871    1.4791 H   0  0  0  0  0  0  0  0  0  0  0  0
    1.0650   -1.8629    0.3898 H   0  0  0  0  0  0  0  0  0  0  0  0
  1  2  1  0
  2  3  1  0
  2  4  1  0
  4  5  1  0
  5  6  2  0
  5  7  1  0
  7  8  2  0
  8  9  1  0
  9 10  1  0
 10 11  2  0
 11 12  1  0
 12 13  1  0
 13 14  1  0
 14 15  2  0
 14 16  1  0
 16 17  1  0
 17 18  1  0
 18 19  1  0
 19 20  1  0
 20 21  2  0
 21 22  1  0
 22 23  2  0
 23 24  1  0
 24 25  2  0
 19 26  1  0
 26 27  1  0
 12 28  1  0
 28 29  2  0
 28  4  1  0
 11  7  1  0
 27 16  1  0
 25 20  1  0
  1 30  1  0
  1 31  1  0
  1 32  1  0
  2 33  1  0
  3 34  1  0
  3 35  1  0
  3 36  1  0
 10 37  1  0
 13 38  1  0
 13 39  1  0
 17 40  1  0
 17 41  1  0
 18 42  1  0
 18 43  1  0
 21 44  1  0
 22 45  1  0
 23 46  1  0
 24 47  1  0
 25 48  1  0
 26 49  1  0
 26 50  1  0
 27 51  1  0
 27 52  1  0
M  END
$$$$
