
     RDKit          3D

 24 25  0  0  0  0  0  0  0  0999 V2000
    0.7259    1.8979   -1.1361 S   0  0  0  0  0  0  0  0  0  0  0  0
    0.6684    0.3240   -0.5708 C   0  0  0  0  0  0  0  0  0  0  0  0
   -0.5030   -0.3771   -0.2452 N   0  0  0  0  0  0  0  0  0  0  0  0
   -1.8145    0.0690    0.0336 C   0  0  0  0  0  0  0  0  0  0  0  0
   -2.8487   -0.8660   -0.1137 C   0  0  0  0  0  0  0  0  0  0  0  0
   -4.1730   -0.5205    0.1692 C   0  0  0  0  0  0  0  0  0  0  0  0
   -4.4757    0.7603    0.6207 C   0  0  0  0  0  0  0  0  0  0  0  0
   -3.4529    1.6881    0.7984 C   0  0  0  0  0  0  0  0  0  0  0  0
   -2.1275    1.3411    0.5142 C   0  0  0  0  0  0  0  0  0  0  0  0
    1.7448   -0.5325   -0.3484 N   0  0  0  0  0  0  0  0  0  0  0  0
    3.0687   -0.4675   -0.7077 C   0  0  0  0  0  0  0  0  0  0  0  0
    3.9501   -1.2432   -0.1172 N   0  0  0  0  0  0  0  0  0  0  0  0
    5.1958   -1.0428   -0.6797 C   0  0  0  0  0  0  0  0  0  0  0  0
    5.2349   -0.1444   -1.7226 C   0  0  0  0  0  0  0  0  0  0  0  0
    3.6584    0.4597   -2.0080 S   0  0  0  0  0  0  0  0  0  0  0  0
   -0.4296   -1.3720   -0.4204 H   0  0  0  0  0  0  0  0  0  0  0  0
   -2.6429   -1.8730   -0.4671 H   0  0  0  0  0  0  0  0  0  0  0  0
   -4.9664   -1.2513    0.0361 H   0  0  0  0  0  0  0  0  0  0  0  0
   -5.5040    1.0338    0.8420 H   0  0  0  0  0  0  0  0  0  0  0  0
   -3.6809    2.6849    1.1679 H   0  0  0  0  0  0  0  0  0  0  0  0
   -1.3608    2.0812    0.7151 H   0  0  0  0  0  0  0  0  0  0  0  0
    1.6031   -1.2306    0.3689 H   0  0  0  0  0  0  0  0  0  0  0  0
    6.0481   -1.5872   -0.2914 H   0  0  0  0  0  0  0  0  0  0  0  0
    6.0815    0.1681   -2.3162 H   0  0  0  0  0  0  0  0  0  0  0  0
  1  2  2  0
  2  3  1  0
  3  4  1  0
  4  5  2  0
  5  6  1  0
  6  7  2  0
  7  8  1  0
  8  9  2  0
  2 10  1  0
 10 11  1  0
 11 12  2  0
 12 13  1  0
 13 14  2  0
 14 15  1  0
  9  4  1  0
 15 11  1  0
  3 16  1  0
  5 17  1  0
  6 18  1  0
  7 19  1  0
  8 20  1  0
  9 21  1  0
 10 22  1  0
 13 23  1  0
 14 24  1  0
M  END
$$$$
