
     RDKit          3D

 32 33  0  0  0  0  0  0  0  0999 V2000
    4.8798   -0.7582   -0.5716 C   0  0  0  0  0  0  0  0  0  0  0  0
    4.4925    0.1781    0.4303 O   0  0  0  0  0  0  0  0  0  0  0  0
    3.9661    1.3783   -0.1376 C   0  0  0  0  0  0  0  0  0  0  0  0
    2.4608    1.2975   -0.4220 C   0  0  0  0  0  0  0  0  0  0  0  0
    1.9291    2.0138   -1.2641 O   0  0  0  0  0  0  0  0  0  0  0  0
    1.8327    0.3744    0.3976 N   0  0  0  0  0  0  0  0  0  0  0  0
    0.4688    0.0376    0.4473 C   0  0  0  0  0  0  0  0  0  0  0  0
    0.0887   -0.9526    1.3501 C   0  0  0  0  0  0  0  0  0  0  0  0
   -1.2494   -1.3426    1.4566 C   0  0  0  0  0  0  0  0  0  0  0  0
   -2.2412   -0.7510    0.6629 C   0  0  0  0  0  0  0  0  0  0  0  0
   -3.5571   -1.1096    0.7396 O   0  0  0  0  0  0  0  0  0  0  0  0
   -3.9513   -2.1007    1.6779 C   0  0  0  0  0  0  0  0  0  0  0  0
   -1.8681    0.2539   -0.2550 C   0  0  0  0  0  0  0  0  0  0  0  0
   -2.8185    0.9042   -1.0983 N   0  0  0  0  0  0  0  0  0  0  0  0
   -2.6082    1.8937   -2.0360 C   0  0  0  0  0  0  0  0  0  0  0  0
   -3.7465    2.2231   -2.6017 N   0  0  0  0  0  0  0  0  0  0  0  0
   -4.6905    1.4313   -2.0138 N   0  0  0  0  0  0  0  0  0  0  0  0
   -4.1453    0.6337   -1.1080 N   0  0  0  0  0  0  0  0  0  0  0  0
   -0.5107    0.6354   -0.3483 C   0  0  0  0  0  0  0  0  0  0  0  0
    5.2310   -1.6659   -0.0735 H   0  0  0  0  0  0  0  0  0  0  0  0
    5.6982   -0.3531   -1.1745 H   0  0  0  0  0  0  0  0  0  0  0  0
    4.0307   -1.0166   -1.2115 H   0  0  0  0  0  0  0  0  0  0  0  0
    4.1115    2.1801    0.5937 H   0  0  0  0  0  0  0  0  0  0  0  0
    4.5011    1.6469   -1.0554 H   0  0  0  0  0  0  0  0  0  0  0  0
    2.4651   -0.1308    1.0150 H   0  0  0  0  0  0  0  0  0  0  0  0
    0.8241   -1.4390    1.9869 H   0  0  0  0  0  0  0  0  0  0  0  0
   -1.4840   -2.1203    2.1771 H   0  0  0  0  0  0  0  0  0  0  0  0
   -3.4821   -3.0642    1.4538 H   0  0  0  0  0  0  0  0  0  0  0  0
   -5.0343   -2.2307    1.5914 H   0  0  0  0  0  0  0  0  0  0  0  0
   -3.7356   -1.7822    2.7030 H   0  0  0  0  0  0  0  0  0  0  0  0
   -1.6492    2.3288   -2.2668 H   0  0  0  0  0  0  0  0  0  0  0  0
   -0.2081    1.4065   -1.0452 H   0  0  0  0  0  0  0  0  0  0  0  0
  1  2  1  0
  2  3  1  0
  3  4  1  0
  4  5  2  0
  4  6  1  0
  6  7  1  0
  7  8  2  0
  8  9  1  0
  9 10  2  0
 10 11  1  0
 11 12  1  0
 10 13  1  0
 13 14  1  0
 14 15  1  0
 15 16  2  0
 16 17  1  0
 17 18  2  0
 13 19  2  0
 19  7  1  0
 18 14  1  0
  1 20  1  0
  1 21  1  0
  1 22  1  0
  3 23  1  0
  3 24  1  0
  6 25  1  0
  8 26  1  0
  9 27  1  0
 12 28  1  0
 12 29  1  0
 12 30  1  0
 15 31  1  0
 19 32  1  0
M  END
$$$$
