
     RDKit          3D

 15 15  0  0  0  0  0  0  0  0999 V2000
    0.6927    3.2501   -1.7321 N   0  0  0  0  0  0  0  0  0  0  0  0
    0.9414    2.4963   -0.8842 C   0  0  0  0  0  0  0  0  0  0  0  0
    1.2977    1.5380    0.1688 C   0  0  0  0  0  0  0  0  0  0  0  0
    0.3597    0.3587    0.2186 C   0  0  0  0  0  0  0  0  0  0  0  0
    0.2981   -0.5537   -0.8354 C   0  0  0  0  0  0  0  0  0  0  0  0
   -0.5778   -1.6320   -0.7426 C   0  0  0  0  0  0  0  0  0  0  0  0
   -1.3639   -1.7765    0.3933 C   0  0  0  0  0  0  0  0  0  0  0  0
   -1.2399   -0.8324    1.3970 C   0  0  0  0  0  0  0  0  0  0  0  0
   -0.3975    0.2231    1.3365 N   0  0  0  0  0  0  0  0  0  0  0  0
    1.2942    2.0476    1.1398 H   0  0  0  0  0  0  0  0  0  0  0  0
    2.3189    1.1695    0.0158 H   0  0  0  0  0  0  0  0  0  0  0  0
    0.9143   -0.4324   -1.7215 H   0  0  0  0  0  0  0  0  0  0  0  0
   -0.6480   -2.3525   -1.5530 H   0  0  0  0  0  0  0  0  0  0  0  0
   -2.0574   -2.6037    0.4937 H   0  0  0  0  0  0  0  0  0  0  0  0
   -1.8326   -0.9003    2.3050 H   0  0  0  0  0  0  0  0  0  0  0  0
  1  2  3  0
  2  3  1  0
  3  4  1  0
  4  5  2  0
  5  6  1  0
  6  7  2  0
  7  8  1  0
  8  9  2  0
  9  4  1  0
  3 10  1  0
  3 11  1  0
  5 12  1  0
  6 13  1  0
  7 14  1  0
  8 15  1  0
M  END
$$$$
