
     RDKit          3D

 65 69  0  0  0  0  0  0  0  0999 V2000
    8.0767    0.0892    2.9710 C   0  0  0  0  0  0  0  0  0  0  0  0
    7.5945    0.0643    1.5533 C   0  0  0  0  0  0  0  0  0  0  0  0
    6.2665    0.1382    1.3655 N   0  0  0  0  0  0  0  0  0  0  0  0
    5.7466    0.0973    0.1174 C   0  0  0  0  0  0  0  0  0  0  0  0
    4.3652    0.1748   -0.1313 N   0  0  0  0  0  0  0  0  0  0  0  0
    3.3292    0.2261    0.7316 C   0  0  0  0  0  0  0  0  0  0  0  0
    3.3553    0.2341    2.0762 N   0  0  0  0  0  0  0  0  0  0  0  0
    2.0634    0.2649    2.4663 N   0  0  0  0  0  0  0  0  0  0  0  0
    1.2305    0.2793    1.4095 C   0  0  0  0  0  0  0  0  0  0  0  0
    2.0007    0.2680    0.2903 C   0  0  0  0  0  0  0  0  0  0  0  0
    1.1785    0.2878   -0.9167 C   0  0  0  0  0  0  0  0  0  0  0  0
   -0.1986    0.2645   -0.3369 N   0  0  0  0  0  0  0  0  0  0  0  0
   -1.2294    0.1972   -1.2430 C   0  0  0  0  0  0  0  0  0  0  0  0
   -1.0221    0.2182   -2.4549 O   0  0  0  0  0  0  0  0  0  0  0  0
   -2.4792    0.0527   -0.7298 N   0  0  0  0  0  0  0  0  0  0  0  0
   -3.6784    0.0611   -1.5704 C   0  0  2  0  0  0  0  0  0  0  0  0
   -4.4766    1.3671   -1.2388 C   0  0  0  0  0  0  0  0  0  0  0  0
   -4.5687    1.7037    0.2127 N   0  0  0  0  0  0  0  0  0  0  0  0
   -5.5042    0.8172    0.9134 C   0  0  0  0  0  0  0  0  0  0  0  0
   -5.0160    3.0929    0.3620 C   0  0  0  0  0  0  0  0  0  0  0  0
   -4.4847   -1.2316   -1.4612 C   0  0  0  0  0  0  0  0  0  0  0  0
   -5.7154   -1.3535   -2.1316 C   0  0  0  0  0  0  0  0  0  0  0  0
   -6.4627   -2.5328   -2.0624 C   0  0  0  0  0  0  0  0  0  0  0  0
   -5.9866   -3.6195   -1.3354 C   0  0  0  0  0  0  0  0  0  0  0  0
   -4.7583   -3.5316   -0.6866 C   0  0  0  0  0  0  0  0  0  0  0  0
   -4.0114   -2.3515   -0.7552 C   0  0  0  0  0  0  0  0  0  0  0  0
   -0.2306    0.3001    1.1795 C   0  0  0  0  0  0  0  0  0  0  0  0
   -0.8844   -0.9394    1.7952 C   0  0  0  0  0  0  0  0  0  0  0  0
   -0.8238    1.6063    1.7172 C   0  0  0  0  0  0  0  0  0  0  0  0
    6.6614   -0.0287   -0.9393 C   0  0  0  0  0  0  0  0  0  0  0  0
    6.3719   -0.1118   -2.6377 S   0  0  0  0  0  0  0  0  0  0  0  0
    8.0373   -0.2613   -2.9882 C   0  0  0  0  0  0  0  0  0  0  0  0
    8.8051   -0.2440   -1.8468 C   0  0  0  0  0  0  0  0  0  0  0  0
    8.0209   -0.1102   -0.6631 C   0  0  0  0  0  0  0  0  0  0  0  0
    8.5189   -0.0679    0.5934 N   0  0  0  0  0  0  0  0  0  0  0  0
    7.4629    0.7674    3.5729 H   0  0  0  0  0  0  0  0  0  0  0  0
    8.0163   -0.9163    3.3973 H   0  0  0  0  0  0  0  0  0  0  0  0
    9.1158    0.4316    3.0220 H   0  0  0  0  0  0  0  0  0  0  0  0
    4.1708    0.1397   -1.1228 H   0  0  0  0  0  0  0  0  0  0  0  0
    1.8594    0.2757    3.4598 H   0  0  0  0  0  0  0  0  0  0  0  0
    1.3226   -0.5943   -1.5487 H   0  0  0  0  0  0  0  0  0  0  0  0
    1.3037    1.2049   -1.5013 H   0  0  0  0  0  0  0  0  0  0  0  0
   -2.6614    0.4490    0.1771 H   0  0  0  0  0  0  0  0  0  0  0  0
   -3.3711    0.1255   -2.6224 H   0  0  0  0  0  0  0  0  0  0  0  0
   -5.4676    1.3755   -1.7062 H   0  0  0  0  0  0  0  0  0  0  0  0
   -3.9096    2.1794   -1.7165 H   0  0  0  0  0  0  0  0  0  0  0  0
   -5.6366    1.1421    1.9524 H   0  0  0  0  0  0  0  0  0  0  0  0
   -5.1147   -0.2014    0.9722 H   0  0  0  0  0  0  0  0  0  0  0  0
   -6.4914    0.7946    0.4377 H   0  0  0  0  0  0  0  0  0  0  0  0
   -4.3010    3.7798   -0.1032 H   0  0  0  0  0  0  0  0  0  0  0  0
   -6.0010    3.2588   -0.0883 H   0  0  0  0  0  0  0  0  0  0  0  0
   -5.0683    3.3711    1.4204 H   0  0  0  0  0  0  0  0  0  0  0  0
   -6.1034   -0.5341   -2.7309 H   0  0  0  0  0  0  0  0  0  0  0  0
   -7.4127   -2.6058   -2.5879 H   0  0  0  0  0  0  0  0  0  0  0  0
   -6.5640   -4.5390   -1.2871 H   0  0  0  0  0  0  0  0  0  0  0  0
   -4.3730   -4.3840   -0.1334 H   0  0  0  0  0  0  0  0  0  0  0  0
   -3.0459   -2.3234   -0.2528 H   0  0  0  0  0  0  0  0  0  0  0  0
   -1.9672   -0.9497    1.6521 H   0  0  0  0  0  0  0  0  0  0  0  0
   -0.4853   -1.8615    1.3577 H   0  0  0  0  0  0  0  0  0  0  0  0
   -0.7042   -0.9841    2.8757 H   0  0  0  0  0  0  0  0  0  0  0  0
   -0.3702    2.4796    1.2335 H   0  0  0  0  0  0  0  0  0  0  0  0
   -1.9021    1.6744    1.5589 H   0  0  0  0  0  0  0  0  0  0  0  0
   -0.6515    1.7016    2.7958 H   0  0  0  0  0  0  0  0  0  0  0  0
    8.3746   -0.3530   -4.0116 H   0  0  0  0  0  0  0  0  0  0  0  0
    9.8848   -0.3248   -1.8479 H   0  0  0  0  0  0  0  0  0  0  0  0
  1  2  1  0
  2  3  2  0
  3  4  1  0
  4  5  1  0
  5  6  1  0
  6  7  2  0
  7  8  1  0
  8  9  1  0
  9 10  2  0
 10 11  1  0
 11 12  1  0
 12 13  1  0
 13 14  2  0
 13 15  1  0
 15 16  1  0
 16 17  1  0
 17 18  1  0
 18 19  1  0
 18 20  1  0
 16 21  1  0
 21 22  2  0
 22 23  1  0
 23 24  2  0
 24 25  1  0
 25 26  2  0
 12 27  1  0
 27 28  1  0
 27 29  1  0
  4 30  2  0
 30 31  1  0
 31 32  1  0
 32 33  2  0
 33 34  1  0
 34 35  2  0
 35  2  1  0
 10  6  1  0
 26 21  1  0
 34 30  1  0
 27  9  1  0
  1 36  1  0
  1 37  1  0
  1 38  1  0
  5 39  1  0
  8 40  1  0
 11 41  1  0
 11 42  1  0
 15 43  1  0
 16 44  1  6
 17 45  1  0
 17 46  1  0
 19 47  1  0
 19 48  1  0
 19 49  1  0
 20 50  1  0
 20 51  1  0
 20 52  1  0
 22 53  1  0
 23 54  1  0
 24 55  1  0
 25 56  1  0
 26 57  1  0
 28 58  1  0
 28 59  1  0
 28 60  1  0
 29 61  1  0
 29 62  1  0
 29 63  1  0
 32 64  1  0
 33 65  1  0
M  END
$$$$
