
     RDKit          3D

 32 34  0  0  0  0  0  0  0  0999 V2000
   -4.8973   -1.3141   -0.3433 C   0  0  0  0  0  0  0  0  0  0  0  0
   -4.2530   -0.2038    0.3562 N   0  0  0  0  0  0  0  0  0  0  0  0
   -5.0629    1.0047    0.5011 C   0  0  0  0  0  0  0  0  0  0  0  0
   -2.8601   -0.0816    0.2999 C   0  0  0  0  0  0  0  0  0  0  0  0
   -2.0331   -1.1186   -0.1580 C   0  0  0  0  0  0  0  0  0  0  0  0
   -0.6334   -1.0009   -0.1991 C   0  0  0  0  0  0  0  0  0  0  0  0
    0.0165    0.1618    0.2293 C   0  0  0  0  0  0  0  0  0  0  0  0
    1.4920    0.2265    0.1610 C   0  0  0  0  0  0  0  0  0  0  0  0
    2.2436   -0.7482   -0.3162 N   0  0  0  0  0  0  0  0  0  0  0  0
    3.5839   -0.4109   -0.2544 C   0  0  0  0  0  0  0  0  0  0  0  0
    4.6601   -1.2167   -0.6783 C   0  0  0  0  0  0  0  0  0  0  0  0
    5.9718   -0.7466   -0.5562 C   0  0  0  0  0  0  0  0  0  0  0  0
    6.2212    0.5122   -0.0186 C   0  0  0  0  0  0  0  0  0  0  0  0
    5.1703    1.3299    0.4089 C   0  0  0  0  0  0  0  0  0  0  0  0
    3.8574    0.8464    0.2809 C   0  0  0  0  0  0  0  0  0  0  0  0
    2.3752    1.6016    0.7089 S   0  0  0  0  0  0  0  0  0  0  0  0
   -0.7913    1.1986    0.7046 C   0  0  0  0  0  0  0  0  0  0  0  0
   -2.1923    1.0724    0.7414 C   0  0  0  0  0  0  0  0  0  0  0  0
   -4.5627   -2.2796    0.0510 H   0  0  0  0  0  0  0  0  0  0  0  0
   -5.9840   -1.2944   -0.2027 H   0  0  0  0  0  0  0  0  0  0  0  0
   -4.7022   -1.2674   -1.4204 H   0  0  0  0  0  0  0  0  0  0  0  0
   -4.8656    1.5019    1.4568 H   0  0  0  0  0  0  0  0  0  0  0  0
   -6.1332    0.7693    0.5015 H   0  0  0  0  0  0  0  0  0  0  0  0
   -4.8794    1.7032   -0.3228 H   0  0  0  0  0  0  0  0  0  0  0  0
   -2.4503   -2.0605   -0.5004 H   0  0  0  0  0  0  0  0  0  0  0  0
   -0.0519   -1.8435   -0.5715 H   0  0  0  0  0  0  0  0  0  0  0  0
    4.4598   -2.1979   -1.0968 H   0  0  0  0  0  0  0  0  0  0  0  0
    6.7991   -1.3715   -0.8843 H   0  0  0  0  0  0  0  0  0  0  0  0
    7.2461    0.8664    0.0712 H   0  0  0  0  0  0  0  0  0  0  0  0
    5.3657    2.3120    0.8284 H   0  0  0  0  0  0  0  0  0  0  0  0
   -0.3643    2.1312    1.0637 H   0  0  0  0  0  0  0  0  0  0  0  0
   -2.7455    1.9182    1.1386 H   0  0  0  0  0  0  0  0  0  0  0  0
  1  2  1  0
  2  3  1  0
  2  4  1  0
  4  5  2  0
  5  6  1  0
  6  7  2  0
  7  8  1  0
  8  9  2  0
  9 10  1  0
 10 11  2  0
 11 12  1  0
 12 13  2  0
 13 14  1  0
 14 15  2  0
 15 16  1  0
  7 17  1  0
 17 18  2  0
 18  4  1  0
 16  8  1  0
 15 10  1  0
  1 19  1  0
  1 20  1  0
  1 21  1  0
  3 22  1  0
  3 23  1  0
  3 24  1  0
  5 25  1  0
  6 26  1  0
 11 27  1  0
 12 28  1  0
 13 29  1  0
 14 30  1  0
 17 31  1  0
 18 32  1  0
M  END
$$$$
