
     RDKit          3D

 47 50  0  0  0  0  0  0  0  0999 V2000
   -5.1800    2.2605    0.1805 C   0  0  0  0  0  0  0  0  0  0  0  0
   -4.0196    1.5272   -0.3224 N   0  0  0  0  0  0  0  0  0  0  0  0
   -3.2759    2.2330   -1.3743 C   0  0  0  0  0  0  0  0  0  0  0  0
   -3.1824    0.8944    0.6169 C   0  0  0  0  0  0  0  0  0  0  0  0
   -3.2473    1.1387    1.9975 C   0  0  0  0  0  0  0  0  0  0  0  0
   -2.3902    0.4963    2.8987 C   0  0  0  0  0  0  0  0  0  0  0  0
   -1.4526   -0.4228    2.4391 C   0  0  0  0  0  0  0  0  0  0  0  0
   -1.3780   -0.7119    1.0750 C   0  0  0  0  0  0  0  0  0  0  0  0
   -0.4083   -1.7022    0.5763 C   0  0  0  0  0  0  0  0  0  0  0  0
    0.8204   -1.3276    0.1884 C   0  0  0  0  0  0  0  0  0  0  0  0
    1.4807    0.0161    0.1578 C   0  0  0  0  0  0  0  0  0  0  0  0
    0.9275    1.0867    0.3287 O   0  0  0  0  0  0  0  0  0  0  0  0
    2.8186   -0.2692   -0.1996 N   0  0  0  0  0  0  0  0  0  0  0  0
    3.7808    0.6795   -0.6212 C   0  0  0  0  0  0  0  0  0  0  0  0
    4.5318    0.4212   -1.7833 C   0  0  0  0  0  0  0  0  0  0  0  0
    5.4672    1.3434   -2.2611 C   0  0  0  0  0  0  0  0  0  0  0  0
    5.6828    2.5339   -1.5759 C   0  0  0  0  0  0  0  0  0  0  0  0
    4.9782    2.7919   -0.4014 C   0  0  0  0  0  0  0  0  0  0  0  0
    4.0402    1.8696    0.0841 C   0  0  0  0  0  0  0  0  0  0  0  0
    3.3909    2.1990    1.6554 Cl  0  0  0  0  0  0  0  0  0  0  0  0
    2.9370   -1.6231   -0.6237 N   0  0  0  0  0  0  0  0  0  0  0  0
    1.7788   -2.2920   -0.2914 C   0  0  0  0  0  0  0  0  0  0  0  0
    1.4916   -3.5926   -0.3233 C   0  0  0  0  0  0  0  0  0  0  0  0
    0.1402   -4.0480    0.0981 C   0  0  0  0  0  0  0  0  0  0  0  0
   -0.1027   -5.2517    0.0513 O   0  0  0  0  0  0  0  0  0  0  0  0
   -0.7587   -3.0622    0.5226 N   0  0  0  0  0  0  0  0  0  0  0  0
   -2.0943   -3.4945    0.9248 C   0  0  0  0  0  0  0  0  0  0  0  0
   -2.2396   -0.0546    0.1819 C   0  0  0  0  0  0  0  0  0  0  0  0
   -5.8346    2.5409   -0.6525 H   0  0  0  0  0  0  0  0  0  0  0  0
   -4.8831    3.1804    0.6965 H   0  0  0  0  0  0  0  0  0  0  0  0
   -5.7818    1.6396    0.8537 H   0  0  0  0  0  0  0  0  0  0  0  0
   -2.6371    3.0150   -0.9475 H   0  0  0  0  0  0  0  0  0  0  0  0
   -3.9707    2.7122   -2.0736 H   0  0  0  0  0  0  0  0  0  0  0  0
   -2.6593    1.5548   -1.9726 H   0  0  0  0  0  0  0  0  0  0  0  0
   -3.9498    1.8585    2.4057 H   0  0  0  0  0  0  0  0  0  0  0  0
   -2.4531    0.7243    3.9594 H   0  0  0  0  0  0  0  0  0  0  0  0
   -0.7884   -0.9117    3.1468 H   0  0  0  0  0  0  0  0  0  0  0  0
    4.3639   -0.4851   -2.3611 H   0  0  0  0  0  0  0  0  0  0  0  0
    6.0185    1.1335   -3.1748 H   0  0  0  0  0  0  0  0  0  0  0  0
    6.4087    3.2541   -1.9450 H   0  0  0  0  0  0  0  0  0  0  0  0
    5.1802    3.7076    0.1499 H   0  0  0  0  0  0  0  0  0  0  0  0
    3.7767   -2.0823   -0.2690 H   0  0  0  0  0  0  0  0  0  0  0  0
    2.1822   -4.3513   -0.6633 H   0  0  0  0  0  0  0  0  0  0  0  0
   -2.2303   -4.5715    0.7922 H   0  0  0  0  0  0  0  0  0  0  0  0
   -2.8450   -2.9862    0.3122 H   0  0  0  0  0  0  0  0  0  0  0  0
   -2.2480   -3.2650    1.9836 H   0  0  0  0  0  0  0  0  0  0  0  0
   -2.1862   -0.3069   -0.8743 H   0  0  0  0  0  0  0  0  0  0  0  0
  1  2  1  0
  2  3  1  0
  2  4  1  0
  4  5  2  0
  5  6  1  0
  6  7  2  0
  7  8  1  0
  8  9  1  0
  9 10  2  0
 10 11  1  0
 11 12  2  0
 11 13  1  0
 13 14  1  0
 14 15  2  0
 15 16  1  0
 16 17  2  0
 17 18  1  0
 18 19  2  0
 19 20  1  0
 13 21  1  0
 21 22  1  0
 22 23  2  0
 23 24  1  0
 24 25  2  0
 24 26  1  0
 26 27  1  0
  8 28  2  0
 28  4  1  0
 26  9  1  0
 22 10  1  0
 19 14  1  0
  1 29  1  0
  1 30  1  0
  1 31  1  0
  3 32  1  0
  3 33  1  0
  3 34  1  0
  5 35  1  0
  6 36  1  0
  7 37  1  0
 15 38  1  0
 16 39  1  0
 17 40  1  0
 18 41  1  0
 21 42  1  0
 23 43  1  0
 27 44  1  0
 27 45  1  0
 27 46  1  0
 28 47  1  0
M  END
$$$$
