
     RDKit          3D

 31 31  0  0  0  0  0  0  0  0999 V2000
    3.5481    0.4892    0.1604 C   0  0  0  0  0  0  0  0  0  0  0  0
    3.4458   -0.6506    1.1566 C   0  0  0  0  0  0  0  0  0  0  0  0
    2.0879   -1.1069    1.2420 O   0  0  0  0  0  0  0  0  0  0  0  0
    1.7164   -2.0420    0.3274 C   0  0  0  0  0  0  0  0  0  0  0  0
    2.4507   -2.5468   -0.5151 O   0  0  0  0  0  0  0  0  0  0  0  0
    0.2478   -2.4462    0.5030 C   0  0  2  0  0  0  0  0  0  0  0  0
   -0.1827   -3.3204   -0.5423 O   0  0  0  0  0  0  0  0  0  0  0  0
   -0.6974   -1.2452    0.5625 C   0  0  0  0  0  0  0  0  0  0  0  0
   -0.7131   -0.4336   -0.7386 C   0  0  0  0  0  0  0  0  0  0  0  0
   -1.6049    0.7779   -0.6191 C   0  0  0  0  0  0  0  0  0  0  0  0
   -1.0872    2.0002   -0.1698 C   0  0  0  0  0  0  0  0  0  0  0  0
   -1.9175    3.1148   -0.0425 C   0  0  0  0  0  0  0  0  0  0  0  0
   -3.2715    3.0167   -0.3581 C   0  0  0  0  0  0  0  0  0  0  0  0
   -3.7971    1.8037   -0.7996 C   0  0  0  0  0  0  0  0  0  0  0  0
   -2.9686    0.6880   -0.9277 C   0  0  0  0  0  0  0  0  0  0  0  0
    2.8595    1.2973    0.4288 H   0  0  0  0  0  0  0  0  0  0  0  0
    4.5661    0.8878    0.1297 H   0  0  0  0  0  0  0  0  0  0  0  0
    3.2719    0.1575   -0.8455 H   0  0  0  0  0  0  0  0  0  0  0  0
    3.7274   -0.2953    2.1532 H   0  0  0  0  0  0  0  0  0  0  0  0
    4.1274   -1.4701    0.9017 H   0  0  0  0  0  0  0  0  0  0  0  0
    0.1839   -3.0146    1.4376 H   0  0  0  0  0  0  0  0  0  0  0  0
    0.6114   -3.8051   -0.8436 H   0  0  0  0  0  0  0  0  0  0  0  0
   -0.4279   -0.5966    1.4052 H   0  0  0  0  0  0  0  0  0  0  0  0
   -1.7147   -1.6090    0.7587 H   0  0  0  0  0  0  0  0  0  0  0  0
    0.2992   -0.1044   -1.0031 H   0  0  0  0  0  0  0  0  0  0  0  0
   -1.0565   -1.0539   -1.5757 H   0  0  0  0  0  0  0  0  0  0  0  0
   -0.0336    2.0909    0.0833 H   0  0  0  0  0  0  0  0  0  0  0  0
   -1.5080    4.0600    0.3037 H   0  0  0  0  0  0  0  0  0  0  0  0
   -3.9175    3.8849   -0.2590 H   0  0  0  0  0  0  0  0  0  0  0  0
   -4.8531    1.7256   -1.0439 H   0  0  0  0  0  0  0  0  0  0  0  0
   -3.3922   -0.2538   -1.2699 H   0  0  0  0  0  0  0  0  0  0  0  0
  1  2  1  0
  2  3  1  0
  3  4  1  0
  4  5  2  0
  4  6  1  0
  6  7  1  0
  6  8  1  0
  8  9  1  0
  9 10  1  0
 10 11  2  0
 11 12  1  0
 12 13  2  0
 13 14  1  0
 14 15  2  0
 15 10  1  0
  1 16  1  0
  1 17  1  0
  1 18  1  0
  2 19  1  0
  2 20  1  0
  6 21  1  1
  7 22  1  0
  8 23  1  0
  8 24  1  0
  9 25  1  0
  9 26  1  0
 11 27  1  0
 12 28  1  0
 13 29  1  0
 14 30  1  0
 15 31  1  0
M  END
$$$$
