
     RDKit          3D

 32 34  0  0  0  0  0  0  0  0999 V2000
   -0.3270   -2.2628   -1.6515 O   0  0  0  0  0  0  0  0  0  0  0  0
   -0.2301   -1.2730   -0.9294 C   0  0  0  0  0  0  0  0  0  0  0  0
    1.1080   -0.9542   -0.3818 C   0  0  0  0  0  0  0  0  0  0  0  0
    1.8269   -1.9755    0.2745 C   0  0  0  0  0  0  0  0  0  0  0  0
    3.1030   -1.7237    0.7866 C   0  0  0  0  0  0  0  0  0  0  0  0
    3.6238   -0.4591    0.6101 C   0  0  0  0  0  0  0  0  0  0  0  0
    2.9290    0.5294   -0.0503 C   0  0  0  0  0  0  0  0  0  0  0  0
    1.6702    0.3151   -0.5679 C   0  0  0  0  0  0  0  0  0  0  0  0
    3.6282    1.6937   -0.1230 O   0  0  0  0  0  0  0  0  0  0  0  0
    4.8467    1.3230    0.5560 C   0  0  0  0  0  0  0  0  0  0  0  0
    4.8444   -0.0375    1.0360 O   0  0  0  0  0  0  0  0  0  0  0  0
   -1.3076   -0.4474   -0.6109 N   0  0  0  0  0  0  0  0  0  0  0  0
   -1.3120    0.5167    0.4944 C   0  0  0  0  0  0  0  0  0  0  0  0
   -2.6789    0.6049    1.1656 C   0  0  0  0  0  0  0  0  0  0  0  0
   -3.7827    0.9795    0.1766 C   0  0  0  0  0  0  0  0  0  0  0  0
   -3.4995    0.4983   -1.2467 C   0  0  0  0  0  0  0  0  0  0  0  0
   -2.5846   -0.7192   -1.2674 C   0  0  0  0  0  0  0  0  0  0  0  0
    1.3860   -2.9653    0.3774 H   0  0  0  0  0  0  0  0  0  0  0  0
    3.6675   -2.4965    1.2961 H   0  0  0  0  0  0  0  0  0  0  0  0
    1.1493    1.0960   -1.1089 H   0  0  0  0  0  0  0  0  0  0  0  0
    5.6867    1.4496   -0.1367 H   0  0  0  0  0  0  0  0  0  0  0  0
    4.9901    1.9953    1.4097 H   0  0  0  0  0  0  0  0  0  0  0  0
   -1.0360    1.4921    0.0779 H   0  0  0  0  0  0  0  0  0  0  0  0
   -0.5614    0.2389    1.2406 H   0  0  0  0  0  0  0  0  0  0  0  0
   -2.9189   -0.3689    1.6119 H   0  0  0  0  0  0  0  0  0  0  0  0
   -2.6548    1.3293    1.9873 H   0  0  0  0  0  0  0  0  0  0  0  0
   -4.7318    0.5595    0.5309 H   0  0  0  0  0  0  0  0  0  0  0  0
   -3.9170    2.0679    0.1617 H   0  0  0  0  0  0  0  0  0  0  0  0
   -4.4424    0.2776   -1.7592 H   0  0  0  0  0  0  0  0  0  0  0  0
   -3.0205    1.3123   -1.8063 H   0  0  0  0  0  0  0  0  0  0  0  0
   -2.4025   -1.0326   -2.3016 H   0  0  0  0  0  0  0  0  0  0  0  0
   -3.0522   -1.5634   -0.7462 H   0  0  0  0  0  0  0  0  0  0  0  0
  1  2  2  0
  2  3  1  0
  3  4  2  0
  4  5  1  0
  5  6  2  0
  6  7  1  0
  7  8  2  0
  7  9  1  0
  9 10  1  0
 10 11  1  0
  2 12  1  0
 12 13  1  0
 13 14  1  0
 14 15  1  0
 15 16  1  0
 16 17  1  0
  8  3  1  0
 17 12  1  0
 11  6  1  0
  4 18  1  0
  5 19  1  0
  8 20  1  0
 10 21  1  0
 10 22  1  0
 13 23  1  0
 13 24  1  0
 14 25  1  0
 14 26  1  0
 15 27  1  0
 15 28  1  0
 16 29  1  0
 16 30  1  0
 17 31  1  0
 17 32  1  0
M  END
$$$$
