
     RDKit          3D

 35 36  0  0  0  0  0  0  0  0999 V2000
   -5.5717   -0.7641    0.4481 N   0  0  0  0  0  0  0  0  0  0  0  0
   -4.3284   -0.0453    0.0557 C   0  0  1  0  0  0  0  0  0  0  0  0
   -3.1636   -1.0430   -0.0319 C   0  0  0  0  0  0  0  0  0  0  0  0
   -1.8035   -0.3801   -0.0464 C   0  0  0  0  0  0  0  0  0  0  0  0
   -1.1001   -0.2171   -1.2474 C   0  0  0  0  0  0  0  0  0  0  0  0
    0.1520    0.4092   -1.2585 C   0  0  0  0  0  0  0  0  0  0  0  0
    1.0949    0.6505   -3.1166 I   0  0  0  0  0  0  0  0  0  0  0  0
    0.7275    0.8596   -0.0619 C   0  0  0  0  0  0  0  0  0  0  0  0
    1.9473    1.4927   -0.0738 O   0  0  0  0  0  0  0  0  0  0  0  0
    3.0858    0.7268    0.0906 C   0  0  0  0  0  0  0  0  0  0  0  0
    4.2822    1.4489    0.0561 C   0  0  0  0  0  0  0  0  0  0  0  0
    5.5040    0.7907    0.2101 C   0  0  0  0  0  0  0  0  0  0  0  0
    7.2581    1.9269    0.1486 I   0  0  0  0  0  0  0  0  0  0  0  0
    5.5398   -0.5947    0.4001 C   0  0  0  0  0  0  0  0  0  0  0  0
    6.7293   -1.2562    0.5527 O   0  0  0  0  0  0  0  0  0  0  0  0
    4.3419   -1.3152    0.4346 C   0  0  0  0  0  0  0  0  0  0  0  0
    4.3084   -3.3909    0.7146 I   0  0  0  0  0  0  0  0  0  0  0  0
    3.1158   -0.6578    0.2806 C   0  0  0  0  0  0  0  0  0  0  0  0
    0.0102    0.7302    1.1359 C   0  0  0  0  0  0  0  0  0  0  0  0
    0.7359    1.4626    2.9621 I   0  0  0  0  0  0  0  0  0  0  0  0
   -1.2419    0.1045    1.1434 C   0  0  0  0  0  0  0  0  0  0  0  0
   -4.5228    0.6607   -1.2931 C   0  0  0  0  0  0  0  0  0  0  0  0
   -3.8856    1.6105   -1.7171 O   0  0  0  0  0  0  0  0  0  0  0  0
   -5.4935    0.1058   -2.0559 O   0  0  0  0  0  0  0  0  0  0  0  0
   -6.3189   -0.0748    0.5475 H   0  0  0  0  0  0  0  0  0  0  0  0
   -5.8629   -1.3266   -0.3577 H   0  0  0  0  0  0  0  0  0  0  0  0
   -4.1473    0.7246    0.8140 H   0  0  0  0  0  0  0  0  0  0  0  0
   -3.2699   -1.6816   -0.9192 H   0  0  0  0  0  0  0  0  0  0  0  0
   -3.1865   -1.7258    0.8287 H   0  0  0  0  0  0  0  0  0  0  0  0
   -1.5408   -0.5681   -2.1787 H   0  0  0  0  0  0  0  0  0  0  0  0
    4.2434    2.5257   -0.0923 H   0  0  0  0  0  0  0  0  0  0  0  0
    7.4474   -0.6005    0.5024 H   0  0  0  0  0  0  0  0  0  0  0  0
    2.1974   -1.2361    0.3110 H   0  0  0  0  0  0  0  0  0  0  0  0
   -1.7929   -0.0056    2.0764 H   0  0  0  0  0  0  0  0  0  0  0  0
   -5.4909    0.6535   -2.8701 H   0  0  0  0  0  0  0  0  0  0  0  0
  1  2  1  0
  2  3  1  0
  3  4  1  0
  4  5  2  0
  5  6  1  0
  6  7  1  0
  6  8  2  0
  8  9  1  0
  9 10  1  0
 10 11  2  0
 11 12  1  0
 12 13  1  0
 12 14  2  0
 14 15  1  0
 14 16  1  0
 16 17  1  0
 16 18  2  0
  8 19  1  0
 19 20  1  0
 19 21  2  0
  2 22  1  0
 22 23  2  0
 22 24  1  0
 21  4  1  0
 18 10  1  0
  1 25  1  0
  1 26  1  0
  2 27  1  1
  3 28  1  0
  3 29  1  0
  5 30  1  0
 11 31  1  0
 15 32  1  0
 18 33  1  0
 21 34  1  0
 24 35  1  0
M  END
$$$$
