
     RDKit          3D

 46 49  0  0  0  0  0  0  0  0999 V2000
    7.4976    2.9685   -0.6998 C   0  0  0  0  0  0  0  0  0  0  0  0
    6.9681    1.5937   -0.6434 C   0  0  0  0  0  0  0  0  0  0  0  0
    7.7469    0.5184   -0.8149 N   0  0  0  0  0  0  0  0  0  0  0  0
    6.8505   -0.5445   -0.6825 O   0  0  0  0  0  0  0  0  0  0  0  0
    5.6207    0.0063   -0.4445 C   0  0  0  0  0  0  0  0  0  0  0  0
    4.5023   -0.9114   -0.2683 C   0  0  0  0  0  0  0  0  0  0  0  0
    4.6639   -2.2964   -0.3388 C   0  0  0  0  0  0  0  0  0  0  0  0
    3.5540   -3.1011   -0.1610 C   0  0  0  0  0  0  0  0  0  0  0  0
    2.3147   -2.6264    0.0776 N   0  0  0  0  0  0  0  0  0  0  0  0
    2.1526   -1.2799    0.1474 C   0  0  0  0  0  0  0  0  0  0  0  0
    0.8446   -0.7396    0.4065 N   0  0  0  0  0  0  0  0  0  0  0  0
    0.6672    0.6103    0.4946 N   0  0  0  0  0  0  0  0  0  0  0  0
   -0.6198    0.7646    0.7877 C   0  0  0  0  0  0  0  0  0  0  0  0
   -1.3272   -0.4506    0.8570 C   0  0  0  0  0  0  0  0  0  0  0  0
   -2.7371   -0.6651    1.1566 C   0  0  0  0  0  0  0  0  0  0  0  0
   -3.1749   -1.7311    1.5752 O   0  0  0  0  0  0  0  0  0  0  0  0
   -3.5472    0.4274    0.9143 N   0  0  0  0  0  0  0  0  0  0  0  0
   -4.9929    0.3302    1.0431 C   0  0  0  0  0  0  0  0  0  0  0  0
   -5.6397    1.7104    1.1077 C   0  0  0  0  0  0  0  0  0  0  0  0
   -5.7763    2.1535   -0.3481 C   0  0  0  0  0  0  0  0  0  0  0  0
   -5.7183    0.8798   -1.1917 C   0  0  0  0  0  0  0  0  0  0  0  0
   -5.6361   -0.2780   -0.2013 C   0  0  0  0  0  0  0  0  0  0  0  0
   -0.3594   -1.4162    0.5961 C   0  0  0  0  0  0  0  0  0  0  0  0
   -0.4864   -2.8985    0.5121 C   0  0  0  0  0  0  0  0  0  0  0  0
    3.2221   -0.4003   -0.0200 C   0  0  0  0  0  0  0  0  0  0  0  0
    5.6450    1.3211   -0.4124 N   0  0  0  0  0  0  0  0  0  0  0  0
    7.9475    3.1683   -1.6772 H   0  0  0  0  0  0  0  0  0  0  0  0
    8.2598    3.1195    0.0709 H   0  0  0  0  0  0  0  0  0  0  0  0
    6.7009    3.7010   -0.5370 H   0  0  0  0  0  0  0  0  0  0  0  0
    5.6303   -2.7533   -0.5275 H   0  0  0  0  0  0  0  0  0  0  0  0
    3.6346   -4.1841   -0.2070 H   0  0  0  0  0  0  0  0  0  0  0  0
   -0.9898    1.7693    0.9481 H   0  0  0  0  0  0  0  0  0  0  0  0
   -3.1743    1.1782    0.3508 H   0  0  0  0  0  0  0  0  0  0  0  0
   -5.2218   -0.2604    1.9367 H   0  0  0  0  0  0  0  0  0  0  0  0
   -6.6395    1.6273    1.5516 H   0  0  0  0  0  0  0  0  0  0  0  0
   -5.0679    2.4302    1.7021 H   0  0  0  0  0  0  0  0  0  0  0  0
   -6.7113    2.7010   -0.5061 H   0  0  0  0  0  0  0  0  0  0  0  0
   -4.9546    2.8233   -0.6262 H   0  0  0  0  0  0  0  0  0  0  0  0
   -4.8263    0.8984   -1.8288 H   0  0  0  0  0  0  0  0  0  0  0  0
   -6.5882    0.7847   -1.8491 H   0  0  0  0  0  0  0  0  0  0  0  0
   -5.0817   -1.1270   -0.6130 H   0  0  0  0  0  0  0  0  0  0  0  0
   -6.6502   -0.6211    0.0382 H   0  0  0  0  0  0  0  0  0  0  0  0
    0.0653   -3.3814    1.3248 H   0  0  0  0  0  0  0  0  0  0  0  0
   -1.5260   -3.2268    0.5852 H   0  0  0  0  0  0  0  0  0  0  0  0
   -0.1168   -3.2685   -0.4495 H   0  0  0  0  0  0  0  0  0  0  0  0
    3.0749    0.6763    0.0405 H   0  0  0  0  0  0  0  0  0  0  0  0
  1  2  1  0
  2  3  2  0
  3  4  1  0
  4  5  1  0
  5  6  1  0
  6  7  2  0
  7  8  1  0
  8  9  2  0
  9 10  1  0
 10 11  1  0
 11 12  1  0
 12 13  2  0
 13 14  1  0
 14 15  1  0
 15 16  2  0
 15 17  1  0
 17 18  1  0
 18 19  1  0
 19 20  1  0
 20 21  1  0
 21 22  1  0
 14 23  2  0
 23 24  1  0
 10 25  2  0
  5 26  2  0
 26  2  1  0
 25  6  1  0
 23 11  1  0
 22 18  1  0
  1 27  1  0
  1 28  1  0
  1 29  1  0
  7 30  1  0
  8 31  1  0
 13 32  1  0
 17 33  1  0
 18 34  1  0
 19 35  1  0
 19 36  1  0
 20 37  1  0
 20 38  1  0
 21 39  1  0
 21 40  1  0
 22 41  1  0
 22 42  1  0
 24 43  1  0
 24 44  1  0
 24 45  1  0
 25 46  1  0
M  END
$$$$
