
     RDKit          3D

 56 59  0  0  0  0  0  0  0  0999 V2000
    8.5568    2.0050   -1.7054 C   0  0  0  0  0  0  0  0  0  0  0  0
    8.2142    1.0715   -0.6896 O   0  0  0  0  0  0  0  0  0  0  0  0
    6.8884    0.7733   -0.5330 C   0  0  0  0  0  0  0  0  0  0  0  0
    6.6183   -0.1391    0.4879 C   0  0  0  0  0  0  0  0  0  0  0  0
    5.3091   -0.5399    0.7649 C   0  0  0  0  0  0  0  0  0  0  0  0
    4.2511   -0.0254    0.0189 C   0  0  0  0  0  0  0  0  0  0  0  0
    2.8986   -0.3760    0.2236 N   0  0  0  0  0  0  0  0  0  0  0  0
    2.3519   -1.1967    1.1920 C   0  0  0  0  0  0  0  0  0  0  0  0
    2.9937   -1.7131    2.1019 O   0  0  0  0  0  0  0  0  0  0  0  0
    0.9095   -1.3765    1.0650 C   0  0  0  0  0  0  0  0  0  0  0  0
    0.2212   -1.6402    2.2207 O   0  0  0  0  0  0  0  0  0  0  0  0
   -1.0915   -1.7590    1.9105 C   0  0  0  0  0  0  0  0  0  0  0  0
   -2.1101   -2.0287    2.8229 C   0  0  0  0  0  0  0  0  0  0  0  0
   -3.4064   -2.1162    2.3068 C   0  0  0  0  0  0  0  0  0  0  0  0
   -3.6422   -1.9195    0.9404 C   0  0  0  0  0  0  0  0  0  0  0  0
   -5.3047   -2.0650    0.3101 S   0  0  0  0  0  6  0  0  0  0  0  0
   -6.0459   -2.9028    1.2284 O   0  0  0  0  0  0  0  0  0  0  0  0
   -5.2060   -2.4003   -1.0949 O   0  0  0  0  0  0  0  0  0  0  0  0
   -5.9153   -0.4891    0.4278 N   0  0  0  0  0  0  0  0  0  0  0  0
   -5.3200    0.5400   -0.4693 C   0  0  0  0  0  0  0  0  0  0  0  0
   -6.2082    1.7901   -0.4669 C   0  0  0  0  0  0  0  0  0  0  0  0
   -6.3692    2.3061    0.8638 O   0  0  0  0  0  0  0  0  0  0  0  0
   -6.9948    1.3241    1.7056 C   0  0  0  0  0  0  0  0  0  0  0  0
   -6.1420    0.0527    1.7973 C   0  0  0  0  0  0  0  0  0  0  0  0
   -2.5907   -1.6754    0.0387 C   0  0  0  0  0  0  0  0  0  0  0  0
   -1.2811   -1.5834    0.5479 C   0  0  0  0  0  0  0  0  0  0  0  0
    0.0195   -1.3593   -0.0097 C   0  0  0  0  0  0  0  0  0  0  0  0
    0.3264   -1.1835   -1.4541 C   0  0  0  0  0  0  0  0  0  0  0  0
    4.5166    0.8955   -1.0186 C   0  0  0  0  0  0  0  0  0  0  0  0
    3.4046    1.3378   -1.7038 O   0  0  0  0  0  0  0  0  0  0  0  0
    3.6155    2.2988   -2.7316 C   0  0  0  0  0  0  0  0  0  0  0  0
    5.8338    1.2903   -1.2885 C   0  0  0  0  0  0  0  0  0  0  0  0
    8.1034    2.9828   -1.5122 H   0  0  0  0  0  0  0  0  0  0  0  0
    8.2800    1.6290   -2.6959 H   0  0  0  0  0  0  0  0  0  0  0  0
    9.6434    2.1330   -1.6897 H   0  0  0  0  0  0  0  0  0  0  0  0
    7.4365   -0.5463    1.0782 H   0  0  0  0  0  0  0  0  0  0  0  0
    5.1551   -1.2546    1.5668 H   0  0  0  0  0  0  0  0  0  0  0  0
    2.2649    0.1088   -0.3990 H   0  0  0  0  0  0  0  0  0  0  0  0
   -1.8963   -2.1744    3.8756 H   0  0  0  0  0  0  0  0  0  0  0  0
   -4.2291   -2.3462    2.9821 H   0  0  0  0  0  0  0  0  0  0  0  0
   -4.3213    0.8027   -0.1033 H   0  0  0  0  0  0  0  0  0  0  0  0
   -5.2413    0.1626   -1.4929 H   0  0  0  0  0  0  0  0  0  0  0  0
   -7.1968    1.5763   -0.8905 H   0  0  0  0  0  0  0  0  0  0  0  0
   -5.7464    2.5757   -1.0731 H   0  0  0  0  0  0  0  0  0  0  0  0
   -7.9959    1.1039    1.3159 H   0  0  0  0  0  0  0  0  0  0  0  0
   -7.1116    1.7663    2.6999 H   0  0  0  0  0  0  0  0  0  0  0  0
   -6.6617   -0.6795    2.4219 H   0  0  0  0  0  0  0  0  0  0  0  0
   -5.1759    0.2961    2.2528 H   0  0  0  0  0  0  0  0  0  0  0  0
   -2.7809   -1.5657   -1.0254 H   0  0  0  0  0  0  0  0  0  0  0  0
    1.2728   -1.6655   -1.7185 H   0  0  0  0  0  0  0  0  0  0  0  0
    0.3906   -0.1197   -1.7033 H   0  0  0  0  0  0  0  0  0  0  0  0
   -0.4507   -1.6313   -2.0818 H   0  0  0  0  0  0  0  0  0  0  0  0
    2.6388    2.5542   -3.1538 H   0  0  0  0  0  0  0  0  0  0  0  0
    4.2281    1.8841   -3.5388 H   0  0  0  0  0  0  0  0  0  0  0  0
    4.0544    3.2178   -2.3296 H   0  0  0  0  0  0  0  0  0  0  0  0
    6.0388    1.9941   -2.0834 H   0  0  0  0  0  0  0  0  0  0  0  0
  1  2  1  0
  2  3  1  0
  3  4  2  0
  4  5  1  0
  5  6  2  0
  6  7  1  0
  7  8  1  0
  8  9  2  0
  8 10  1  0
 10 11  1  0
 11 12  1  0
 12 13  2  0
 13 14  1  0
 14 15  2  0
 15 16  1  0
 16 17  2  0
 16 18  2  0
 16 19  1  0
 19 20  1  0
 20 21  1  0
 21 22  1  0
 22 23  1  0
 23 24  1  0
 15 25  1  0
 25 26  2  0
 26 27  1  0
 27 28  1  0
  6 29  1  0
 29 30  1  0
 30 31  1  0
 29 32  2  0
 32  3  1  0
 27 10  2  0
 26 12  1  0
 24 19  1  0
  1 33  1  0
  1 34  1  0
  1 35  1  0
  4 36  1  0
  5 37  1  0
  7 38  1  0
 13 39  1  0
 14 40  1  0
 20 41  1  0
 20 42  1  0
 21 43  1  0
 21 44  1  0
 23 45  1  0
 23 46  1  0
 24 47  1  0
 24 48  1  0
 25 49  1  0
 28 50  1  0
 28 51  1  0
 28 52  1  0
 31 53  1  0
 31 54  1  0
 31 55  1  0
 32 56  1  0
M  END
$$$$
