
     RDKit          3D

 49 53  0  0  0  0  0  0  0  0999 V2000
    4.1790   -2.2445    2.2545 C   0  0  0  0  0  0  0  0  0  0  0  0
    3.8445   -2.1415    0.7735 C   0  0  0  0  0  0  0  0  0  0  0  0
    3.0575   -0.8927    0.4555 C   0  0  0  0  0  0  0  0  0  0  0  0
    1.6705   -0.9463    0.4185 C   0  0  0  0  0  0  0  0  0  0  0  0
    0.9543    0.2119    0.1404 C   0  0  0  0  0  0  0  0  0  0  0  0
    1.4733    1.4172   -0.1069 N   0  0  0  0  0  0  0  0  0  0  0  0
    2.8125    1.4921   -0.0662 C   0  0  0  0  0  0  0  0  0  0  0  0
    3.3842    2.7323   -0.3086 C   0  0  0  0  0  0  0  0  0  0  0  0
    4.7653    2.9243   -0.2852 C   0  0  0  0  0  0  0  0  0  0  0  0
    5.5942    1.8521   -0.0115 C   0  0  0  0  0  0  0  0  0  0  0  0
    6.9377    2.0776    0.0064 O   0  0  0  0  0  0  0  0  0  0  0  0
    5.0623    0.5902    0.2365 C   0  0  0  0  0  0  0  0  0  0  0  0
    3.6633    0.3754    0.2134 C   0  0  0  0  0  0  0  0  0  0  0  0
   -0.4656   -0.1179    0.1657 C   0  0  0  0  0  0  0  0  0  0  0  0
   -1.5400    0.6491   -0.0385 C   0  0  0  0  0  0  0  0  0  0  0  0
   -2.8657    0.0490    0.0496 C   0  0  0  0  0  0  0  0  0  0  0  0
   -2.9964   -1.2609    0.3332 C   0  0  0  0  0  0  0  0  0  0  0  0
   -1.7880   -2.1191    0.5558 C   0  0  0  0  0  0  0  0  0  0  0  0
   -1.8964   -3.3166    0.7964 O   0  0  0  0  0  0  0  0  0  0  0  0
   -0.5896   -1.4615    0.4557 N   0  0  0  0  0  0  0  0  0  0  0  0
    0.7212   -2.0894    0.6372 C   0  0  0  0  0  0  0  0  0  0  0  0
   -4.3154   -1.9425    0.4252 C   0  0  0  0  0  0  0  0  0  0  0  0
   -5.4439   -1.0515    0.5522 O   0  0  0  0  0  0  0  0  0  0  0  0
   -5.3229    0.2917    0.4928 C   0  0  0  0  0  0  0  0  0  0  0  0
   -6.2012    1.0263    0.9480 O   0  0  0  0  0  0  0  0  0  0  0  0
   -4.0903    0.8867   -0.2250 C   0  0  1  0  0  0  0  0  0  0  0  0
   -3.8660    2.2092    0.2825 O   0  0  0  0  0  0  0  0  0  0  0  0
   -4.3556    0.9706   -1.7438 C   0  0  0  0  0  0  0  0  0  0  0  0
   -5.4968    1.9048   -2.1357 C   0  0  0  0  0  0  0  0  0  0  0  0
    4.7393   -3.1640    2.4516 H   0  0  0  0  0  0  0  0  0  0  0  0
    4.7885   -1.3992    2.5899 H   0  0  0  0  0  0  0  0  0  0  0  0
    3.2701   -2.2645    2.8654 H   0  0  0  0  0  0  0  0  0  0  0  0
    3.2755   -3.0295    0.4725 H   0  0  0  0  0  0  0  0  0  0  0  0
    4.7590   -2.1813    0.1717 H   0  0  0  0  0  0  0  0  0  0  0  0
    2.7352    3.5791   -0.5209 H   0  0  0  0  0  0  0  0  0  0  0  0
    5.1843    3.9078   -0.4779 H   0  0  0  0  0  0  0  0  0  0  0  0
    7.3985    1.2483    0.2135 H   0  0  0  0  0  0  0  0  0  0  0  0
    5.7392   -0.2295    0.4524 H   0  0  0  0  0  0  0  0  0  0  0  0
   -1.4380    1.7079   -0.2615 H   0  0  0  0  0  0  0  0  0  0  0  0
    0.8418   -2.8811   -0.1085 H   0  0  0  0  0  0  0  0  0  0  0  0
    0.7848   -2.4969    1.6508 H   0  0  0  0  0  0  0  0  0  0  0  0
   -4.3499   -2.5930    1.3056 H   0  0  0  0  0  0  0  0  0  0  0  0
   -4.4864   -2.5651   -0.4593 H   0  0  0  0  0  0  0  0  0  0  0  0
   -4.7426    2.5504    0.5539 H   0  0  0  0  0  0  0  0  0  0  0  0
   -3.4541    1.3363   -2.2531 H   0  0  0  0  0  0  0  0  0  0  0  0
   -4.5688   -0.0271   -2.1483 H   0  0  0  0  0  0  0  0  0  0  0  0
   -5.3139    2.9275   -1.7926 H   0  0  0  0  0  0  0  0  0  0  0  0
   -5.5962    1.9329   -3.2259 H   0  0  0  0  0  0  0  0  0  0  0  0
   -6.4524    1.5652   -1.7261 H   0  0  0  0  0  0  0  0  0  0  0  0
  1  2  1  0
  2  3  1  0
  3  4  2  0
  4  5  1  0
  5  6  2  0
  6  7  1  0
  7  8  2  0
  8  9  1  0
  9 10  2  0
 10 11  1  0
 10 12  1  0
 12 13  2  0
  5 14  1  0
 14 15  2  0
 15 16  1  0
 16 17  2  0
 17 18  1  0
 18 19  2  0
 18 20  1  0
 20 21  1  0
 17 22  1  0
 22 23  1  0
 23 24  1  0
 24 25  2  0
 24 26  1  0
 26 27  1  1
 26 28  1  0
 28 29  1  0
 13  3  1  0
 20 14  1  0
 21  4  1  0
 13  7  1  0
 26 16  1  0
  1 30  1  0
  1 31  1  0
  1 32  1  0
  2 33  1  0
  2 34  1  0
  8 35  1  0
  9 36  1  0
 11 37  1  0
 12 38  1  0
 15 39  1  0
 21 40  1  0
 21 41  1  0
 22 42  1  0
 22 43  1  0
 27 44  1  0
 28 45  1  0
 28 46  1  0
 29 47  1  0
 29 48  1  0
 29 49  1  0
M  END
$$$$
