
     RDKit          3D

 48 52  0  0  0  0  0  0  0  0999 V2000
   -1.3765   -0.9046   -3.5184 N   0  0  0  0  0  0  0  0  0  0  0  0
   -1.2617   -0.6723   -2.1852 C   0  0  0  0  0  0  0  0  0  0  0  0
   -0.6443    0.3698   -1.7113 N   0  0  0  0  0  0  0  0  0  0  0  0
   -0.7623    0.3090   -0.1944 C   0  0  1  0  0  0  0  0  0  0  0  0
    0.6399    0.2645    0.4637 C   0  0  0  0  0  0  0  0  0  0  0  0
    0.8139    0.5762    1.8241 C   0  0  0  0  0  0  0  0  0  0  0  0
    2.0731    0.5109    2.4185 C   0  0  0  0  0  0  0  0  0  0  0  0
    3.1833    0.1250    1.6675 C   0  0  0  0  0  0  0  0  0  0  0  0
    3.0578   -0.2041    0.3095 C   0  0  0  0  0  0  0  0  0  0  0  0
    4.2228   -0.6164   -0.4813 C   0  0  0  0  0  0  0  0  0  0  0  0
    4.2288   -1.7372   -1.2965 C   0  0  0  0  0  0  0  0  0  0  0  0
    5.2832   -2.1455   -2.0373 N   0  0  0  0  0  0  0  0  0  0  0  0
    6.3829   -1.3846   -1.9459 C   0  0  0  0  0  0  0  0  0  0  0  0
    6.5149   -0.2799   -1.1983 N   0  0  0  0  0  0  0  0  0  0  0  0
    5.4230    0.0760   -0.4853 C   0  0  0  0  0  0  0  0  0  0  0  0
    1.7774   -0.1296   -0.2711 C   0  0  0  0  0  0  0  0  0  0  0  0
   -1.5490    1.5741    0.2179 C   0  0  0  0  0  0  0  0  0  0  0  0
   -1.0139    2.8354   -0.0937 C   0  0  0  0  0  0  0  0  0  0  0  0
   -1.7027    3.9792    0.2710 C   0  0  0  0  0  0  0  0  0  0  0  0
   -2.8848    3.9671    0.9202 N   0  0  0  0  0  0  0  0  0  0  0  0
   -3.4234    2.7519    1.2048 C   0  0  0  0  0  0  0  0  0  0  0  0
   -4.7551    2.7058    1.9229 C   0  0  0  0  0  0  0  0  0  0  0  0
   -5.6879    1.9621    1.2581 F   0  0  0  0  0  0  0  0  0  0  0  0
   -4.6592    2.1393    3.1624 F   0  0  0  0  0  0  0  0  0  0  0  0
   -2.7897    1.5514    0.8702 C   0  0  0  0  0  0  0  0  0  0  0  0
   -1.4803   -1.0082    0.0484 C   0  0  0  0  0  0  0  0  0  0  0  0
   -1.8123   -1.6816    1.2195 C   0  0  0  0  0  0  0  0  0  0  0  0
   -2.4769   -2.9116    1.1235 C   0  0  0  0  0  0  0  0  0  0  0  0
   -2.7891   -3.4622   -0.1308 C   0  0  0  0  0  0  0  0  0  0  0  0
   -2.4341   -2.7858   -1.2935 C   0  0  0  0  0  0  0  0  0  0  0  0
   -2.6973   -3.3233   -2.4917 F   0  0  0  0  0  0  0  0  0  0  0  0
   -1.7898   -1.5738   -1.1766 C   0  0  0  0  0  0  0  0  0  0  0  0
   -0.7545   -0.3568   -4.1022 H   0  0  0  0  0  0  0  0  0  0  0  0
   -1.5327   -1.8569   -3.8319 H   0  0  0  0  0  0  0  0  0  0  0  0
   -0.0330    0.8801    2.4364 H   0  0  0  0  0  0  0  0  0  0  0  0
    2.1897    0.7585    3.4709 H   0  0  0  0  0  0  0  0  0  0  0  0
    4.1511    0.0693    2.1628 H   0  0  0  0  0  0  0  0  0  0  0  0
    3.3533   -2.3770   -1.3772 H   0  0  0  0  0  0  0  0  0  0  0  0
    7.2441   -1.6906   -2.5295 H   0  0  0  0  0  0  0  0  0  0  0  0
    5.5498    0.9834    0.1004 H   0  0  0  0  0  0  0  0  0  0  0  0
    1.6639   -0.3669   -1.3287 H   0  0  0  0  0  0  0  0  0  0  0  0
   -0.0697    2.9212   -0.6253 H   0  0  0  0  0  0  0  0  0  0  0  0
   -1.3072    4.9644    0.0403 H   0  0  0  0  0  0  0  0  0  0  0  0
   -5.1617    3.7137    2.0480 H   0  0  0  0  0  0  0  0  0  0  0  0
   -3.2901    0.6212    1.1202 H   0  0  0  0  0  0  0  0  0  0  0  0
   -1.5670   -1.2710    2.1950 H   0  0  0  0  0  0  0  0  0  0  0  0
   -2.7490   -3.4500    2.0296 H   0  0  0  0  0  0  0  0  0  0  0  0
   -3.2973   -4.4196   -0.1997 H   0  0  0  0  0  0  0  0  0  0  0  0
  1  2  1  0
  2  3  2  0
  3  4  1  0
  4  5  1  1
  5  6  2  0
  6  7  1  0
  7  8  2  0
  8  9  1  0
  9 10  1  0
 10 11  2  0
 11 12  1  0
 12 13  2  0
 13 14  1  0
 14 15  2  0
  9 16  2  0
  4 17  1  0
 17 18  2  0
 18 19  1  0
 19 20  2  0
 20 21  1  0
 21 22  1  0
 22 23  1  0
 22 24  1  0
 21 25  2  0
  4 26  1  0
 26 27  2  0
 27 28  1  0
 28 29  2  0
 29 30  1  0
 30 31  1  0
 30 32  2  0
 32  2  1  0
 16  5  1  0
 25 17  1  0
 32 26  1  0
 15 10  1  0
  1 33  1  0
  1 34  1  0
  6 35  1  0
  7 36  1  0
  8 37  1  0
 11 38  1  0
 13 39  1  0
 15 40  1  0
 16 41  1  0
 18 42  1  0
 19 43  1  0
 22 44  1  0
 25 45  1  0
 27 46  1  0
 28 47  1  0
 29 48  1  0
M  END
$$$$
