
     RDKit          3D

 35 37  0  0  0  0  0  0  0  0999 V2000
   -4.3917   -0.1878    1.7698 C   0  0  0  0  0  0  0  0  0  0  0  0
   -3.0245   -0.1067    1.2634 N   0  0  0  0  0  0  0  0  0  0  0  0
   -2.4191   -1.4295    1.1219 C   0  0  0  0  0  0  0  0  0  0  0  0
   -0.9131   -1.2988    0.8685 C   0  0  0  0  0  0  0  0  0  0  0  0
   -0.5545   -0.0817   -0.0055 C   0  0  0  0  0  0  0  0  0  0  0  0
    0.6965   -0.3225   -0.8130 C   0  0  0  0  0  0  0  0  0  0  0  0
    0.8080   -1.0646   -1.9748 C   0  0  0  0  0  0  0  0  0  0  0  0
    2.1126   -1.0358   -2.3859 N   0  0  0  0  0  0  0  0  0  0  0  0
    2.8714   -0.2958   -1.5112 C   0  0  0  0  0  0  0  0  0  0  0  0
    4.2414   -0.0050   -1.5320 C   0  0  0  0  0  0  0  0  0  0  0  0
    4.7517    0.7799   -0.4950 C   0  0  0  0  0  0  0  0  0  0  0  0
    3.9192    1.2466    0.5129 C   0  0  0  0  0  0  0  0  0  0  0  0
    4.4850    2.0070    1.4967 O   0  0  0  0  0  0  0  0  0  0  0  0
    2.5535    0.9536    0.5276 C   0  0  0  0  0  0  0  0  0  0  0  0
    2.0132    0.1640   -0.5109 C   0  0  0  0  0  0  0  0  0  0  0  0
   -1.7534    0.3296   -0.8659 C   0  0  0  0  0  0  0  0  0  0  0  0
   -2.9718    0.6578    0.0075 C   0  0  0  0  0  0  0  0  0  0  0  0
   -5.0479   -0.7525    1.0979 H   0  0  0  0  0  0  0  0  0  0  0  0
   -4.8127    0.8149    1.9036 H   0  0  0  0  0  0  0  0  0  0  0  0
   -4.4096   -0.6700    2.7534 H   0  0  0  0  0  0  0  0  0  0  0  0
   -2.8947   -1.9911    0.3069 H   0  0  0  0  0  0  0  0  0  0  0  0
   -2.5571   -2.0214    2.0352 H   0  0  0  0  0  0  0  0  0  0  0  0
   -0.3840   -1.2049    1.8264 H   0  0  0  0  0  0  0  0  0  0  0  0
   -0.5587   -2.2349    0.4186 H   0  0  0  0  0  0  0  0  0  0  0  0
   -0.3540    0.7610    0.6716 H   0  0  0  0  0  0  0  0  0  0  0  0
    0.0677   -1.6108   -2.5438 H   0  0  0  0  0  0  0  0  0  0  0  0
    2.4747   -1.4949   -3.2098 H   0  0  0  0  0  0  0  0  0  0  0  0
    4.8899   -0.3728   -2.3200 H   0  0  0  0  0  0  0  0  0  0  0  0
    5.8099    1.0268   -0.4756 H   0  0  0  0  0  0  0  0  0  0  0  0
    3.7892    2.2569    2.1266 H   0  0  0  0  0  0  0  0  0  0  0  0
    1.9080    1.3191    1.3178 H   0  0  0  0  0  0  0  0  0  0  0  0
   -1.5062    1.1975   -1.4897 H   0  0  0  0  0  0  0  0  0  0  0  0
   -2.0160   -0.4846   -1.5547 H   0  0  0  0  0  0  0  0  0  0  0  0
   -2.9519    1.7243    0.2626 H   0  0  0  0  0  0  0  0  0  0  0  0
   -3.8709    0.4942   -0.6012 H   0  0  0  0  0  0  0  0  0  0  0  0
  1  2  1  0
  2  3  1  0
  3  4  1  0
  4  5  1  0
  5  6  1  0
  6  7  2  0
  7  8  1  0
  8  9  1  0
  9 10  2  0
 10 11  1  0
 11 12  2  0
 12 13  1  0
 12 14  1  0
 14 15  2  0
  5 16  1  0
 16 17  1  0
 17  2  1  0
 15  6  1  0
 15  9  1  0
  1 18  1  0
  1 19  1  0
  1 20  1  0
  3 21  1  0
  3 22  1  0
  4 23  1  0
  4 24  1  0
  5 25  1  0
  7 26  1  0
  8 27  1  0
 10 28  1  0
 11 29  1  0
 13 30  1  0
 14 31  1  0
 16 32  1  0
 16 33  1  0
 17 34  1  0
 17 35  1  0
M  END
$$$$
