
     RDKit          3D

 57 56  0  0  0  0  0  0  0  0999 V2000
    6.4147   -0.2165    2.2583 C   0  0  0  0  0  0  0  0  0  0  0  0
    5.7728    1.0294    1.6798 C   0  0  0  0  0  0  0  0  0  0  0  0
    5.3210    0.8254    0.2624 C   0  0  0  0  0  0  0  0  0  0  0  0
    4.3059   -0.2977    0.2334 C   0  0  0  0  0  0  0  0  0  0  0  0
    3.8751   -0.4727   -1.2126 C   0  0  0  0  0  0  0  0  0  0  0  0
    2.8719   -1.5777   -1.2645 C   0  0  0  0  0  0  0  0  0  0  0  0
    2.3912   -1.8003   -2.6600 C   0  0  0  0  0  0  0  0  0  0  0  0
    1.7030   -0.5972   -3.2008 C   0  0  0  0  0  0  0  0  0  0  0  0
    0.4809   -0.2078   -2.4376 C   0  0  0  0  0  0  0  0  0  0  0  0
   -0.7579   -0.7560   -2.7942 C   0  0  0  0  0  0  0  0  0  0  0  0
   -1.9085   -0.4179   -2.1153 C   0  0  0  0  0  0  0  0  0  0  0  0
   -1.9042    0.4684   -1.0598 C   0  0  0  0  0  0  0  0  0  0  0  0
   -3.1763    0.8232   -0.3318 C   0  0  0  0  0  0  0  0  0  0  0  0
   -3.4257   -0.0983    0.8124 C   0  0  0  0  0  0  0  0  0  0  0  0
   -4.6907    0.3027    1.5213 C   0  0  0  0  0  0  0  0  0  0  0  0
   -4.6565    1.6487    2.0522 N   0  0  0  0  0  0  0  0  0  0  0  0
   -5.8506    0.2098    0.5625 C   0  0  0  0  0  0  0  0  0  0  0  0
   -7.0470    0.4725    1.2487 O   0  0  0  0  0  0  0  0  0  0  0  0
   -4.9534   -0.6079    2.7206 C   0  0  0  0  0  0  0  0  0  0  0  0
   -6.1807   -0.2292    3.2792 O   0  0  0  0  0  0  0  0  0  0  0  0
   -0.6967    1.0168   -0.6955 C   0  0  0  0  0  0  0  0  0  0  0  0
    0.4688    0.6719   -1.3860 C   0  0  0  0  0  0  0  0  0  0  0  0
    0.6830    0.0000    0.0000 Cl  0  0  0  0  0  0  0  0  0  0  0  0
    6.5535   -1.0045    1.4784 H   0  0  0  0  0  0  0  0  0  0  0  0
    7.4322    0.0375    2.6106 H   0  0  0  0  0  0  0  0  0  0  0  0
    5.7813   -0.6736    3.0479 H   0  0  0  0  0  0  0  0  0  0  0  0
    4.8744    1.2500    2.2848 H   0  0  0  0  0  0  0  0  0  0  0  0
    6.4373    1.9156    1.7778 H   0  0  0  0  0  0  0  0  0  0  0  0
    6.1505    0.6421   -0.4478 H   0  0  0  0  0  0  0  0  0  0  0  0
    4.8233    1.7532   -0.0691 H   0  0  0  0  0  0  0  0  0  0  0  0
    3.3999    0.0071    0.7909 H   0  0  0  0  0  0  0  0  0  0  0  0
    4.6919   -1.2341    0.6434 H   0  0  0  0  0  0  0  0  0  0  0  0
    4.7647   -0.7858   -1.8350 H   0  0  0  0  0  0  0  0  0  0  0  0
    3.5728    0.4892   -1.6115 H   0  0  0  0  0  0  0  0  0  0  0  0
    3.3823   -2.5021   -0.9102 H   0  0  0  0  0  0  0  0  0  0  0  0
    1.9942   -1.4133   -0.6209 H   0  0  0  0  0  0  0  0  0  0  0  0
    1.7632   -2.7094   -2.7630 H   0  0  0  0  0  0  0  0  0  0  0  0
    3.2757   -1.9919   -3.3323 H   0  0  0  0  0  0  0  0  0  0  0  0
    1.4402   -0.8231   -4.2729 H   0  0  0  0  0  0  0  0  0  0  0  0
    2.3590    0.2732   -3.2334 H   0  0  0  0  0  0  0  0  0  0  0  0
   -0.7754   -1.4546   -3.6230 H   0  0  0  0  0  0  0  0  0  0  0  0
   -2.8823   -0.8454   -2.3917 H   0  0  0  0  0  0  0  0  0  0  0  0
   -3.1922    1.8575    0.0066 H   0  0  0  0  0  0  0  0  0  0  0  0
   -4.0441    0.7017   -1.0486 H   0  0  0  0  0  0  0  0  0  0  0  0
   -3.5152   -1.1668    0.4865 H   0  0  0  0  0  0  0  0  0  0  0  0
   -2.6021   -0.0434    1.5750 H   0  0  0  0  0  0  0  0  0  0  0  0
   -4.4960    1.7021    3.0628 H   0  0  0  0  0  0  0  0  0  0  0  0
   -5.3747    2.2685    1.6656 H   0  0  0  0  0  0  0  0  0  0  0  0
   -5.8992   -0.7163   -0.0112 H   0  0  0  0  0  0  0  0  0  0  0  0
   -5.7908    1.0546   -0.1885 H   0  0  0  0  0  0  0  0  0  0  0  0
   -7.8028   -0.0423    0.8744 H   0  0  0  0  0  0  0  0  0  0  0  0
   -5.0682   -1.6563    2.3784 H   0  0  0  0  0  0  0  0  0  0  0  0
   -4.1551   -0.5023    3.4797 H   0  0  0  0  0  0  0  0  0  0  0  0
   -6.1528    0.6754    3.6658 H   0  0  0  0  0  0  0  0  0  0  0  0
   -0.6867    1.7075    0.1256 H   0  0  0  0  0  0  0  0  0  0  0  0
    1.3839    1.1262   -1.0676 H   0  0  0  0  0  0  0  0  0  0  0  0
   -0.6830    0.0000    0.0000 H   0  0  0  0  0  0  0  0  0  0  0  0
  1  2  1  0
  2  3  1  0
  3  4  1  0
  4  5  1  0
  5  6  1  0
  6  7  1  0
  7  8  1  0
  8  9  1  0
  9 10  2  0
 10 11  1  0
 11 12  2  0
 12 13  1  0
 13 14  1  0
 14 15  1  0
 15 16  1  0
 15 17  1  0
 17 18  1  0
 15 19  1  0
 19 20  1  0
 12 21  1  0
 21 22  2  0
 22  9  1  0
  1 24  1  0
  1 25  1  0
  1 26  1  0
  2 27  1  0
  2 28  1  0
  3 29  1  0
  3 30  1  0
  4 31  1  0
  4 32  1  0
  5 33  1  0
  5 34  1  0
  6 35  1  0
  6 36  1  0
  7 37  1  0
  7 38  1  0
  8 39  1  0
  8 40  1  0
 10 41  1  0
 11 42  1  0
 13 43  1  0
 13 44  1  0
 14 45  1  0
 14 46  1  0
 16 47  1  0
 16 48  1  0
 17 49  1  0
 17 50  1  0
 18 51  1  0
 19 52  1  0
 19 53  1  0
 20 54  1  0
 21 55  1  0
 22 56  1  0
 23 57  1  0
M  END
$$$$
