
     RDKit          3D

 41 43  0  0  0  0  0  0  0  0999 V2000
    6.6829   -0.5798   -1.2271 C   0  0  0  0  0  0  0  0  0  0  0  0
    5.7249    0.4694   -1.2753 O   0  0  0  0  0  0  0  0  0  0  0  0
    5.7832    1.3445   -0.1456 C   0  0  0  0  0  0  0  0  0  0  0  0
    5.1342    0.7453    1.1086 C   0  0  0  0  0  0  0  0  0  0  0  0
    3.7455    0.3902    0.8809 N   0  0  0  0  0  0  0  0  0  0  0  0
    3.3147   -0.8731    0.5832 C   0  0  0  0  0  0  0  0  0  0  0  0
    3.9369   -1.9172    0.5419 O   0  0  0  0  0  0  0  0  0  0  0  0
    1.8795   -0.7684    0.3240 C   0  0  0  0  0  0  0  0  0  0  0  0
    0.9608   -1.7413   -0.0202 C   0  0  0  0  0  0  0  0  0  0  0  0
   -0.3648   -1.3326   -0.2129 C   0  0  0  0  0  0  0  0  0  0  0  0
   -0.7359    0.0260   -0.0492 C   0  0  0  0  0  0  0  0  0  0  0  0
   -2.1407    0.4754   -0.2633 C   0  0  0  0  0  0  0  0  0  0  0  0
   -2.3175    1.5768   -0.7673 O   0  0  0  0  0  0  0  0  0  0  0  0
   -3.1087   -0.4093    0.1741 N   0  0  0  0  0  0  0  0  0  0  0  0
   -4.5084   -0.2651    0.0653 C   0  0  0  0  0  0  0  0  0  0  0  0
   -5.1355    0.7932   -0.5974 C   0  0  0  0  0  0  0  0  0  0  0  0
   -6.5318    0.8628   -0.6670 C   0  0  0  0  0  0  0  0  0  0  0  0
   -7.2997   -0.1315   -0.0737 C   0  0  0  0  0  0  0  0  0  0  0  0
   -8.6611   -0.1019   -0.1182 O   0  0  0  0  0  0  0  0  0  0  0  0
   -6.6952   -1.1924    0.5856 C   0  0  0  0  0  0  0  0  0  0  0  0
   -5.3014   -1.2597    0.6543 C   0  0  0  0  0  0  0  0  0  0  0  0
    0.2243    0.9945    0.2835 C   0  0  0  0  0  0  0  0  0  0  0  0
    1.5221    0.5604    0.4687 C   0  0  0  0  0  0  0  0  0  0  0  0
    2.7305    1.3048    0.8185 C   0  0  0  0  0  0  0  0  0  0  0  0
    2.7695    2.5051    1.0070 O   0  0  0  0  0  0  0  0  0  0  0  0
    6.5067   -1.2394   -0.3741 H   0  0  0  0  0  0  0  0  0  0  0  0
    6.5879   -1.1702   -2.1426 H   0  0  0  0  0  0  0  0  0  0  0  0
    7.6965   -0.1702   -1.1827 H   0  0  0  0  0  0  0  0  0  0  0  0
    5.2505    2.2578   -0.4321 H   0  0  0  0  0  0  0  0  0  0  0  0
    6.8226    1.6286    0.0559 H   0  0  0  0  0  0  0  0  0  0  0  0
    5.1710    1.4831    1.9177 H   0  0  0  0  0  0  0  0  0  0  0  0
    5.6739   -0.1499    1.4322 H   0  0  0  0  0  0  0  0  0  0  0  0
    1.2643   -2.7758   -0.1497 H   0  0  0  0  0  0  0  0  0  0  0  0
   -1.0983   -2.0734   -0.5257 H   0  0  0  0  0  0  0  0  0  0  0  0
   -2.7973   -1.2229    0.6878 H   0  0  0  0  0  0  0  0  0  0  0  0
   -4.5655    1.5835   -1.0760 H   0  0  0  0  0  0  0  0  0  0  0  0
   -6.9912    1.6973   -1.1875 H   0  0  0  0  0  0  0  0  0  0  0  0
   -8.9366    0.6951   -0.6007 H   0  0  0  0  0  0  0  0  0  0  0  0
   -7.3056   -1.9644    1.0453 H   0  0  0  0  0  0  0  0  0  0  0  0
   -4.8511   -2.0993    1.1764 H   0  0  0  0  0  0  0  0  0  0  0  0
   -0.0361    2.0441    0.3898 H   0  0  0  0  0  0  0  0  0  0  0  0
  1  2  1  0
  2  3  1  0
  3  4  1  0
  4  5  1  0
  5  6  1  0
  6  7  2  0
  6  8  1  0
  8  9  2  0
  9 10  1  0
 10 11  2  0
 11 12  1  0
 12 13  2  0
 12 14  1  0
 14 15  1  0
 15 16  2  0
 16 17  1  0
 17 18  2  0
 18 19  1  0
 18 20  1  0
 20 21  2  0
 11 22  1  0
 22 23  2  0
 23 24  1  0
 24 25  2  0
 24  5  1  0
 23  8  1  0
 21 15  1  0
  1 26  1  0
  1 27  1  0
  1 28  1  0
  3 29  1  0
  3 30  1  0
  4 31  1  0
  4 32  1  0
  9 33  1  0
 10 34  1  0
 14 35  1  0
 16 36  1  0
 17 37  1  0
 19 38  1  0
 20 39  1  0
 21 40  1  0
 22 41  1  0
M  END
$$$$
