
     RDKit          3D

116123  0  0  0  0  0  0  0  0999 V2000
   -0.2044   -3.2252    2.9509 C   0  0  0  0  0  0  0  0  0  0  0  0
    0.2724   -2.8756    1.5897 C   0  0  0  0  0  0  0  0  0  0  0  0
    1.0261   -3.7357    0.8995 N   0  0  0  0  0  0  0  0  0  0  0  0
    1.3037   -3.0849   -0.2483 N   0  0  0  0  0  0  0  0  0  0  0  0
    2.0961   -3.7808   -1.2331 C   0  0  0  0  0  0  0  0  0  0  0  0
    0.8002   -1.8066   -0.2967 C   0  0  0  0  0  0  0  0  0  0  0  0
    1.0419   -0.8549   -1.4206 C   0  0  0  0  0  0  0  0  0  0  0  0
    1.6304    0.3451   -0.9130 O   0  0  0  0  0  0  0  0  0  0  0  0
    2.9677    0.3659   -0.6386 C   0  0  0  0  0  0  0  0  0  0  0  0
    3.9299   -0.4928   -1.1554 C   0  0  0  0  0  0  0  0  0  0  0  0
    5.2745   -0.3636   -0.7685 C   0  0  0  0  0  0  0  0  0  0  0  0
    5.6942    0.6299    0.1251 C   0  0  0  0  0  0  0  0  0  0  0  0
    7.0219    0.7788    0.5579 N   0  0  0  0  0  0  0  0  0  0  0  0
    7.6459    2.0424    0.0886 C   0  0  0  0  0  0  0  0  0  0  0  0
    9.0086    2.2796    0.7815 C   0  0  0  0  0  0  0  0  0  0  0  0
    9.9269    1.0925    0.7139 N   0  0  0  0  0  0  0  0  0  0  0  0
   10.7990    0.9094   -0.7137 S   0  0  0  0  0  6  0  0  0  0  0  0
    9.9080    1.1168   -1.8310 O   0  0  0  0  0  0  0  0  0  0  0  0
   11.6049   -0.2855   -0.6134 O   0  0  0  0  0  0  0  0  0  0  0  0
   11.8347    2.2473   -0.5952 N   0  0  0  0  0  0  0  0  0  0  0  0
   12.5190    2.5660   -1.8673 C   0  0  0  0  0  0  0  0  0  0  0  0
   12.7914    2.1823    0.5353 C   0  0  0  0  0  0  0  0  0  0  0  0
    9.2226   -0.1371    1.1943 C   0  0  0  0  0  0  0  0  0  0  0  0
    7.9187   -0.3895    0.4218 C   0  0  0  0  0  0  0  0  0  0  0  0
    4.7112    1.5005    0.6158 C   0  0  0  0  0  0  0  0  0  0  0  0
    3.3696    1.3740    0.2368 C   0  0  0  0  0  0  0  0  0  0  0  0
    0.0375   -1.6836    0.8553 C   0  0  0  0  0  0  0  0  0  0  0  0
   -0.6768   -0.4968    1.2680 C   0  0  0  0  0  0  0  0  0  0  0  0
    0.0254    0.4694    2.0079 C   0  0  0  0  0  0  0  0  0  0  0  0
   -0.6222    1.5659    2.5499 C   0  0  0  0  0  0  0  0  0  0  0  0
   -2.0017    1.6972    2.4026 C   0  0  0  0  0  0  0  0  0  0  0  0
   -2.7435    0.7359    1.6781 C   0  0  0  0  0  0  0  0  0  0  0  0
   -4.1473    0.5911    1.4321 C   0  0  0  0  0  0  0  0  0  0  0  0
   -5.1883    1.5367    1.9675 C   0  0  0  0  0  0  0  0  0  0  0  0
   -5.3028    2.8487    1.1861 C   0  0  0  0  0  0  0  0  0  0  0  0
   -5.8361    2.7046   -0.2401 C   0  0  0  0  0  0  0  0  0  0  0  0
   -7.1011    2.0326   -0.3158 O   0  0  0  0  0  0  0  0  0  0  0  0
   -8.1651    2.8487   -0.0097 C   0  0  0  0  0  0  0  0  0  0  0  0
   -8.7595    2.6513    1.2398 C   0  0  0  0  0  0  0  0  0  0  0  0
   -9.8268    3.4462    1.6352 C   0  0  0  0  0  0  0  0  0  0  0  0
  -10.3158    4.4287    0.7734 C   0  0  0  0  0  0  0  0  0  0  0  0
   -9.7582    4.6128   -0.5042 C   0  0  0  0  0  0  0  0  0  0  0  0
  -10.2734    5.5901   -1.3715 C   0  0  0  0  0  0  0  0  0  0  0  0
   -9.7449    5.7641   -2.6507 C   0  0  0  0  0  0  0  0  0  0  0  0
   -8.7064    4.9507   -3.0858 C   0  0  0  0  0  0  0  0  0  0  0  0
   -8.1828    3.9747   -2.2366 C   0  0  0  0  0  0  0  0  0  0  0  0
   -8.6799    3.7982   -0.9241 C   0  0  0  0  0  0  0  0  0  0  0  0
   -4.3241   -0.5554    0.6568 C   0  0  0  0  0  0  0  0  0  0  0  0
   -5.5462   -1.1767    0.1797 C   0  0  0  0  0  0  0  0  0  0  0  0
   -5.6801   -1.9699   -0.7423 O   0  0  0  0  0  0  0  0  0  0  0  0
   -6.6151   -0.8519    0.9260 O   0  0  0  0  0  0  0  0  0  0  0  0
   -3.0444   -1.0343    0.3632 N   0  0  0  0  0  0  0  0  0  0  0  0
   -2.7798   -2.0647   -0.6392 C   0  0  0  0  0  0  0  0  0  0  0  0
   -2.9121   -3.4924   -0.0942 C   0  0  0  0  0  0  0  0  0  0  0  0
   -2.5438   -4.5153   -1.0957 N   0  0  0  0  0  0  0  0  0  0  0  0
   -3.5607   -4.6088   -2.1715 C   0  0  0  0  0  0  0  0  0  0  0  0
   -3.5595   -5.9877   -2.8492 C   0  0  0  0  0  0  0  0  0  0  0  0
   -3.8994   -7.0540   -1.9495 O   0  0  0  0  0  0  0  0  0  0  0  0
   -3.5392   -6.7736   -0.5870 C   0  0  0  0  0  0  0  0  0  0  0  0
   -2.3251   -5.8400   -0.4696 C   0  0  0  0  0  0  0  0  0  0  0  0
   -2.0744   -0.3371    1.0754 C   0  0  0  0  0  0  0  0  0  0  0  0
    0.4794   -2.8237    3.7050 H   0  0  0  0  0  0  0  0  0  0  0  0
   -1.2021   -2.8144    3.1370 H   0  0  0  0  0  0  0  0  0  0  0  0
   -0.2640   -4.3111    3.0829 H   0  0  0  0  0  0  0  0  0  0  0  0
    1.8995   -4.8540   -1.1564 H   0  0  0  0  0  0  0  0  0  0  0  0
    1.8258   -3.4389   -2.2354 H   0  0  0  0  0  0  0  0  0  0  0  0
    3.1504   -3.5791   -1.0288 H   0  0  0  0  0  0  0  0  0  0  0  0
    1.6135   -1.2622   -2.2566 H   0  0  0  0  0  0  0  0  0  0  0  0
    0.0728   -0.5695   -1.8453 H   0  0  0  0  0  0  0  0  0  0  0  0
    3.6884   -1.2594   -1.8786 H   0  0  0  0  0  0  0  0  0  0  0  0
    5.9845   -1.0538   -1.2128 H   0  0  0  0  0  0  0  0  0  0  0  0
    7.7618    2.0131   -0.9992 H   0  0  0  0  0  0  0  0  0  0  0  0
    7.0132    2.9067    0.3221 H   0  0  0  0  0  0  0  0  0  0  0  0
    9.4960    3.1672    0.3644 H   0  0  0  0  0  0  0  0  0  0  0  0
    8.8428    2.4941    1.8447 H   0  0  0  0  0  0  0  0  0  0  0  0
   13.1887    1.7567   -2.1682 H   0  0  0  0  0  0  0  0  0  0  0  0
   13.1064    3.4814   -1.7499 H   0  0  0  0  0  0  0  0  0  0  0  0
   11.7904    2.7533   -2.6609 H   0  0  0  0  0  0  0  0  0  0  0  0
   12.2771    1.9913    1.4807 H   0  0  0  0  0  0  0  0  0  0  0  0
   13.5449    1.4069    0.3677 H   0  0  0  0  0  0  0  0  0  0  0  0
   13.2994    3.1481    0.6395 H   0  0  0  0  0  0  0  0  0  0  0  0
    9.0052    0.0034    2.2613 H   0  0  0  0  0  0  0  0  0  0  0  0
    9.8829   -1.0071    1.1314 H   0  0  0  0  0  0  0  0  0  0  0  0
    7.4397   -1.2791    0.8500 H   0  0  0  0  0  0  0  0  0  0  0  0
    8.1393   -0.5865   -0.6337 H   0  0  0  0  0  0  0  0  0  0  0  0
    4.9802    2.2782    1.3267 H   0  0  0  0  0  0  0  0  0  0  0  0
    2.6331    2.0635    0.6393 H   0  0  0  0  0  0  0  0  0  0  0  0
    1.0960    0.3512    2.1680 H   0  0  0  0  0  0  0  0  0  0  0  0
   -0.0614    2.3058    3.1132 H   0  0  0  0  0  0  0  0  0  0  0  0
   -2.5061    2.5414    2.8641 H   0  0  0  0  0  0  0  0  0  0  0  0
   -4.9158    1.7874    3.0021 H   0  0  0  0  0  0  0  0  0  0  0  0
   -6.1674    1.0668    2.0552 H   0  0  0  0  0  0  0  0  0  0  0  0
   -5.9666    3.5139    1.7507 H   0  0  0  0  0  0  0  0  0  0  0  0
   -4.3284    3.3495    1.1440 H   0  0  0  0  0  0  0  0  0  0  0  0
   -5.1345    2.1168   -0.8404 H   0  0  0  0  0  0  0  0  0  0  0  0
   -5.8792    3.6937   -0.7116 H   0  0  0  0  0  0  0  0  0  0  0  0
   -8.3832    1.8788    1.9033 H   0  0  0  0  0  0  0  0  0  0  0  0
  -10.2805    3.3034    2.6123 H   0  0  0  0  0  0  0  0  0  0  0  0
  -11.1438    5.0495    1.1047 H   0  0  0  0  0  0  0  0  0  0  0  0
  -11.0959    6.2270   -1.0551 H   0  0  0  0  0  0  0  0  0  0  0  0
  -10.1551    6.5274   -3.3082 H   0  0  0  0  0  0  0  0  0  0  0  0
   -8.3028    5.0732   -4.0886 H   0  0  0  0  0  0  0  0  0  0  0  0
   -7.3770    3.3423   -2.6038 H   0  0  0  0  0  0  0  0  0  0  0  0
   -7.3521   -1.3122    0.4791 H   0  0  0  0  0  0  0  0  0  0  0  0
   -1.7877   -1.8896   -1.0516 H   0  0  0  0  0  0  0  0  0  0  0  0
   -3.4533   -1.8833   -1.4814 H   0  0  0  0  0  0  0  0  0  0  0  0
   -3.9203   -3.6773    0.2968 H   0  0  0  0  0  0  0  0  0  0  0  0
   -2.2499   -3.5810    0.7725 H   0  0  0  0  0  0  0  0  0  0  0  0
   -4.5648   -4.4306   -1.7669 H   0  0  0  0  0  0  0  0  0  0  0  0
   -3.3574   -3.8361   -2.9207 H   0  0  0  0  0  0  0  0  0  0  0  0
   -2.5789   -6.2061   -3.2879 H   0  0  0  0  0  0  0  0  0  0  0  0
   -4.2892   -6.0052   -3.6649 H   0  0  0  0  0  0  0  0  0  0  0  0
   -3.3246   -7.7326   -0.1055 H   0  0  0  0  0  0  0  0  0  0  0  0
   -4.4134   -6.3468   -0.0828 H   0  0  0  0  0  0  0  0  0  0  0  0
   -1.4860   -6.3041   -1.0029 H   0  0  0  0  0  0  0  0  0  0  0  0
   -2.0114   -5.7522    0.5764 H   0  0  0  0  0  0  0  0  0  0  0  0
  1  2  1  0
  2  3  2  0
  3  4  1  0
  4  5  1  0
  4  6  1  0
  6  7  1  0
  7  8  1  0
  8  9  1  0
  9 10  2  0
 10 11  1  0
 11 12  2  0
 12 13  1  0
 13 14  1  0
 14 15  1  0
 15 16  1  0
 16 17  1  0
 17 18  2  0
 17 19  2  0
 17 20  1  0
 20 21  1  0
 20 22  1  0
 16 23  1  0
 23 24  1  0
 12 25  1  0
 25 26  2  0
  6 27  2  0
 27 28  1  0
 28 29  2  0
 29 30  1  0
 30 31  2  0
 31 32  1  0
 32 33  1  0
 33 34  1  0
 34 35  1  0
 35 36  1  0
 36 37  1  0
 37 38  1  0
 38 39  2  0
 39 40  1  0
 40 41  2  0
 41 42  1  0
 42 43  2  0
 43 44  1  0
 44 45  2  0
 45 46  1  0
 46 47  2  0
 33 48  2  0
 48 49  1  0
 49 50  2  0
 49 51  1  0
 48 52  1  0
 52 53  1  0
 53 54  1  0
 54 55  1  0
 55 56  1  0
 56 57  1  0
 57 58  1  0
 58 59  1  0
 59 60  1  0
 52 61  1  0
 27  2  1  0
 61 28  1  0
 26  9  1  0
 61 32  2  0
 24 13  1  0
 47 38  1  0
 60 55  1  0
 47 42  1  0
  1 62  1  0
  1 63  1  0
  1 64  1  0
  5 65  1  0
  5 66  1  0
  5 67  1  0
  7 68  1  0
  7 69  1  0
 10 70  1  0
 11 71  1  0
 14 72  1  0
 14 73  1  0
 15 74  1  0
 15 75  1  0
 21 76  1  0
 21 77  1  0
 21 78  1  0
 22 79  1  0
 22 80  1  0
 22 81  1  0
 23 82  1  0
 23 83  1  0
 24 84  1  0
 24 85  1  0
 25 86  1  0
 26 87  1  0
 29 88  1  0
 30 89  1  0
 31 90  1  0
 34 91  1  0
 34 92  1  0
 35 93  1  0
 35 94  1  0
 36 95  1  0
 36 96  1  0
 39 97  1  0
 40 98  1  0
 41 99  1  0
 43100  1  0
 44101  1  0
 45102  1  0
 46103  1  0
 51104  1  0
 53105  1  0
 53106  1  0
 54107  1  0
 54108  1  0
 56109  1  0
 56110  1  0
 57111  1  0
 57112  1  0
 59113  1  0
 59114  1  0
 60115  1  0
 60116  1  0
M  END
$$$$
