
     RDKit          3D

 55 57  0  0  0  0  0  0  0  0999 V2000
    8.0389   -1.4234   -2.6043 C   0  0  0  0  0  0  0  0  0  0  0  0
    6.8440   -0.6911   -2.3708 O   0  0  0  0  0  0  0  0  0  0  0  0
    6.6920   -0.3563   -0.9921 C   0  0  0  0  0  0  0  0  0  0  0  0
    5.3905    0.4227   -0.8043 C   0  0  0  0  0  0  0  0  0  0  0  0
    5.2398    0.9429    0.5190 O   0  0  0  0  0  0  0  0  0  0  0  0
    4.8697   -0.0272    1.4858 C   0  0  0  0  0  0  0  0  0  0  0  0
    3.5045   -0.7100    1.3041 C   0  0  0  0  0  0  0  0  0  0  0  0
    3.4506   -1.9358    1.1680 O   0  0  0  0  0  0  0  0  0  0  0  0
    2.3607    0.0786    1.3037 N   0  0  0  0  0  0  0  0  0  0  0  0
    2.3319    1.5179    1.5900 C   0  0  0  0  0  0  0  0  0  0  0  0
    1.6951    1.8452    2.9510 C   0  0  0  0  0  0  0  0  0  0  0  0
    0.4247    1.2440    3.2511 O   0  0  0  0  0  0  0  0  0  0  0  0
   -0.4093    1.1536    2.1736 C   0  0  0  0  0  0  0  0  0  0  0  0
   -1.5631    1.9347    2.1728 C   0  0  0  0  0  0  0  0  0  0  0  0
   -2.4549    1.8522    1.1020 C   0  0  0  0  0  0  0  0  0  0  0  0
   -2.1998    0.9662    0.0465 C   0  0  0  0  0  0  0  0  0  0  0  0
   -3.1169    0.8453   -1.1208 C   0  0  0  0  0  0  0  0  0  0  0  0
   -2.6782    0.4883   -2.2076 O   0  0  0  0  0  0  0  0  0  0  0  0
   -4.4451    1.1251   -0.8846 N   0  0  0  0  0  0  0  0  0  0  0  0
   -5.4543    0.8944   -1.8945 C   0  0  0  0  0  0  0  0  0  0  0  0
   -6.2289   -0.3629   -1.5920 C   0  0  0  0  0  0  0  0  0  0  0  0
   -5.6872   -1.6176   -1.9061 C   0  0  0  0  0  0  0  0  0  0  0  0
   -6.3862   -2.7871   -1.6035 C   0  0  0  0  0  0  0  0  0  0  0  0
   -7.6288   -2.7143   -0.9771 C   0  0  0  0  0  0  0  0  0  0  0  0
   -8.1753   -1.4731   -0.6545 C   0  0  0  0  0  0  0  0  0  0  0  0
   -7.4791   -0.3018   -0.9589 C   0  0  0  0  0  0  0  0  0  0  0  0
   -1.0402    0.1765    0.0637 C   0  0  0  0  0  0  0  0  0  0  0  0
   -0.1381    0.2542    1.1349 C   0  0  0  0  0  0  0  0  0  0  0  0
    1.0832   -0.6282    1.1853 C   0  0  0  0  0  0  0  0  0  0  0  0
    8.1164   -1.6210   -3.6762 H   0  0  0  0  0  0  0  0  0  0  0  0
    8.0057   -2.3810   -2.0754 H   0  0  0  0  0  0  0  0  0  0  0  0
    8.9146   -0.8473   -2.2882 H   0  0  0  0  0  0  0  0  0  0  0  0
    6.6793   -1.2734   -0.3931 H   0  0  0  0  0  0  0  0  0  0  0  0
    7.5391    0.2542   -0.6591 H   0  0  0  0  0  0  0  0  0  0  0  0
    4.5228   -0.1811   -1.0961 H   0  0  0  0  0  0  0  0  0  0  0  0
    5.3947    1.2826   -1.4844 H   0  0  0  0  0  0  0  0  0  0  0  0
    5.6410   -0.8024    1.5491 H   0  0  0  0  0  0  0  0  0  0  0  0
    4.8639    0.4620    2.4673 H   0  0  0  0  0  0  0  0  0  0  0  0
    3.3335    1.9494    1.5766 H   0  0  0  0  0  0  0  0  0  0  0  0
    1.7890    2.0062    0.7717 H   0  0  0  0  0  0  0  0  0  0  0  0
    2.3766    1.5153    3.7442 H   0  0  0  0  0  0  0  0  0  0  0  0
    1.5903    2.9319    3.0558 H   0  0  0  0  0  0  0  0  0  0  0  0
   -1.7599    2.6127    2.9988 H   0  0  0  0  0  0  0  0  0  0  0  0
   -3.3263    2.4999    1.0953 H   0  0  0  0  0  0  0  0  0  0  0  0
   -4.7701    1.1773    0.0701 H   0  0  0  0  0  0  0  0  0  0  0  0
   -5.0089    0.8352   -2.8935 H   0  0  0  0  0  0  0  0  0  0  0  0
   -6.1204    1.7640   -1.8878 H   0  0  0  0  0  0  0  0  0  0  0  0
   -4.7106   -1.6838   -2.3837 H   0  0  0  0  0  0  0  0  0  0  0  0
   -5.9563   -3.7542   -1.8494 H   0  0  0  0  0  0  0  0  0  0  0  0
   -8.1707   -3.6261   -0.7400 H   0  0  0  0  0  0  0  0  0  0  0  0
   -9.1444   -1.4177   -0.1668 H   0  0  0  0  0  0  0  0  0  0  0  0
   -7.9196    0.6588   -0.7020 H   0  0  0  0  0  0  0  0  0  0  0  0
   -0.8486   -0.5074   -0.7627 H   0  0  0  0  0  0  0  0  0  0  0  0
    0.9925   -1.3068    2.0431 H   0  0  0  0  0  0  0  0  0  0  0  0
    1.1359   -1.2606    0.2907 H   0  0  0  0  0  0  0  0  0  0  0  0
  1  2  1  0
  2  3  1  0
  3  4  1  0
  4  5  1  0
  5  6  1  0
  6  7  1  0
  7  8  2  0
  7  9  1  0
  9 10  1  0
 10 11  1  0
 11 12  1  0
 12 13  1  0
 13 14  2  0
 14 15  1  0
 15 16  2  0
 16 17  1  0
 17 18  2  0
 17 19  1  0
 19 20  1  0
 20 21  1  0
 21 22  2  0
 22 23  1  0
 23 24  2  0
 24 25  1  0
 25 26  2  0
 16 27  1  0
 27 28  2  0
 28 29  1  0
 29  9  1  0
 28 13  1  0
 26 21  1  0
  1 30  1  0
  1 31  1  0
  1 32  1  0
  3 33  1  0
  3 34  1  0
  4 35  1  0
  4 36  1  0
  6 37  1  0
  6 38  1  0
 10 39  1  0
 10 40  1  0
 11 41  1  0
 11 42  1  0
 14 43  1  0
 15 44  1  0
 19 45  1  0
 20 46  1  0
 20 47  1  0
 22 48  1  0
 23 49  1  0
 24 50  1  0
 25 51  1  0
 26 52  1  0
 27 53  1  0
 29 54  1  0
 29 55  1  0
M  END
$$$$
