
     RDKit          3D

 54 56  0  0  0  0  0  0  0  0999 V2000
   -2.7455   -1.9631    0.5274 C   0  0  0  0  0  0  0  0  0  0  0  0
   -3.8861   -1.0542    1.0380 C   0  0  0  0  0  0  0  0  0  0  0  0
   -5.1055   -1.9852    1.2664 C   0  0  0  0  0  0  0  0  0  0  0  0
   -3.5164   -0.4806    2.4227 C   0  0  0  0  0  0  0  0  0  0  0  0
   -4.1615    0.0908    0.0366 C   0  0  0  0  0  0  0  0  0  0  0  0
   -5.4326    0.2438   -0.5578 C   0  0  0  0  0  0  0  0  0  0  0  0
   -5.7056    1.2634   -1.4772 C   0  0  0  0  0  0  0  0  0  0  0  0
   -4.7127    2.1621   -1.8389 C   0  0  0  0  0  0  0  0  0  0  0  0
   -3.4485    2.0452   -1.2737 C   0  0  0  0  0  0  0  0  0  0  0  0
   -3.1786    1.0403   -0.3285 C   0  0  0  0  0  0  0  0  0  0  0  0
   -1.8969    0.9124    0.1616 O   0  0  0  0  0  0  0  0  0  0  0  0
   -1.2990    2.0390    0.7311 C   0  0  0  0  0  0  0  0  0  0  0  0
   -2.0822    2.9842    1.3052 N   0  0  0  0  0  0  0  0  0  0  0  0
   -1.4433    4.0250    1.8742 C   0  0  0  0  0  0  0  0  0  0  0  0
   -0.0650    4.1586    1.9001 C   0  0  0  0  0  0  0  0  0  0  0  0
    0.7178    3.1627    1.3138 C   0  0  0  0  0  0  0  0  0  0  0  0
    0.1041    2.0643    0.7188 C   0  0  0  0  0  0  0  0  0  0  0  0
    0.7959    0.9943    0.1019 N   0  0  0  0  0  0  0  0  0  0  0  0
    2.1633    0.7862    0.0417 C   0  0  0  0  0  0  0  0  0  0  0  0
    2.9999    1.5159    0.5564 O   0  0  0  0  0  0  0  0  0  0  0  0
    2.4443   -0.3627   -0.6837 N   0  0  0  0  0  0  0  0  0  0  0  0
    3.7061   -0.9408   -0.9336 C   0  0  0  0  0  0  0  0  0  0  0  0
    3.7383   -2.0733   -1.7533 C   0  0  0  0  0  0  0  0  0  0  0  0
    4.9502   -2.7061   -2.0465 C   0  0  0  0  0  0  0  0  0  0  0  0
    6.1520   -2.2227   -1.5267 C   0  0  0  0  0  0  0  0  0  0  0  0
    7.2551   -2.9354   -1.8958 O   0  0  0  0  0  0  0  0  0  0  0  0
    8.5124   -2.5153   -1.3950 C   0  0  0  0  0  0  0  0  0  0  0  0
    8.5414   -2.5618   -0.0461 F   0  0  0  0  0  0  0  0  0  0  0  0
    9.4645   -3.3529   -1.8638 F   0  0  0  0  0  0  0  0  0  0  0  0
    8.8120   -1.2665   -1.8115 F   0  0  0  0  0  0  0  0  0  0  0  0
    6.1239   -1.0968   -0.7065 C   0  0  0  0  0  0  0  0  0  0  0  0
    4.9076   -0.4627   -0.4110 C   0  0  0  0  0  0  0  0  0  0  0  0
   -2.9580   -2.3325   -0.4826 H   0  0  0  0  0  0  0  0  0  0  0  0
   -2.6141   -2.8347    1.1790 H   0  0  0  0  0  0  0  0  0  0  0  0
   -1.7778   -1.4556    0.4952 H   0  0  0  0  0  0  0  0  0  0  0  0
   -5.9592   -1.4392    1.6851 H   0  0  0  0  0  0  0  0  0  0  0  0
   -5.4256   -2.4677    0.3354 H   0  0  0  0  0  0  0  0  0  0  0  0
   -4.8647   -2.7874    1.9748 H   0  0  0  0  0  0  0  0  0  0  0  0
   -3.4126   -1.2802    3.1661 H   0  0  0  0  0  0  0  0  0  0  0  0
   -2.5675    0.0614    2.4168 H   0  0  0  0  0  0  0  0  0  0  0  0
   -4.2887    0.2094    2.7822 H   0  0  0  0  0  0  0  0  0  0  0  0
   -6.2540   -0.4273   -0.3232 H   0  0  0  0  0  0  0  0  0  0  0  0
   -6.6993    1.3490   -1.9098 H   0  0  0  0  0  0  0  0  0  0  0  0
   -4.9210    2.9516   -2.5552 H   0  0  0  0  0  0  0  0  0  0  0  0
   -2.6729    2.7476   -1.5660 H   0  0  0  0  0  0  0  0  0  0  0  0
   -2.0873    4.7750    2.3250 H   0  0  0  0  0  0  0  0  0  0  0  0
    0.3980    5.0194    2.3709 H   0  0  0  0  0  0  0  0  0  0  0  0
    1.7965    3.2753    1.3403 H   0  0  0  0  0  0  0  0  0  0  0  0
    0.1952    0.2689   -0.2649 H   0  0  0  0  0  0  0  0  0  0  0  0
    1.6618   -0.8083   -1.1365 H   0  0  0  0  0  0  0  0  0  0  0  0
    2.8257   -2.4831   -2.1778 H   0  0  0  0  0  0  0  0  0  0  0  0
    4.9521   -3.5851   -2.6873 H   0  0  0  0  0  0  0  0  0  0  0  0
    7.0238   -0.6721   -0.2696 H   0  0  0  0  0  0  0  0  0  0  0  0
    4.9403    0.4075    0.2381 H   0  0  0  0  0  0  0  0  0  0  0  0
  1  2  1  0
  2  3  1  0
  2  4  1  0
  2  5  1  0
  5  6  2  0
  6  7  1  0
  7  8  2  0
  8  9  1  0
  9 10  2  0
 10 11  1  0
 11 12  1  0
 12 13  2  0
 13 14  1  0
 14 15  2  0
 15 16  1  0
 16 17  2  0
 17 18  1  0
 18 19  1  0
 19 20  2  0
 19 21  1  0
 21 22  1  0
 22 23  2  0
 23 24  1  0
 24 25  2  0
 25 26  1  0
 26 27  1  0
 27 28  1  0
 27 29  1  0
 27 30  1  0
 25 31  1  0
 31 32  2  0
 10  5  1  0
 17 12  1  0
 32 22  1  0
  1 33  1  0
  1 34  1  0
  1 35  1  0
  3 36  1  0
  3 37  1  0
  3 38  1  0
  4 39  1  0
  4 40  1  0
  4 41  1  0
  6 42  1  0
  7 43  1  0
  8 44  1  0
  9 45  1  0
 14 46  1  0
 15 47  1  0
 16 48  1  0
 18 49  1  0
 21 50  1  0
 23 51  1  0
 24 52  1  0
 31 53  1  0
 32 54  1  0
M  END
$$$$
