
     RDKit          3D

 51 52  0  0  0  0  0  0  0  0999 V2000
    1.2577   -0.5375    1.0440 N   0  0  0  0  0  0  0  0  0  0  0  0
    0.1436   -0.1814    0.1261 C   0  0  0  0  0  0  0  0  0  0  0  0
   -0.3964    1.2226    0.5166 C   0  0  0  0  0  0  0  0  0  0  0  0
    0.6216    2.2235    0.3986 O   0  0  0  0  0  0  0  0  0  0  0  0
    0.6747   -0.1460   -1.3358 C   0  0  0  0  0  0  0  0  0  0  0  0
    1.8762    0.6192   -1.4563 O   0  0  0  0  0  0  0  0  0  0  0  0
   -0.9926   -1.2272    0.2407 C   0  0  0  0  0  0  0  0  0  0  0  0
   -2.0895   -0.9075   -0.6068 O   0  0  0  0  0  0  0  0  0  0  0  0
   -1.3487    0.7022   -1.8055 O   0  0  0  0  0  0  0  0  0  0  0  0
   -1.3018    0.2342   -0.6687 C   0  0  0  0  0  0  0  0  0  0  0  0
   -2.5964   -0.0304    0.0130 C   0  0  0  0  0  0  0  0  0  0  0  0
   -2.8019    0.3147    1.3547 C   0  0  0  0  0  0  0  0  0  0  0  0
   -4.0386    0.0700    1.9551 C   0  0  0  0  0  0  0  0  0  0  0  0
   -5.0728   -0.5053    1.2158 C   0  0  0  0  0  0  0  0  0  0  0  0
   -4.8786   -0.8297   -0.1270 C   0  0  0  0  0  0  0  0  0  0  0  0
   -3.6442   -0.5868   -0.7314 C   0  0  0  0  0  0  0  0  0  0  0  0
   -0.0502   -0.0652    0.0048 C   0  0  0  0  0  0  0  0  0  0  0  0
    0.2343   -0.8596    1.1178 C   0  0  0  0  0  0  0  0  0  0  0  0
    1.6401   -0.8346    1.3684 C   0  0  0  0  0  0  0  0  0  0  0  0
    2.1767   -0.0460    0.3898 C   0  0  0  0  0  0  0  0  0  0  0  0
    1.1617    0.3888   -0.4099 N   0  0  0  0  0  0  0  0  0  0  0  0
    1.6136    1.2479   -1.4926 C   0  0  0  0  0  0  0  0  0  0  0  0
    3.0339    1.6243   -1.0308 C   0  0  0  0  0  0  0  0  0  0  0  0
    3.4845    0.4810   -0.0782 C   0  0  0  0  0  0  0  0  0  0  0  0
    4.2578   -0.5925   -0.8170 C   0  0  0  0  0  0  0  0  0  0  0  0
    4.3718   -0.7172   -2.0265 O   0  0  0  0  0  0  0  0  0  0  0  0
    4.8663   -1.4659    0.0135 O   0  0  0  0  0  0  0  0  0  0  0  0
    1.7867   -1.3215    0.6648 H   0  0  0  0  0  0  0  0  0  0  0  0
    0.9094   -0.8000    1.9623 H   0  0  0  0  0  0  0  0  0  0  0  0
   -1.2257    1.5203   -0.1341 H   0  0  0  0  0  0  0  0  0  0  0  0
   -0.7553    1.2247    1.5525 H   0  0  0  0  0  0  0  0  0  0  0  0
    0.2374    3.0537    0.7296 H   0  0  0  0  0  0  0  0  0  0  0  0
   -0.0670    0.2895   -2.0136 H   0  0  0  0  0  0  0  0  0  0  0  0
    0.9024   -1.1566   -1.6925 H   0  0  0  0  0  0  0  0  0  0  0  0
    1.8518    1.2542   -0.7056 H   0  0  0  0  0  0  0  0  0  0  0  0
   -0.6283   -2.2235   -0.0359 H   0  0  0  0  0  0  0  0  0  0  0  0
   -1.3679   -1.2780    1.2692 H   0  0  0  0  0  0  0  0  0  0  0  0
   -2.7387   -1.6286   -0.5238 H   0  0  0  0  0  0  0  0  0  0  0  0
   -2.0143    0.7884    1.9352 H   0  0  0  0  0  0  0  0  0  0  0  0
   -4.1994    0.3360    2.9971 H   0  0  0  0  0  0  0  0  0  0  0  0
   -6.0367   -0.6908    1.6846 H   0  0  0  0  0  0  0  0  0  0  0  0
   -5.6894   -1.2662   -0.7051 H   0  0  0  0  0  0  0  0  0  0  0  0
   -3.4991   -0.8303   -1.7820 H   0  0  0  0  0  0  0  0  0  0  0  0
   -0.4913   -1.4187    1.6956 H   0  0  0  0  0  0  0  0  0  0  0  0
    2.1750   -1.3467    2.1580 H   0  0  0  0  0  0  0  0  0  0  0  0
    0.9569    2.1168   -1.5760 H   0  0  0  0  0  0  0  0  0  0  0  0
    1.6154    0.6522   -2.4099 H   0  0  0  0  0  0  0  0  0  0  0  0
    2.9799    2.5600   -0.4579 H   0  0  0  0  0  0  0  0  0  0  0  0
    3.7087    1.7980   -1.8746 H   0  0  0  0  0  0  0  0  0  0  0  0
    4.1046    0.8862    0.7271 H   0  0  0  0  0  0  0  0  0  0  0  0
    5.2821   -2.1151   -0.5909 H   0  0  0  0  0  0  0  0  0  0  0  0
  1  2  1  0
  2  3  1  0
  3  4  1  0
  2  5  1  0
  5  6  1  0
  2  7  1  0
  7  8  1  0
  9 10  2  0
 10 11  1  0
 11 12  2  0
 12 13  1  0
 13 14  2  0
 14 15  1  0
 15 16  2  0
 10 17  1  0
 17 18  2  0
 18 19  1  0
 19 20  2  0
 20 21  1  0
 21 22  1  0
 22 23  1  0
 23 24  1  0
 24 25  1  0
 25 26  2  0
 25 27  1  0
 16 11  1  0
 21 17  1  0
 24 20  1  0
  1 28  1  0
  1 29  1  0
  3 30  1  0
  3 31  1  0
  4 32  1  0
  5 33  1  0
  5 34  1  0
  6 35  1  0
  7 36  1  0
  7 37  1  0
  8 38  1  0
 12 39  1  0
 13 40  1  0
 14 41  1  0
 15 42  1  0
 16 43  1  0
 18 44  1  0
 19 45  1  0
 22 46  1  0
 22 47  1  0
 23 48  1  0
 23 49  1  0
 24 50  1  0
 27 51  1  0
M  END
$$$$
