
     RDKit          3D

 61 63  0  0  0  0  0  0  0  0999 V2000
   -6.4186   -1.8226    1.6936 C   0  0  0  0  0  0  0  0  0  0  0  0
   -5.3037   -2.6431    1.4214 O   0  0  0  0  0  0  0  0  0  0  0  0
   -4.0825   -2.0793    0.9847 C   0  0  0  0  0  0  0  0  0  0  0  0
   -3.9314   -0.7430    0.8108 C   0  0  0  0  0  0  0  0  0  0  0  0
   -2.7269   -0.2298    0.3841 C   0  0  0  0  0  0  0  0  0  0  0  0
   -2.5717    1.0814    0.2115 N   0  0  0  0  0  0  0  0  0  0  0  0
   -1.4296    1.6333   -0.1992 C   0  0  0  0  0  0  0  0  0  0  0  0
   -1.3615    3.1033   -0.3569 C   0  0  0  0  0  0  0  0  0  0  0  0
   -2.4924    3.8354   -0.0426 C   0  0  0  0  0  0  0  0  0  0  0  0
   -2.5662    5.2047   -0.1445 C   0  0  0  0  0  0  0  0  0  0  0  0
   -3.6991    5.8631    0.1772 F   0  0  0  0  0  0  0  0  0  0  0  0
   -1.4570    5.8851   -0.5824 C   0  0  0  0  0  0  0  0  0  0  0  0
   -0.3286    5.1737   -0.8978 C   0  0  0  0  0  0  0  0  0  0  0  0
   -0.2522    3.7735   -0.7940 C   0  0  0  0  0  0  0  0  0  0  0  0
    0.9076    3.1455   -1.1285 O   0  0  0  0  0  0  0  0  0  0  0  0
   -0.4061    0.8154   -0.4430 N   0  0  0  0  0  0  0  0  0  0  0  0
   -0.4346   -0.5233   -0.3075 C   0  0  0  0  0  0  0  0  0  0  0  0
    0.6730   -1.3395   -0.5810 N   0  0  0  0  0  0  0  0  0  0  0  0
    1.9601   -0.8452   -1.0247 C   0  0  2  0  0  0  0  0  0  0  0  0
    2.8644   -2.0712   -1.2304 C   0  0  0  0  0  0  0  0  0  0  0  0
    3.6131   -2.2594   -0.0363 N   0  0  0  0  0  0  0  0  0  0  0  0
    3.0890   -1.3644    0.9420 C   0  0  0  0  0  0  0  0  0  0  0  0
    2.7175   -0.1336    0.0855 C   0  0  1  0  0  0  0  0  0  0  0  0
    4.0159    0.4319   -0.3778 C   0  0  0  0  0  0  0  0  0  0  0  0
    3.9331    1.4373   -1.4763 C   0  0  0  0  0  0  0  0  0  0  0  0
    4.6702    1.1018    0.8318 C   0  0  0  0  0  0  0  0  0  0  0  0
    4.8711   -0.6124   -0.7685 O   0  0  0  0  0  0  0  0  0  0  0  0
   -1.6272   -1.0617    0.1176 C   0  0  0  0  0  0  0  0  0  0  0  0
   -1.8218   -2.3999    0.3053 C   0  0  0  0  0  0  0  0  0  0  0  0
   -3.0243   -2.9118    0.7312 C   0  0  0  0  0  0  0  0  0  0  0  0
   -3.1414   -4.2900    0.8984 O   0  0  0  0  0  0  0  0  0  0  0  0
   -2.0531   -5.1237    0.6356 C   0  0  0  0  0  0  0  0  0  0  0  0
    0.6847    0.0000    0.0000 Cl  0  0  0  0  0  0  0  0  0  0  0  0
   -6.5128   -1.0742    0.8787 H   0  0  0  0  0  0  0  0  0  0  0  0
   -6.3386   -1.3376    2.6929 H   0  0  0  0  0  0  0  0  0  0  0  0
   -7.3418   -2.4424    1.6732 H   0  0  0  0  0  0  0  0  0  0  0  0
   -4.7418   -0.0705    1.0016 H   0  0  0  0  0  0  0  0  0  0  0  0
   -3.3840    3.3306    0.3054 H   0  0  0  0  0  0  0  0  0  0  0  0
   -1.5113    6.9697   -0.6644 H   0  0  0  0  0  0  0  0  0  0  0  0
    0.5446    5.7123   -1.2427 H   0  0  0  0  0  0  0  0  0  0  0  0
    1.2029    2.2254   -1.1458 H   0  0  0  0  0  0  0  0  0  0  0  0
    0.6059   -2.3683   -0.4705 H   0  0  0  0  0  0  0  0  0  0  0  0
    1.8722   -0.2162   -1.8976 H   0  0  0  0  0  0  0  0  0  0  0  0
    2.2452   -2.9803   -1.4038 H   0  0  0  0  0  0  0  0  0  0  0  0
    3.4518   -1.8927   -2.1385 H   0  0  0  0  0  0  0  0  0  0  0  0
    3.7075   -3.2343    0.2824 H   0  0  0  0  0  0  0  0  0  0  0  0
    2.1997   -1.7600    1.4591 H   0  0  0  0  0  0  0  0  0  0  0  0
    3.8943   -1.0561    1.6281 H   0  0  0  0  0  0  0  0  0  0  0  0
    2.0901    0.5177    0.6929 H   0  0  0  0  0  0  0  0  0  0  0  0
    4.9792    1.6144   -1.8364 H   0  0  0  0  0  0  0  0  0  0  0  0
    3.3632    1.0998   -2.3459 H   0  0  0  0  0  0  0  0  0  0  0  0
    3.5938    2.4214   -1.0830 H   0  0  0  0  0  0  0  0  0  0  0  0
    5.3241    0.3578    1.3191 H   0  0  0  0  0  0  0  0  0  0  0  0
    5.3178    1.9589    0.5108 H   0  0  0  0  0  0  0  0  0  0  0  0
    3.8986    1.4247    1.5665 H   0  0  0  0  0  0  0  0  0  0  0  0
    5.5081   -0.2584   -1.4429 H   0  0  0  0  0  0  0  0  0  0  0  0
   -0.9827   -3.0683    0.1054 H   0  0  0  0  0  0  0  0  0  0  0  0
   -1.2233   -4.8074    1.3180 H   0  0  0  0  0  0  0  0  0  0  0  0
   -1.7044   -4.9132   -0.4104 H   0  0  0  0  0  0  0  0  0  0  0  0
   -2.2431   -6.1843    0.8083 H   0  0  0  0  0  0  0  0  0  0  0  0
   -0.6847    0.0000    0.0000 H   0  0  0  0  0  0  0  0  0  0  0  0
  1  2  1  0
  2  3  1  0
  3  4  2  0
  4  5  1  0
  5  6  2  0
  6  7  1  0
  7  8  1  0
  8  9  2  0
  9 10  1  0
 10 11  1  0
 10 12  2  0
 12 13  1  0
 13 14  2  0
 14 15  1  0
  7 16  2  0
 16 17  1  0
 17 18  1  0
 18 19  1  0
 19 20  1  0
 20 21  1  0
 21 22  1  0
 22 23  1  0
 23 24  1  0
 24 25  1  0
 24 26  1  0
 24 27  1  0
 17 28  2  0
 28 29  1  0
 29 30  2  0
 30 31  1  0
 31 32  1  0
 30  3  1  0
 28  5  1  0
 14  8  1  0
 23 19  1  0
  1 34  1  0
  1 35  1  0
  1 36  1  0
  4 37  1  0
  9 38  1  0
 12 39  1  0
 13 40  1  0
 15 41  1  0
 18 42  1  0
 19 43  1  6
 20 44  1  0
 20 45  1  0
 21 46  1  0
 22 47  1  0
 22 48  1  0
 23 49  1  1
 25 50  1  0
 25 51  1  0
 25 52  1  0
 26 53  1  0
 26 54  1  0
 26 55  1  0
 27 56  1  0
 29 57  1  0
 32 58  1  0
 32 59  1  0
 32 60  1  0
 33 61  1  0
M  END
$$$$
