
     RDKit          3D

 40 41  0  0  0  0  0  0  0  0999 V2000
    0.9691   -1.2744    0.6717 O   0  0  0  0  0  0  0  0  0  0  0  0
    0.7854   -1.1183   -0.5325 C   0  0  0  0  0  0  0  0  0  0  0  0
    1.6669   -0.4959   -1.3916 N   0  0  0  0  0  0  0  0  0  0  0  0
    2.9860   -0.3727   -0.8939 O   0  0  0  0  0  0  0  0  0  0  0  0
    3.1549    0.9504   -0.3783 C   0  0  0  0  0  0  0  0  0  0  0  0
    4.5688    1.0992    0.1916 C   0  0  2  0  0  0  0  0  0  0  0  0
    4.7006    2.3686    0.8511 O   0  0  0  0  0  0  0  0  0  0  0  0
    5.6387    1.0290   -0.9033 C   0  0  0  0  0  0  0  0  0  0  0  0
    5.5241    2.1553   -1.7752 O   0  0  0  0  0  0  0  0  0  0  0  0
   -0.4861   -1.5943   -1.1411 C   0  0  0  0  0  0  0  0  0  0  0  0
   -0.4460   -2.2666   -2.3777 C   0  0  0  0  0  0  0  0  0  0  0  0
   -1.6259   -2.7214   -2.9607 C   0  0  0  0  0  0  0  0  0  0  0  0
   -2.8308   -2.5169   -2.3023 C   0  0  0  0  0  0  0  0  0  0  0  0
   -3.9616   -2.9671   -2.8635 F   0  0  0  0  0  0  0  0  0  0  0  0
   -2.8759   -1.8674   -1.0692 C   0  0  0  0  0  0  0  0  0  0  0  0
   -4.0689   -1.7586   -0.4645 F   0  0  0  0  0  0  0  0  0  0  0  0
   -1.7085   -1.3928   -0.4493 C   0  0  0  0  0  0  0  0  0  0  0  0
   -1.7095   -0.6860    0.7747 N   0  0  0  0  0  0  0  0  0  0  0  0
   -2.6679    0.0851    1.4560 C   0  0  0  0  0  0  0  0  0  0  0  0
   -3.7538    0.7003    0.8269 C   0  0  0  0  0  0  0  0  0  0  0  0
   -4.6882    1.4410    1.5629 C   0  0  0  0  0  0  0  0  0  0  0  0
   -4.5425    1.5749    2.9433 C   0  0  0  0  0  0  0  0  0  0  0  0
   -5.9299    2.6749    4.0288 I   0  0  0  0  0  0  0  0  0  0  0  0
   -3.4695    0.9777    3.5943 C   0  0  0  0  0  0  0  0  0  0  0  0
   -2.5504    0.2447    2.8478 C   0  0  0  0  0  0  0  0  0  0  0  0
   -1.5156   -0.3237    3.4879 F   0  0  0  0  0  0  0  0  0  0  0  0
    1.5939   -0.5713   -2.3986 H   0  0  0  0  0  0  0  0  0  0  0  0
    2.9715    1.6888   -1.1686 H   0  0  0  0  0  0  0  0  0  0  0  0
    2.4226    1.1360    0.4174 H   0  0  0  0  0  0  0  0  0  0  0  0
    4.7649    0.3054    0.9217 H   0  0  0  0  0  0  0  0  0  0  0  0
    4.1182    2.3424    1.6322 H   0  0  0  0  0  0  0  0  0  0  0  0
    5.5607    0.1141   -1.4976 H   0  0  0  0  0  0  0  0  0  0  0  0
    6.6383    1.0703   -0.4583 H   0  0  0  0  0  0  0  0  0  0  0  0
    5.4729    2.9269   -1.1756 H   0  0  0  0  0  0  0  0  0  0  0  0
    0.4977   -2.4682   -2.8790 H   0  0  0  0  0  0  0  0  0  0  0  0
   -1.6158   -3.2466   -3.9113 H   0  0  0  0  0  0  0  0  0  0  0  0
   -0.8551   -0.8419    1.3261 H   0  0  0  0  0  0  0  0  0  0  0  0
   -3.8844    0.6300   -0.2490 H   0  0  0  0  0  0  0  0  0  0  0  0
   -5.5216    1.9052    1.0407 H   0  0  0  0  0  0  0  0  0  0  0  0
   -3.3274    1.0638    4.6662 H   0  0  0  0  0  0  0  0  0  0  0  0
  1  2  2  0
  2  3  1  0
  3  4  1  0
  4  5  1  0
  5  6  1  0
  6  7  1  0
  6  8  1  0
  8  9  1  0
  2 10  1  0
 10 11  2  0
 11 12  1  0
 12 13  2  0
 13 14  1  0
 13 15  1  0
 15 16  1  0
 15 17  2  0
 17 18  1  0
 18 19  1  0
 19 20  2  0
 20 21  1  0
 21 22  2  0
 22 23  1  0
 22 24  1  0
 24 25  2  0
 25 26  1  0
 17 10  1  0
 25 19  1  0
  3 27  1  0
  5 28  1  0
  5 29  1  0
  6 30  1  1
  7 31  1  0
  8 32  1  0
  8 33  1  0
  9 34  1  0
 11 35  1  0
 12 36  1  0
 18 37  1  0
 20 38  1  0
 21 39  1  0
 24 40  1  0
M  END
$$$$
