
     RDKit          3D

 70 74  0  0  0  0  0  0  0  0999 V2000
   -7.5986   -1.0117   -2.9483 C   0  0  0  0  0  0  0  0  0  0  0  0
   -7.1364   -0.4927   -1.7084 O   0  0  0  0  0  0  0  0  0  0  0  0
   -7.6012   -1.0815   -0.5544 C   0  0  0  0  0  0  0  0  0  0  0  0
   -8.7498   -1.8946   -0.5462 C   0  0  0  0  0  0  0  0  0  0  0  0
   -9.2371   -2.4383    0.6410 C   0  0  0  0  0  0  0  0  0  0  0  0
   -8.5847   -2.1736    1.8329 C   0  0  0  0  0  0  0  0  0  0  0  0
   -7.4477   -1.3618    1.8352 C   0  0  0  0  0  0  0  0  0  0  0  0
   -6.9208   -0.7858    0.6577 C   0  0  0  0  0  0  0  0  0  0  0  0
   -5.7714    0.0018    0.7560 N   0  0  0  0  0  0  0  0  0  0  0  0
   -5.6029    0.8863    1.9262 C   0  0  0  0  0  0  0  0  0  0  0  0
   -4.7880    2.1498    1.5951 C   0  0  0  0  0  0  0  0  0  0  0  0
   -3.5078    1.8529    0.9520 N   0  0  0  0  0  0  0  0  0  0  0  0
   -2.4622    2.7675    1.0806 C   0  0  0  0  0  0  0  0  0  0  0  0
   -2.6104    3.8190    1.7011 O   0  0  0  0  0  0  0  0  0  0  0  0
   -1.1947    2.4092    0.4677 C   0  0  0  0  0  0  0  0  0  0  0  0
   -0.6537    3.3426   -0.8604 S   0  0  0  0  0  0  0  0  0  0  0  0
    0.7468    2.3948   -1.0420 C   0  0  0  0  0  0  0  0  0  0  0  0
    1.6495    2.6508   -2.0227 N   0  0  0  0  0  0  0  0  0  0  0  0
    2.6704    1.8561   -2.0250 C   0  0  0  0  0  0  0  0  0  0  0  0
    2.8701    0.7965   -1.1600 N   0  0  0  0  0  0  0  0  0  0  0  0
    4.0723   -0.0143   -1.2727 C   0  0  0  0  0  0  0  0  0  0  0  0
    5.2207    0.6099   -0.4727 C   0  0  0  0  0  0  0  0  0  0  0  0
    5.1481    1.7672   -0.0518 O   0  0  0  0  0  0  0  0  0  0  0  0
    6.3694   -0.1549   -0.2935 N   0  0  0  0  0  0  0  0  0  0  0  0
    6.5599   -1.5237   -0.7695 C   0  0  0  0  0  0  0  0  0  0  0  0
    7.9581   -1.7306   -1.3491 C   0  0  0  0  0  0  0  0  0  0  0  0
    9.0898   -1.2152   -0.4399 C   0  0  0  0  0  0  0  0  0  0  0  0
   10.0903   -2.3225   -0.1068 C   0  0  0  0  0  0  0  0  0  0  0  0
    8.5491   -0.5697    0.8421 C   0  0  0  0  0  0  0  0  0  0  0  0
    7.4371    0.4229    0.5202 C   0  0  0  0  0  0  0  0  0  0  0  0
    1.9808    0.5210   -0.1249 C   0  0  0  0  0  0  0  0  0  0  0  0
    2.1367   -0.3995    0.6741 O   0  0  0  0  0  0  0  0  0  0  0  0
    0.8229    1.4015   -0.0896 C   0  0  0  0  0  0  0  0  0  0  0  0
   -0.2969    1.4086    0.8173 C   0  0  0  0  0  0  0  0  0  0  0  0
   -0.4459    0.4745    1.9756 C   0  0  0  0  0  0  0  0  0  0  0  0
   -3.4856    0.6743    0.0730 C   0  0  0  0  0  0  0  0  0  0  0  0
   -4.8893    0.2435   -0.3940 C   0  0  0  0  0  0  0  0  0  0  0  0
   -7.4647   -2.0978   -3.0051 H   0  0  0  0  0  0  0  0  0  0  0  0
   -6.9934   -0.5655   -3.7441 H   0  0  0  0  0  0  0  0  0  0  0  0
   -8.6405   -0.7269   -3.1272 H   0  0  0  0  0  0  0  0  0  0  0  0
   -9.3042   -2.1073   -1.4541 H   0  0  0  0  0  0  0  0  0  0  0  0
  -10.1262   -3.0624    0.6307 H   0  0  0  0  0  0  0  0  0  0  0  0
   -8.9522   -2.5929    2.7659 H   0  0  0  0  0  0  0  0  0  0  0  0
   -6.9510   -1.2040    2.7888 H   0  0  0  0  0  0  0  0  0  0  0  0
   -5.0853    0.3248    2.7140 H   0  0  0  0  0  0  0  0  0  0  0  0
   -6.5745    1.2096    2.3203 H   0  0  0  0  0  0  0  0  0  0  0  0
   -4.6230    2.7284    2.5100 H   0  0  0  0  0  0  0  0  0  0  0  0
   -5.3495    2.7859    0.9007 H   0  0  0  0  0  0  0  0  0  0  0  0
    3.4712    1.9950   -2.7705 H   0  0  0  0  0  0  0  0  0  0  0  0
    3.8644   -1.0204   -0.8970 H   0  0  0  0  0  0  0  0  0  0  0  0
    4.3752   -0.0687   -2.3239 H   0  0  0  0  0  0  0  0  0  0  0  0
    6.3939   -2.1896    0.0847 H   0  0  0  0  0  0  0  0  0  0  0  0
    5.8213   -1.7845   -1.5294 H   0  0  0  0  0  0  0  0  0  0  0  0
    8.0919   -2.7914   -1.5916 H   0  0  0  0  0  0  0  0  0  0  0  0
    8.0198   -1.1913   -2.3038 H   0  0  0  0  0  0  0  0  0  0  0  0
    9.6371   -0.4424   -0.9985 H   0  0  0  0  0  0  0  0  0  0  0  0
    9.6160   -3.1216    0.4726 H   0  0  0  0  0  0  0  0  0  0  0  0
   10.5027   -2.7640   -1.0195 H   0  0  0  0  0  0  0  0  0  0  0  0
   10.9243   -1.9263    0.4819 H   0  0  0  0  0  0  0  0  0  0  0  0
    9.3577   -0.0593    1.3792 H   0  0  0  0  0  0  0  0  0  0  0  0
    8.1639   -1.3456    1.5174 H   0  0  0  0  0  0  0  0  0  0  0  0
    7.0026    0.8097    1.4492 H   0  0  0  0  0  0  0  0  0  0  0  0
    7.8410    1.2817   -0.0313 H   0  0  0  0  0  0  0  0  0  0  0  0
    0.4266    0.5426    2.6329 H   0  0  0  0  0  0  0  0  0  0  0  0
   -1.3282    0.7062    2.5784 H   0  0  0  0  0  0  0  0  0  0  0  0
   -0.5393   -0.5569    1.6217 H   0  0  0  0  0  0  0  0  0  0  0  0
   -3.0284   -0.1390    0.6501 H   0  0  0  0  0  0  0  0  0  0  0  0
   -2.8570    0.8667   -0.8022 H   0  0  0  0  0  0  0  0  0  0  0  0
   -5.3103    1.0356   -1.0248 H   0  0  0  0  0  0  0  0  0  0  0  0
   -4.7686   -0.6672   -0.9914 H   0  0  0  0  0  0  0  0  0  0  0  0
  1  2  1  0
  2  3  1  0
  3  4  2  0
  4  5  1  0
  5  6  2  0
  6  7  1  0
  7  8  2  0
  8  9  1  0
  9 10  1  0
 10 11  1  0
 11 12  1  0
 12 13  1  0
 13 14  2  0
 13 15  1  0
 15 16  1  0
 16 17  1  0
 17 18  1  0
 18 19  2  0
 19 20  1  0
 20 21  1  0
 21 22  1  0
 22 23  2  0
 22 24  1  0
 24 25  1  0
 25 26  1  0
 26 27  1  0
 27 28  1  0
 27 29  1  0
 29 30  1  0
 20 31  1  0
 31 32  2  0
 31 33  1  0
 33 34  1  0
 34 35  1  0
 12 36  1  0
 36 37  1  0
  8  3  1  0
 37  9  1  0
 34 15  2  0
 33 17  2  0
 30 24  1  0
  1 38  1  0
  1 39  1  0
  1 40  1  0
  4 41  1  0
  5 42  1  0
  6 43  1  0
  7 44  1  0
 10 45  1  0
 10 46  1  0
 11 47  1  0
 11 48  1  0
 19 49  1  0
 21 50  1  0
 21 51  1  0
 25 52  1  0
 25 53  1  0
 26 54  1  0
 26 55  1  0
 27 56  1  0
 28 57  1  0
 28 58  1  0
 28 59  1  0
 29 60  1  0
 29 61  1  0
 30 62  1  0
 30 63  1  0
 35 64  1  0
 35 65  1  0
 35 66  1  0
 36 67  1  0
 36 68  1  0
 37 69  1  0
 37 70  1  0
M  END
$$$$
