
     RDKit          3D

 45 44  0  0  0  0  0  0  0  0999 V2000
    3.2383    2.0070   -0.3824 C   0  0  0  0  0  0  0  0  0  0  0  0
    3.3824    1.1011    0.7801 C   0  0  0  0  0  0  0  0  0  0  0  0
    3.0972   -0.3066    0.5413 N   0  0  0  0  0  0  0  0  0  0  0  0
    4.0506   -0.9253   -0.3313 C   0  0  0  0  0  0  0  0  0  0  0  0
    3.4645   -2.3361   -0.3299 C   0  0  0  0  0  0  0  0  0  0  0  0
    1.9773   -2.0231   -0.3899 C   0  0  0  0  0  0  0  0  0  0  0  0
    1.8550   -0.4832   -0.1494 C   0  0  0  0  0  0  0  0  0  0  0  0
    0.6732   -0.3337    0.7782 C   0  0  0  0  0  0  0  0  0  0  0  0
   -0.4866   -0.2979   -0.0092 N   0  0  0  0  0  0  0  0  0  0  0  0
   -1.6837   -0.6230    0.7282 C   0  0  0  0  0  0  0  0  0  0  0  0
   -2.7131    0.2480    0.1304 C   0  0  0  0  0  0  0  0  0  0  0  0
   -2.4210    1.6504    0.1517 C   0  0  0  0  0  0  0  0  0  0  0  0
   -3.3625    2.5295   -0.2796 C   0  0  0  0  0  0  0  0  0  0  0  0
   -4.5906    2.0779   -0.7256 C   0  0  0  0  0  0  0  0  0  0  0  0
   -4.8658    0.7152   -0.7157 C   0  0  0  0  0  0  0  0  0  0  0  0
   -3.9054   -0.1445   -0.3017 C   0  0  0  0  0  0  0  0  0  0  0  0
   -4.2612   -1.5980   -0.1957 C   0  0  0  0  0  0  0  0  0  0  0  0
    0.6909    0.0000    0.0000 Cl  0  0  0  0  0  0  0  0  0  0  0  0
    0.6873    0.0000    0.0000 Cl  0  0  0  0  0  0  0  0  0  0  0  0
    2.5204    2.8606   -0.1940 H   0  0  0  0  0  0  0  0  0  0  0  0
    4.2264    2.5408   -0.5116 H   0  0  0  0  0  0  0  0  0  0  0  0
    2.9710    1.5572   -1.3370 H   0  0  0  0  0  0  0  0  0  0  0  0
    2.6381    1.4429    1.5590 H   0  0  0  0  0  0  0  0  0  0  0  0
    4.3651    1.1650    1.2687 H   0  0  0  0  0  0  0  0  0  0  0  0
    5.0804   -0.8879    0.0321 H   0  0  0  0  0  0  0  0  0  0  0  0
    3.9671   -0.5890   -1.4009 H   0  0  0  0  0  0  0  0  0  0  0  0
    3.7193   -2.8049    0.6662 H   0  0  0  0  0  0  0  0  0  0  0  0
    3.8234   -2.9418   -1.1653 H   0  0  0  0  0  0  0  0  0  0  0  0
    1.4816   -2.5739    0.4399 H   0  0  0  0  0  0  0  0  0  0  0  0
    1.5502   -2.3077   -1.3477 H   0  0  0  0  0  0  0  0  0  0  0  0
    1.7002    0.0145   -1.0776 H   0  0  0  0  0  0  0  0  0  0  0  0
    0.6652   -1.0766    1.5832 H   0  0  0  0  0  0  0  0  0  0  0  0
    0.8102    0.6853    1.2519 H   0  0  0  0  0  0  0  0  0  0  0  0
   -0.5494    0.5374   -0.6009 H   0  0  0  0  0  0  0  0  0  0  0  0
   -1.9165   -1.6667    0.7271 H   0  0  0  0  0  0  0  0  0  0  0  0
   -1.5270   -0.2782    1.7974 H   0  0  0  0  0  0  0  0  0  0  0  0
   -1.4543    1.9945    0.4781 H   0  0  0  0  0  0  0  0  0  0  0  0
   -3.2260    3.6111   -0.1852 H   0  0  0  0  0  0  0  0  0  0  0  0
   -5.2762    2.8028   -1.1728 H   0  0  0  0  0  0  0  0  0  0  0  0
   -5.8626    0.4321   -1.0282 H   0  0  0  0  0  0  0  0  0  0  0  0
   -3.4613   -2.2850   -0.4360 H   0  0  0  0  0  0  0  0  0  0  0  0
   -5.1291   -1.8061   -0.8418 H   0  0  0  0  0  0  0  0  0  0  0  0
   -4.5648   -1.6840    0.8921 H   0  0  0  0  0  0  0  0  0  0  0  0
   -0.6909    0.0000    0.0000 H   0  0  0  0  0  0  0  0  0  0  0  0
   -0.6873    0.0000    0.0000 H   0  0  0  0  0  0  0  0  0  0  0  0
  1  2  1  0
  2  3  1  0
  3  4  1  0
  4  5  1  0
  5  6  1  0
  6  7  1  0
  7  8  1  0
  8  9  1  0
  9 10  1  0
 10 11  1  0
 11 12  2  0
 12 13  1  0
 13 14  2  0
 14 15  1  0
 15 16  2  0
 16 17  1  0
  7  3  1  0
 16 11  1  0
  1 20  1  0
  1 21  1  0
  1 22  1  0
  2 23  1  0
  2 24  1  0
  4 25  1  0
  4 26  1  0
  5 27  1  0
  5 28  1  0
  6 29  1  0
  6 30  1  0
  7 31  1  0
  8 32  1  0
  8 33  1  0
  9 34  1  0
 10 35  1  0
 10 36  1  0
 12 37  1  0
 13 38  1  0
 14 39  1  0
 15 40  1  0
 17 41  1  0
 17 42  1  0
 17 43  1  0
 18 44  1  0
 19 45  1  0
M  END
$$$$
