
     RDKit          3D

 62 66  0  0  0  0  0  0  0  0999 V2000
   -6.7929   -2.2677    1.4321 C   0  0  0  0  0  0  0  0  0  0  0  0
   -6.1285   -2.2216    0.0412 C   0  0  0  0  0  0  0  0  0  0  0  0
   -5.5450   -3.6185   -0.2568 C   0  0  0  0  0  0  0  0  0  0  0  0
   -7.2096   -1.9287   -1.0209 C   0  0  0  0  0  0  0  0  0  0  0  0
   -5.0574   -1.1422    0.0149 C   0  0  0  0  0  0  0  0  0  0  0  0
   -3.6536   -1.2816   -0.0638 C   0  0  0  0  0  0  0  0  0  0  0  0
   -3.1360   -0.0063    0.0233 C   0  0  0  0  0  0  0  0  0  0  0  0
   -1.8230    0.4287    0.1803 N   0  0  0  0  0  0  0  0  0  0  0  0
   -0.7317   -0.4268    0.2656 C   0  0  0  0  0  0  0  0  0  0  0  0
   -0.7867   -1.6472    0.1851 O   0  0  0  0  0  0  0  0  0  0  0  0
    0.4356    0.3010    0.4318 N   0  0  0  0  0  0  0  0  0  0  0  0
    1.7470   -0.1936    0.6025 C   0  0  0  0  0  0  0  0  0  0  0  0
    2.0721   -1.5416    0.7547 C   0  0  0  0  0  0  0  0  0  0  0  0
    3.4074   -1.9269    0.9257 C   0  0  0  0  0  0  0  0  0  0  0  0
    4.4224   -0.9691    0.9293 C   0  0  0  0  0  0  0  0  0  0  0  0
    5.7092   -1.4130    1.1315 O   0  0  0  0  0  0  0  0  0  0  0  0
    6.6522   -0.9575    0.2336 C   0  0  0  0  0  0  0  0  0  0  0  0
    6.5593   -1.3008   -1.1166 C   0  0  0  0  0  0  0  0  0  0  0  0
    7.5571   -0.8611   -1.9683 C   0  0  0  0  0  0  0  0  0  0  0  0
    8.6186   -0.1273   -1.5685 N   0  0  0  0  0  0  0  0  0  0  0  0
    8.6843    0.1694   -0.2531 C   0  0  0  0  0  0  0  0  0  0  0  0
    9.7847    0.9154    0.1568 N   0  0  0  0  0  0  0  0  0  0  0  0
    9.9699    1.2735    1.4610 C   0  0  0  0  0  0  0  0  0  0  0  0
   10.9156    1.9223    1.8803 O   0  0  0  0  0  0  0  0  0  0  0  0
    8.8957    0.8163    2.4244 C   0  0  0  0  0  0  0  0  0  0  0  0
    7.8530    0.1268    2.0745 N   0  0  0  0  0  0  0  0  0  0  0  0
    7.7384   -0.2171    0.7062 C   0  0  0  0  0  0  0  0  0  0  0  0
    4.1110    0.3822    0.8045 C   0  0  0  0  0  0  0  0  0  0  0  0
    2.7811    0.7524    0.6381 C   0  0  0  0  0  0  0  0  0  0  0  0
    2.4823    2.0559    0.5100 F   0  0  0  0  0  0  0  0  0  0  0  0
   -4.2451    0.8421   -0.0266 N   0  0  0  0  0  0  0  0  0  0  0  0
   -4.3002    2.2554   -0.2152 C   0  0  0  0  0  0  0  0  0  0  0  0
   -5.4470    2.9538    0.1947 C   0  0  0  0  0  0  0  0  0  0  0  0
   -5.5285    4.3375    0.0257 C   0  0  0  0  0  0  0  0  0  0  0  0
   -4.4776    5.0308   -0.5703 C   0  0  0  0  0  0  0  0  0  0  0  0
   -3.3509    4.3405   -1.0139 C   0  0  0  0  0  0  0  0  0  0  0  0
   -3.2621    2.9555   -0.8457 C   0  0  0  0  0  0  0  0  0  0  0  0
   -5.4023    0.1462    0.1238 N   0  0  0  0  0  0  0  0  0  0  0  0
   -7.2773   -1.3157    1.6789 H   0  0  0  0  0  0  0  0  0  0  0  0
   -7.5593   -3.0497    1.4809 H   0  0  0  0  0  0  0  0  0  0  0  0
   -6.0545   -2.4716    2.2168 H   0  0  0  0  0  0  0  0  0  0  0  0
   -4.8031   -3.9136    0.4943 H   0  0  0  0  0  0  0  0  0  0  0  0
   -6.3297   -4.3840   -0.2574 H   0  0  0  0  0  0  0  0  0  0  0  0
   -5.0553   -3.6465   -1.2372 H   0  0  0  0  0  0  0  0  0  0  0  0
   -7.9737   -2.7143   -1.0376 H   0  0  0  0  0  0  0  0  0  0  0  0
   -7.7215   -0.9791   -0.8272 H   0  0  0  0  0  0  0  0  0  0  0  0
   -6.7714   -1.8656   -2.0238 H   0  0  0  0  0  0  0  0  0  0  0  0
   -3.0924   -2.2052   -0.0952 H   0  0  0  0  0  0  0  0  0  0  0  0
   -1.6814    1.3940    0.4389 H   0  0  0  0  0  0  0  0  0  0  0  0
    0.3749    1.3066    0.3384 H   0  0  0  0  0  0  0  0  0  0  0  0
    1.3129   -2.3174    0.7574 H   0  0  0  0  0  0  0  0  0  0  0  0
    3.6508   -2.9784    1.0558 H   0  0  0  0  0  0  0  0  0  0  0  0
    5.7382   -1.9019   -1.4920 H   0  0  0  0  0  0  0  0  0  0  0  0
    7.5323   -1.1007   -3.0289 H   0  0  0  0  0  0  0  0  0  0  0  0
   10.4609    1.1839   -0.5416 H   0  0  0  0  0  0  0  0  0  0  0  0
    9.0544    1.1152    3.4722 H   0  0  0  0  0  0  0  0  0  0  0  0
    4.8767    1.1479    0.8527 H   0  0  0  0  0  0  0  0  0  0  0  0
   -6.2816    2.4322    0.6612 H   0  0  0  0  0  0  0  0  0  0  0  0
   -6.4166    4.8708    0.3555 H   0  0  0  0  0  0  0  0  0  0  0  0
   -4.5459    6.1074   -0.7078 H   0  0  0  0  0  0  0  0  0  0  0  0
   -2.5502    4.8813   -1.5127 H   0  0  0  0  0  0  0  0  0  0  0  0
   -2.4059    2.4475   -1.2793 H   0  0  0  0  0  0  0  0  0  0  0  0
  1  2  1  0
  2  3  1  0
  2  4  1  0
  2  5  1  0
  5  6  1  0
  6  7  2  0
  7  8  1  0
  8  9  1  0
  9 10  2  0
  9 11  1  0
 11 12  1  0
 12 13  2  0
 13 14  1  0
 14 15  2  0
 15 16  1  0
 16 17  1  0
 17 18  2  0
 18 19  1  0
 19 20  2  0
 20 21  1  0
 21 22  1  0
 22 23  1  0
 23 24  2  0
 23 25  1  0
 25 26  2  0
 26 27  1  0
 15 28  1  0
 28 29  2  0
 29 30  1  0
  7 31  1  0
 31 32  1  0
 32 33  2  0
 33 34  1  0
 34 35  2  0
 35 36  1  0
 36 37  2  0
 31 38  1  0
 38  5  2  0
 29 12  1  0
 37 32  1  0
 27 17  1  0
 27 21  2  0
  1 39  1  0
  1 40  1  0
  1 41  1  0
  3 42  1  0
  3 43  1  0
  3 44  1  0
  4 45  1  0
  4 46  1  0
  4 47  1  0
  6 48  1  0
  8 49  1  0
 11 50  1  0
 13 51  1  0
 14 52  1  0
 18 53  1  0
 19 54  1  0
 22 55  1  0
 25 56  1  0
 28 57  1  0
 33 58  1  0
 34 59  1  0
 35 60  1  0
 36 61  1  0
 37 62  1  0
M  END
$$$$
