
     RDKit          3D

 29 28  0  0  0  0  0  0  0  0999 V2000
   -4.0914    1.2850    0.4799 N   0  0  0  0  0  0  0  0  0  0  0  0
   -4.0070    0.2602   -0.5530 C   0  0  0  0  0  0  0  0  0  0  0  0
   -2.5895    0.0707   -1.0974 C   0  0  0  0  0  0  0  0  0  0  0  0
   -1.6032   -0.4633   -0.0541 C   0  0  0  0  0  0  0  0  0  0  0  0
   -0.2307   -0.7261   -0.6784 C   0  0  0  0  0  0  0  0  0  0  0  0
    0.6875   -1.2175    0.3513 N   0  0  0  0  0  0  0  0  0  0  0  0
    2.0364   -1.4369   -0.1732 C   0  0  0  0  0  0  0  0  0  0  0  0
    3.0421   -0.4264    0.3879 C   0  0  0  0  0  0  0  0  0  0  0  0
    2.7760    1.0088   -0.0643 C   0  0  0  0  0  0  0  0  0  0  0  0
    3.8192    1.9162    0.4131 N   0  0  0  0  0  0  0  0  0  0  0  0
   -3.5379    1.0097    1.2902 H   0  0  0  0  0  0  0  0  0  0  0  0
   -3.6760    2.1517    0.1398 H   0  0  0  0  0  0  0  0  0  0  0  0
   -4.6693    0.5468   -1.3773 H   0  0  0  0  0  0  0  0  0  0  0  0
   -4.3878   -0.6860   -0.1532 H   0  0  0  0  0  0  0  0  0  0  0  0
   -2.6376   -0.6324   -1.9383 H   0  0  0  0  0  0  0  0  0  0  0  0
   -2.2189    1.0202   -1.5040 H   0  0  0  0  0  0  0  0  0  0  0  0
   -1.4957    0.2592    0.7638 H   0  0  0  0  0  0  0  0  0  0  0  0
   -1.9983   -1.3904    0.3801 H   0  0  0  0  0  0  0  0  0  0  0  0
    0.1496    0.2026   -1.1184 H   0  0  0  0  0  0  0  0  0  0  0  0
   -0.3273   -1.4672   -1.4810 H   0  0  0  0  0  0  0  0  0  0  0  0
    0.3230   -2.0973    0.7190 H   0  0  0  0  0  0  0  0  0  0  0  0
    2.0651   -1.4380   -1.2699 H   0  0  0  0  0  0  0  0  0  0  0  0
    2.3611   -2.4379    0.1371 H   0  0  0  0  0  0  0  0  0  0  0  0
    4.0451   -0.7310    0.0618 H   0  0  0  0  0  0  0  0  0  0  0  0
    3.0428   -0.4777    1.4846 H   0  0  0  0  0  0  0  0  0  0  0  0
    1.8120    1.3634    0.3142 H   0  0  0  0  0  0  0  0  0  0  0  0
    2.7401    1.0602   -1.1578 H   0  0  0  0  0  0  0  0  0  0  0  0
    4.7315    1.5803    0.1080 H   0  0  0  0  0  0  0  0  0  0  0  0
    3.8393    1.8931    1.4325 H   0  0  0  0  0  0  0  0  0  0  0  0
  1  2  1  0
  2  3  1  0
  3  4  1  0
  4  5  1  0
  5  6  1  0
  6  7  1  0
  7  8  1  0
  8  9  1  0
  9 10  1  0
  1 11  1  0
  1 12  1  0
  2 13  1  0
  2 14  1  0
  3 15  1  0
  3 16  1  0
  4 17  1  0
  4 18  1  0
  5 19  1  0
  5 20  1  0
  6 21  1  0
  7 22  1  0
  7 23  1  0
  8 24  1  0
  8 25  1  0
  9 26  1  0
  9 27  1  0
 10 28  1  0
 10 29  1  0
M  END
$$$$
