
     RDKit          3D

 47 51  0  0  0  0  0  0  0  0999 V2000
    5.0698    2.9500    2.3011 N   0  0  0  0  0  0  0  0  0  0  0  0
    4.3296    1.9361    1.7012 C   0  0  0  0  0  0  0  0  0  0  0  0
    4.6923    0.6077    1.8589 C   0  0  0  0  0  0  0  0  0  0  0  0
    3.9360   -0.3803    1.2265 C   0  0  0  0  0  0  0  0  0  0  0  0
    2.8335   -0.0278    0.4425 C   0  0  0  0  0  0  0  0  0  0  0  0
    2.0056   -1.0319   -0.2406 C   0  0  0  0  0  0  0  0  0  0  0  0
    2.5742   -2.0423   -1.0128 C   0  0  0  0  0  0  0  0  0  0  0  0
    1.7671   -3.0075   -1.6185 C   0  0  0  0  0  0  0  0  0  0  0  0
    0.3857   -2.9916   -1.5046 C   0  0  0  0  0  0  0  0  0  0  0  0
   -0.2774   -4.0131   -2.0569 N   0  0  0  0  0  0  0  0  0  0  0  0
   -1.6080   -4.0794   -1.8685 C   0  0  0  0  0  0  0  0  0  0  0  0
   -2.3481   -3.1056   -1.2203 C   0  0  0  0  0  0  0  0  0  0  0  0
   -3.7679   -3.3061   -0.9760 C   0  0  0  0  0  0  0  0  0  0  0  0
   -4.4643   -2.3701   -0.3308 C   0  0  0  0  0  0  0  0  0  0  0  0
   -3.8676   -1.0666    0.0434 C   0  0  0  0  0  0  0  0  0  0  0  0
   -4.6284   -0.2303    0.5299 O   0  0  0  0  0  0  0  0  0  0  0  0
   -2.5079   -0.8783   -0.2510 N   0  0  0  0  0  0  0  0  0  0  0  0
   -2.0534    0.4782   -0.3699 C   0  0  0  0  0  0  0  0  0  0  0  0
   -1.4275    0.9352   -1.5419 C   0  0  0  0  0  0  0  0  0  0  0  0
   -1.0124    2.2632   -1.6598 C   0  0  0  0  0  0  0  0  0  0  0  0
   -1.2239    3.1568   -0.6114 C   0  0  0  0  0  0  0  0  0  0  0  0
   -1.8588    2.7333    0.5642 C   0  0  0  0  0  0  0  0  0  0  0  0
   -2.1258    3.7013    1.6905 C   0  0  0  0  0  0  0  0  0  0  0  0
   -2.0259    3.1258    2.9214 F   0  0  0  0  0  0  0  0  0  0  0  0
   -3.3721    4.2441    1.6280 F   0  0  0  0  0  0  0  0  0  0  0  0
   -1.2613    4.7550    1.7059 F   0  0  0  0  0  0  0  0  0  0  0  0
   -2.2819    1.3964    0.6663 C   0  0  0  0  0  0  0  0  0  0  0  0
   -1.6855   -1.9547   -0.7708 C   0  0  0  0  0  0  0  0  0  0  0  0
   -0.2488   -1.9431   -0.8020 C   0  0  0  0  0  0  0  0  0  0  0  0
    0.6038   -1.0136   -0.1351 C   0  0  0  0  0  0  0  0  0  0  0  0
    2.5684    1.3388    0.3463 C   0  0  0  0  0  0  0  0  0  0  0  0
    3.2858    2.3181    0.9517 N   0  0  0  0  0  0  0  0  0  0  0  0
    4.5978    3.8246    2.0837 H   0  0  0  0  0  0  0  0  0  0  0  0
    5.1533    2.8081    3.3006 H   0  0  0  0  0  0  0  0  0  0  0  0
    5.5553    0.3389    2.4579 H   0  0  0  0  0  0  0  0  0  0  0  0
    4.2130   -1.4231    1.3597 H   0  0  0  0  0  0  0  0  0  0  0  0
    3.6529   -2.1030   -1.1439 H   0  0  0  0  0  0  0  0  0  0  0  0
    2.2376   -3.8092   -2.1851 H   0  0  0  0  0  0  0  0  0  0  0  0
   -2.0726   -4.9782   -2.2662 H   0  0  0  0  0  0  0  0  0  0  0  0
   -4.2362   -4.2374   -1.2767 H   0  0  0  0  0  0  0  0  0  0  0  0
   -5.5175   -2.4908   -0.1049 H   0  0  0  0  0  0  0  0  0  0  0  0
   -1.2797    0.2707   -2.3903 H   0  0  0  0  0  0  0  0  0  0  0  0
   -0.5337    2.6029   -2.5756 H   0  0  0  0  0  0  0  0  0  0  0  0
   -0.8991    4.1914   -0.7173 H   0  0  0  0  0  0  0  0  0  0  0  0
   -2.7831    1.0711    1.5783 H   0  0  0  0  0  0  0  0  0  0  0  0
    0.1657   -0.2707    0.5279 H   0  0  0  0  0  0  0  0  0  0  0  0
    1.7412    1.7073   -0.2550 H   0  0  0  0  0  0  0  0  0  0  0  0
  1  2  1  0
  2  3  2  0
  3  4  1  0
  4  5  2  0
  5  6  1  0
  6  7  2  0
  7  8  1  0
  8  9  2  0
  9 10  1  0
 10 11  2  0
 11 12  1  0
 12 13  1  0
 13 14  2  0
 14 15  1  0
 15 16  2  0
 15 17  1  0
 17 18  1  0
 18 19  2  0
 19 20  1  0
 20 21  2  0
 21 22  1  0
 22 23  1  0
 23 24  1  0
 23 25  1  0
 23 26  1  0
 22 27  2  0
 17 28  1  0
 28 29  1  0
 29 30  2  0
  5 31  1  0
 31 32  2  0
 32  2  1  0
 30  6  1  0
 29  9  1  0
 28 12  2  0
 27 18  1  0
  1 33  1  0
  1 34  1  0
  3 35  1  0
  4 36  1  0
  7 37  1  0
  8 38  1  0
 11 39  1  0
 13 40  1  0
 14 41  1  0
 19 42  1  0
 20 43  1  0
 21 44  1  0
 27 45  1  0
 30 46  1  0
 31 47  1  0
M  END
$$$$
