
     RDKit          3D

 28 29  0  0  0  0  0  0  0  0999 V2000
    3.2421    4.0339   -0.1816 O   0  0  0  0  0  0  0  0  0  0  0  0
    2.6499    2.9597   -0.1749 C   0  0  0  0  0  0  0  0  0  0  0  0
    1.3185    2.8920    0.1327 N   0  0  0  0  0  0  0  0  0  0  0  0
    0.5443    1.7622    0.1850 C   0  0  0  0  0  0  0  0  0  0  0  0
   -0.6433    1.8607    0.4822 O   0  0  0  0  0  0  0  0  0  0  0  0
    1.2011    0.5730   -0.1019 N   0  0  0  0  0  0  0  0  0  0  0  0
    0.4608   -0.6866   -0.1018 C   0  0  1  0  0  0  0  0  0  0  0  0
   -0.2141   -1.0652    1.2099 C   0  0  0  0  0  0  0  0  0  0  0  0
   -1.2799   -2.0164    0.7200 C   0  0  2  0  0  0  0  0  0  0  0  0
   -0.6648   -3.2960    0.5404 O   0  0  0  0  0  0  0  0  0  0  0  0
   -1.6866   -1.4173   -0.6278 C   0  0  1  0  0  0  0  0  0  0  0  0
   -2.8933   -0.4830   -0.5189 C   0  0  0  0  0  0  0  0  0  0  0  0
   -3.2093    0.0379   -1.8091 O   0  0  0  0  0  0  0  0  0  0  0  0
   -0.5574   -0.6470   -1.1136 O   0  0  0  0  0  0  0  0  0  0  0  0
    2.5469    0.5559   -0.4350 C   0  0  0  0  0  0  0  0  0  0  0  0
    3.3026    1.6605   -0.4883 C   0  0  0  0  0  0  0  0  0  0  0  0
    5.2851    1.6056   -0.9812 I   0  0  0  0  0  0  0  0  0  0  0  0
    0.8552    3.7632    0.3403 H   0  0  0  0  0  0  0  0  0  0  0  0
    1.1397   -1.4994   -0.3923 H   0  0  0  0  0  0  0  0  0  0  0  0
   -0.6843   -0.2109    1.7040 H   0  0  0  0  0  0  0  0  0  0  0  0
    0.4983   -1.5131    1.9100 H   0  0  0  0  0  0  0  0  0  0  0  0
   -2.1079   -2.1392    1.4239 H   0  0  0  0  0  0  0  0  0  0  0  0
   -1.3447   -3.9085    0.2055 H   0  0  0  0  0  0  0  0  0  0  0  0
   -1.8829   -2.1907   -1.3788 H   0  0  0  0  0  0  0  0  0  0  0  0
   -3.7707   -1.0216   -0.1487 H   0  0  0  0  0  0  0  0  0  0  0  0
   -2.7009    0.3651    0.1431 H   0  0  0  0  0  0  0  0  0  0  0  0
   -2.3801    0.4424   -2.1322 H   0  0  0  0  0  0  0  0  0  0  0  0
    2.9760   -0.4170   -0.6618 H   0  0  0  0  0  0  0  0  0  0  0  0
  1  2  2  0
  2  3  1  0
  3  4  1  0
  4  5  2  0
  4  6  1  0
  6  7  1  0
  7  8  1  0
  8  9  1  0
  9 10  1  0
  9 11  1  0
 11 12  1  0
 12 13  1  0
 11 14  1  0
  6 15  1  0
 15 16  2  0
 16 17  1  0
 16  2  1  0
 14  7  1  0
  3 18  1  0
  7 19  1  6
  8 20  1  0
  8 21  1  0
  9 22  1  1
 10 23  1  0
 11 24  1  6
 12 25  1  0
 12 26  1  0
 13 27  1  0
 15 28  1  0
M  END
$$$$
