
     RDKit          3D

 40 42  0  0  0  0  0  0  0  0999 V2000
   -0.9067   -2.9251   -1.8889 C   0  0  0  0  0  0  0  0  0  0  0  0
    0.1633   -1.7202   -1.1296 S   0  0  0  0  0  6  0  0  0  0  0  0
    1.3438   -1.5905   -1.9668 O   0  0  0  0  0  0  0  0  0  0  0  0
    0.3012   -2.0288    0.2752 O   0  0  0  0  0  0  0  0  0  0  0  0
   -0.7278   -0.2890   -1.3268 N   0  0  0  0  0  0  0  0  0  0  0  0
    0.0668    0.9545   -1.5131 C   0  0  0  0  0  0  0  0  0  0  0  0
    1.0734    1.2679   -0.4132 C   0  0  0  0  0  0  0  0  0  0  0  0
    0.7672    2.0034    0.5224 O   0  0  0  0  0  0  0  0  0  0  0  0
    2.3020    0.6568   -0.6038 N   0  0  0  0  0  0  0  0  0  0  0  0
    3.4546    0.7704    0.1999 C   0  0  0  0  0  0  0  0  0  0  0  0
    3.5798    1.6667    1.2637 C   0  0  0  0  0  0  0  0  0  0  0  0
    4.7622    1.7239    2.0094 C   0  0  0  0  0  0  0  0  0  0  0  0
    5.8307    0.8869    1.6960 C   0  0  0  0  0  0  0  0  0  0  0  0
    5.7105   -0.0052    0.6347 C   0  0  0  0  0  0  0  0  0  0  0  0
    7.1565   -1.1446    0.2012 Br  0  0  0  0  0  0  0  0  0  0  0  0
    4.5333   -0.0666   -0.1130 C   0  0  0  0  0  0  0  0  0  0  0  0
   -1.9315   -0.1511   -0.5536 C   0  0  0  0  0  0  0  0  0  0  0  0
   -1.9091   -0.0041    0.8465 C   0  0  0  0  0  0  0  0  0  0  0  0
   -3.0985    0.1626    1.5636 C   0  0  0  0  0  0  0  0  0  0  0  0
   -4.2775    0.1903    0.8517 C   0  0  0  0  0  0  0  0  0  0  0  0
   -4.2980    0.0643   -0.5173 C   0  0  0  0  0  0  0  0  0  0  0  0
   -3.1426   -0.1004   -1.2511 C   0  0  0  0  0  0  0  0  0  0  0  0
   -5.5584    0.1254   -1.0249 O   0  0  0  0  0  0  0  0  0  0  0  0
   -6.3289    0.3105    0.1822 C   0  0  0  0  0  0  0  0  0  0  0  0
   -5.5214    0.3453    1.3769 O   0  0  0  0  0  0  0  0  0  0  0  0
   -0.3786   -3.8813   -1.8979 H   0  0  0  0  0  0  0  0  0  0  0  0
   -1.8218   -3.0176   -1.3021 H   0  0  0  0  0  0  0  0  0  0  0  0
   -1.1217   -2.6128   -2.9125 H   0  0  0  0  0  0  0  0  0  0  0  0
    0.5851    0.9022   -2.4788 H   0  0  0  0  0  0  0  0  0  0  0  0
   -0.6054    1.8179   -1.6040 H   0  0  0  0  0  0  0  0  0  0  0  0
    2.3447   -0.0538   -1.3364 H   0  0  0  0  0  0  0  0  0  0  0  0
    2.7747    2.3406    1.5399 H   0  0  0  0  0  0  0  0  0  0  0  0
    4.8434    2.4249    2.8366 H   0  0  0  0  0  0  0  0  0  0  0  0
    6.7443    0.9376    2.2819 H   0  0  0  0  0  0  0  0  0  0  0  0
    4.4582   -0.7748   -0.9342 H   0  0  0  0  0  0  0  0  0  0  0  0
   -0.9664   -0.0155    1.3910 H   0  0  0  0  0  0  0  0  0  0  0  0
   -3.0903    0.2729    2.6424 H   0  0  0  0  0  0  0  0  0  0  0  0
   -3.1818   -0.1854   -2.3305 H   0  0  0  0  0  0  0  0  0  0  0  0
   -6.8814    1.2540    0.1040 H   0  0  0  0  0  0  0  0  0  0  0  0
   -7.0477   -0.5125    0.2683 H   0  0  0  0  0  0  0  0  0  0  0  0
  1  2  1  0
  2  3  2  0
  2  4  2  0
  2  5  1  0
  5  6  1  0
  6  7  1  0
  7  8  2  0
  7  9  1  0
  9 10  1  0
 10 11  2  0
 11 12  1  0
 12 13  2  0
 13 14  1  0
 14 15  1  0
 14 16  2  0
  5 17  1  0
 17 18  2  0
 18 19  1  0
 19 20  2  0
 20 21  1  0
 21 22  2  0
 21 23  1  0
 23 24  1  0
 24 25  1  0
 16 10  1  0
 22 17  1  0
 25 20  1  0
  1 26  1  0
  1 27  1  0
  1 28  1  0
  6 29  1  0
  6 30  1  0
  9 31  1  0
 11 32  1  0
 12 33  1  0
 13 34  1  0
 16 35  1  0
 18 36  1  0
 19 37  1  0
 22 38  1  0
 24 39  1  0
 24 40  1  0
M  END
$$$$
