
     RDKit          3D

 69 73  0  0  0  0  0  0  0  0999 V2000
   -5.1451    5.9622    0.5368 C   0  0  0  0  0  0  0  0  0  0  0  0
   -5.1124    4.7000    0.0915 C   0  0  0  0  0  0  0  0  0  0  0  0
   -5.2849    3.4867    0.9604 C   0  0  0  0  0  0  0  0  0  0  0  0
   -4.0667    2.7031    0.9599 N   0  0  0  0  0  0  0  0  0  0  0  0
   -3.0253    2.9135    1.8429 C   0  0  0  0  0  0  0  0  0  0  0  0
   -3.0053    3.5323    2.8906 O   0  0  0  0  0  0  0  0  0  0  0  0
   -1.8704    2.2804    1.2579 C   0  0  0  0  0  0  0  0  0  0  0  0
   -0.6006    2.1002    1.6908 C   0  0  0  0  0  0  0  0  0  0  0  0
    0.2947    1.4438    0.9269 N   0  0  0  0  0  0  0  0  0  0  0  0
   -0.1073    0.9797   -0.2784 C   0  0  0  0  0  0  0  0  0  0  0  0
    0.7650    0.2992   -1.1215 N   0  0  0  0  0  0  0  0  0  0  0  0
    2.0237   -0.2826   -0.9392 C   0  0  0  0  0  0  0  0  0  0  0  0
    2.6591   -0.8668   -2.0407 C   0  0  0  0  0  0  0  0  0  0  0  0
    3.9335   -1.4390   -1.9288 C   0  0  0  0  0  0  0  0  0  0  0  0
    4.6411   -1.4403   -0.7177 C   0  0  0  0  0  0  0  0  0  0  0  0
    5.9138   -2.0174   -0.6545 N   0  0  0  0  0  0  0  0  0  0  0  0
    6.8668   -1.4980   -1.6665 C   0  0  0  0  0  0  0  0  0  0  0  0
    8.3401   -1.7120   -1.2466 C   0  0  0  0  0  0  0  0  0  0  0  0
    8.7064   -1.1755    0.0824 N   0  0  0  0  0  0  0  0  0  0  0  0
    9.1586    0.2116    0.0017 C   0  0  0  0  0  0  0  0  0  0  0  0
    7.5810   -1.2976    1.0433 C   0  0  0  0  0  0  0  0  0  0  0  0
    6.5263   -2.3530    0.6464 C   0  0  0  0  0  0  0  0  0  0  0  0
    4.0027   -0.8457    0.3757 C   0  0  0  0  0  0  0  0  0  0  0  0
    2.7275   -0.2682    0.2639 C   0  0  0  0  0  0  0  0  0  0  0  0
   -1.3532    1.1502   -0.7684 N   0  0  0  0  0  0  0  0  0  0  0  0
   -2.2229    1.7955    0.0274 C   0  0  0  0  0  0  0  0  0  0  0  0
   -3.6093    2.0735   -0.2725 N   0  0  0  0  0  0  0  0  0  0  0  0
   -4.4407    0.9583   -0.6005 C   0  0  0  0  0  0  0  0  0  0  0  0
   -5.1863    1.0260   -1.7771 C   0  0  0  0  0  0  0  0  0  0  0  0
   -6.0383   -0.0236   -2.1050 C   0  0  0  0  0  0  0  0  0  0  0  0
   -6.1235   -1.1215   -1.2557 C   0  0  0  0  0  0  0  0  0  0  0  0
   -5.3487   -1.1398   -0.0997 C   0  0  0  0  0  0  0  0  0  0  0  0
   -5.3776   -2.3105    0.8808 C   0  0  0  0  0  0  0  0  0  0  0  0
   -5.1204   -3.6554    0.1978 C   0  0  0  0  0  0  0  0  0  0  0  0
   -6.6952   -2.3343    1.6617 C   0  0  0  0  0  0  0  0  0  0  0  0
   -4.3255   -2.1443    1.8519 O   0  0  0  0  0  0  0  0  0  0  0  0
   -4.5246   -0.1072    0.2362 N   0  0  0  0  0  0  0  0  0  0  0  0
   -5.0204    6.7986   -0.1446 H   0  0  0  0  0  0  0  0  0  0  0  0
   -5.2865    6.1916    1.5900 H   0  0  0  0  0  0  0  0  0  0  0  0
   -4.9655    4.5269   -0.9718 H   0  0  0  0  0  0  0  0  0  0  0  0
   -5.5159    3.7699    1.9938 H   0  0  0  0  0  0  0  0  0  0  0  0
   -6.1129    2.8725    0.5926 H   0  0  0  0  0  0  0  0  0  0  0  0
   -0.2548    2.4619    2.6516 H   0  0  0  0  0  0  0  0  0  0  0  0
    0.2675    0.0300   -1.9579 H   0  0  0  0  0  0  0  0  0  0  0  0
    2.1676   -0.8899   -3.0098 H   0  0  0  0  0  0  0  0  0  0  0  0
    4.3658   -1.9080   -2.8097 H   0  0  0  0  0  0  0  0  0  0  0  0
    6.7012   -2.0116   -2.6201 H   0  0  0  0  0  0  0  0  0  0  0  0
    6.7074   -0.4245   -1.8280 H   0  0  0  0  0  0  0  0  0  0  0  0
    9.0051   -1.3156   -2.0246 H   0  0  0  0  0  0  0  0  0  0  0  0
    8.5373   -2.7917   -1.2229 H   0  0  0  0  0  0  0  0  0  0  0  0
    9.4582    0.5752    0.9920 H   0  0  0  0  0  0  0  0  0  0  0  0
    8.3835    0.8790   -0.3913 H   0  0  0  0  0  0  0  0  0  0  0  0
   10.0442    0.2928   -0.6394 H   0  0  0  0  0  0  0  0  0  0  0  0
    8.0019   -1.5622    2.0209 H   0  0  0  0  0  0  0  0  0  0  0  0
    7.0670   -0.3336    1.1664 H   0  0  0  0  0  0  0  0  0  0  0  0
    5.7857   -2.4855    1.4440 H   0  0  0  0  0  0  0  0  0  0  0  0
    7.0140   -3.3317    0.5526 H   0  0  0  0  0  0  0  0  0  0  0  0
    4.4876   -0.7805    1.3447 H   0  0  0  0  0  0  0  0  0  0  0  0
    2.3028    0.1843    1.1545 H   0  0  0  0  0  0  0  0  0  0  0  0
   -5.1047    1.8894   -2.4293 H   0  0  0  0  0  0  0  0  0  0  0  0
   -6.6307    0.0149   -3.0162 H   0  0  0  0  0  0  0  0  0  0  0  0
   -6.7883   -1.9437   -1.4999 H   0  0  0  0  0  0  0  0  0  0  0  0
   -4.1792   -3.6343   -0.3669 H   0  0  0  0  0  0  0  0  0  0  0  0
   -5.9243   -3.9291   -0.4936 H   0  0  0  0  0  0  0  0  0  0  0  0
   -5.0225   -4.4587    0.9395 H   0  0  0  0  0  0  0  0  0  0  0  0
   -6.8636   -1.3832    2.1797 H   0  0  0  0  0  0  0  0  0  0  0  0
   -7.5571   -2.5207    1.0111 H   0  0  0  0  0  0  0  0  0  0  0  0
   -6.6722   -3.1105    2.4365 H   0  0  0  0  0  0  0  0  0  0  0  0
   -3.9544   -1.2555    1.6657 H   0  0  0  0  0  0  0  0  0  0  0  0
  1  2  2  3
  2  3  1  0
  3  4  1  0
  4  5  1  0
  5  6  2  0
  5  7  1  0
  7  8  2  0
  8  9  1  0
  9 10  2  0
 10 11  1  0
 11 12  1  0
 12 13  2  0
 13 14  1  0
 14 15  2  0
 15 16  1  0
 16 17  1  0
 17 18  1  0
 18 19  1  0
 19 20  1  0
 19 21  1  0
 21 22  1  0
 15 23  1  0
 23 24  2  0
 10 25  1  0
 25 26  2  0
 26 27  1  0
 27 28  1  0
 28 29  2  0
 29 30  1  0
 30 31  2  0
 31 32  1  0
 32 33  1  0
 33 34  1  0
 33 35  1  0
 33 36  1  0
 32 37  2  0
 27  4  1  0
 37 28  1  0
 26  7  1  0
 24 12  1  0
 22 16  1  0
  1 38  1  0
  1 39  1  0
  2 40  1  0
  3 41  1  0
  3 42  1  0
  8 43  1  0
 11 44  1  0
 13 45  1  0
 14 46  1  0
 17 47  1  0
 17 48  1  0
 18 49  1  0
 18 50  1  0
 20 51  1  0
 20 52  1  0
 20 53  1  0
 21 54  1  0
 21 55  1  0
 22 56  1  0
 22 57  1  0
 23 58  1  0
 24 59  1  0
 29 60  1  0
 30 61  1  0
 31 62  1  0
 34 63  1  0
 34 64  1  0
 34 65  1  0
 35 66  1  0
 35 67  1  0
 35 68  1  0
 36 69  1  0
M  END
$$$$
