
     RDKit          3D

 61 65  0  0  0  0  0  0  0  0999 V2000
   -2.3419    1.7622   -0.7862 C   0  0  0  0  0  0  0  0  0  0  0  0
   -2.1055    0.6407    0.2429 C   0  0  2  0  0  0  0  0  0  0  0  0
   -1.2939    1.2249    1.4381 C   0  0  0  0  0  0  0  0  0  0  0  0
    0.1592    1.5362    1.0956 C   0  0  0  0  0  0  0  0  0  0  0  0
    0.9145    0.3086    0.5510 C   0  0  0  0  0  0  0  0  0  0  0  0
    0.1523   -0.3544   -0.6153 C   0  0  1  0  0  0  0  0  0  0  0  0
    0.8537   -1.6569   -1.0756 C   0  0  0  0  0  0  0  0  0  0  0  0
    2.3761   -1.6648   -0.8930 C   0  0  0  0  0  0  0  0  0  0  0  0
    2.9782   -0.2556   -0.9693 C   0  0  2  0  0  0  0  0  0  0  0  0
    2.5348    0.3001   -2.2219 O   0  0  0  0  0  0  0  0  0  0  0  0
    4.5152   -0.2957   -1.0439 C   0  0  0  0  0  0  0  0  0  0  0  0
    5.1843   -0.6610    0.2721 C   0  0  1  0  0  0  0  0  0  0  0  0
    6.5976   -0.5893    0.1259 O   0  0  0  0  0  0  0  0  0  0  0  0
    4.7605    0.3089    1.3634 C   0  0  0  0  0  0  0  0  0  0  0  0
    3.2448    0.3228    1.5341 C   0  0  0  0  0  0  0  0  0  0  0  0
    2.4430    0.6071    0.2248 C   0  0  2  0  0  0  0  0  0  0  0  0
    2.6180    2.0825   -0.1668 C   0  0  0  0  0  0  0  0  0  0  0  0
    3.1415    2.9342    0.5469 O   0  0  0  0  0  0  0  0  0  0  0  0
   -1.3617   -0.5918   -0.3387 C   0  0  2  0  0  0  0  0  0  0  0  0
   -1.9728   -1.0143   -1.5636 O   0  0  0  0  0  0  0  0  0  0  0  0
   -1.6678   -1.6915    0.6925 C   0  0  0  0  0  0  0  0  0  0  0  0
   -3.0856   -1.4132    1.2009 C   0  0  0  0  0  0  0  0  0  0  0  0
   -3.4377    0.0393    0.8139 C   0  0  2  0  0  0  0  0  0  0  0  0
   -4.6932    0.1155   -0.0190 C   0  0  0  0  0  0  0  0  0  0  0  0
   -5.7717    0.8370    0.2914 C   0  0  0  0  0  0  0  0  0  0  0  0
   -6.7746    0.5924   -0.7410 C   0  0  0  0  0  0  0  0  0  0  0  0
   -7.8800    1.1005   -0.7700 O   0  0  0  0  0  0  0  0  0  0  0  0
   -6.2751   -0.2884   -1.6451 O   0  0  0  0  0  0  0  0  0  0  0  0
   -4.9368   -0.6360   -1.2758 C   0  0  0  0  0  0  0  0  0  0  0  0
   -2.8858    2.5984   -0.3324 H   0  0  0  0  0  0  0  0  0  0  0  0
   -2.9191    1.4279   -1.6516 H   0  0  0  0  0  0  0  0  0  0  0  0
   -1.4010    2.1569   -1.1814 H   0  0  0  0  0  0  0  0  0  0  0  0
   -1.3031    0.5342    2.2910 H   0  0  0  0  0  0  0  0  0  0  0  0
   -1.7777    2.1422    1.7988 H   0  0  0  0  0  0  0  0  0  0  0  0
    0.6585    1.9044    1.9999 H   0  0  0  0  0  0  0  0  0  0  0  0
    0.1773    2.3581    0.3727 H   0  0  0  0  0  0  0  0  0  0  0  0
    0.9003   -0.4329    1.3623 H   0  0  0  0  0  0  0  0  0  0  0  0
    0.2008    0.3436   -1.4628 H   0  0  0  0  0  0  0  0  0  0  0  0
    0.4622   -2.5348   -0.5520 H   0  0  0  0  0  0  0  0  0  0  0  0
    0.6193   -1.8168   -2.1363 H   0  0  0  0  0  0  0  0  0  0  0  0
    2.6214   -2.1355    0.0663 H   0  0  0  0  0  0  0  0  0  0  0  0
    2.8034   -2.3103   -1.6709 H   0  0  0  0  0  0  0  0  0  0  0  0
    2.8904   -0.2497   -2.9447 H   0  0  0  0  0  0  0  0  0  0  0  0
    4.8940    0.6777   -1.3878 H   0  0  0  0  0  0  0  0  0  0  0  0
    4.8406   -0.9909   -1.8299 H   0  0  0  0  0  0  0  0  0  0  0  0
    4.9343   -1.6869    0.5640 H   0  0  0  0  0  0  0  0  0  0  0  0
    6.8667   -1.2327   -0.5515 H   0  0  0  0  0  0  0  0  0  0  0  0
    5.2371    0.0272    2.3106 H   0  0  0  0  0  0  0  0  0  0  0  0
    5.1364    1.3147    1.1394 H   0  0  0  0  0  0  0  0  0  0  0  0
    2.9847    1.0552    2.3087 H   0  0  0  0  0  0  0  0  0  0  0  0
    2.9571   -0.6571    1.9376 H   0  0  0  0  0  0  0  0  0  0  0  0
    2.1832    2.3808   -1.1368 H   0  0  0  0  0  0  0  0  0  0  0  0
   -1.6682   -0.4248   -2.2764 H   0  0  0  0  0  0  0  0  0  0  0  0
   -0.9726   -1.6696    1.5379 H   0  0  0  0  0  0  0  0  0  0  0  0
   -1.6302   -2.6966    0.2578 H   0  0  0  0  0  0  0  0  0  0  0  0
   -3.7872   -2.1476    0.7917 H   0  0  0  0  0  0  0  0  0  0  0  0
   -3.1160   -1.5374    2.2903 H   0  0  0  0  0  0  0  0  0  0  0  0
   -3.6707    0.5710    1.7489 H   0  0  0  0  0  0  0  0  0  0  0  0
   -5.9437    1.4824    1.1340 H   0  0  0  0  0  0  0  0  0  0  0  0
   -4.2819   -0.3312   -2.0933 H   0  0  0  0  0  0  0  0  0  0  0  0
   -4.8861   -1.7195   -1.1432 H   0  0  0  0  0  0  0  0  0  0  0  0
  2  1  1  6
  2  3  1  0
  3  4  1  0
  4  5  1  0
  5  6  1  0
  6  7  1  0
  7  8  1  0
  8  9  1  0
  9 10  1  6
  9 11  1  0
 11 12  1  0
 12 13  1  0
 12 14  1  0
 14 15  1  0
 15 16  1  0
 16 17  1  6
 17 18  2  0
  6 19  1  0
 19 20  1  6
 19 21  1  0
 21 22  1  0
 22 23  1  0
 23 24  1  0
 24 25  2  0
 25 26  1  0
 26 27  2  0
 26 28  1  0
 28 29  1  0
 19  2  1  0
 29 24  1  0
 23  2  1  0
 16  5  1  0
 16  9  1  0
  1 30  1  0
  1 31  1  0
  1 32  1  0
  3 33  1  0
  3 34  1  0
  4 35  1  0
  4 36  1  0
  5 37  1  0
  6 38  1  6
  7 39  1  0
  7 40  1  0
  8 41  1  0
  8 42  1  0
 10 43  1  0
 11 44  1  0
 11 45  1  0
 12 46  1  1
 13 47  1  0
 14 48  1  0
 14 49  1  0
 15 50  1  0
 15 51  1  0
 17 52  1  0
 20 53  1  0
 21 54  1  0
 21 55  1  0
 22 56  1  0
 22 57  1  0
 23 58  1  1
 25 59  1  0
 29 60  1  0
 29 61  1  0
M  END
$$$$
