
     RDKit          3D

 55 57  0  0  0  0  0  0  0  0999 V2000
    6.4330    2.7636    0.3143 C   0  0  0  0  0  0  0  0  0  0  0  0
    5.0902    2.3822    0.5870 O   0  0  0  0  0  0  0  0  0  0  0  0
    4.8103    1.0417    0.5868 C   0  0  0  0  0  0  0  0  0  0  0  0
    5.6972    0.0161    0.2357 C   0  0  0  0  0  0  0  0  0  0  0  0
    5.2868   -1.3214    0.2820 C   0  0  0  0  0  0  0  0  0  0  0  0
    6.0551   -2.4077   -0.0374 O   0  0  0  0  0  0  0  0  0  0  0  0
    7.4275   -2.1732   -0.3246 C   0  0  0  0  0  0  0  0  0  0  0  0
    3.9823   -1.6295    0.6694 C   0  0  0  0  0  0  0  0  0  0  0  0
    3.0923   -0.6064    0.9969 C   0  0  0  0  0  0  0  0  0  0  0  0
    1.7223   -0.9641    1.4161 C   0  0  0  0  0  0  0  0  0  0  0  0
    1.5855   -1.7044    2.3855 O   0  0  0  0  0  0  0  0  0  0  0  0
    0.6630   -0.4557    0.6910 N   0  0  0  0  0  0  0  0  0  0  0  0
    0.7191    0.2675   -0.5744 C   0  0  0  0  0  0  0  0  0  0  0  0
   -0.6888    0.1744   -1.1562 C   0  0  0  0  0  0  0  0  0  0  0  0
   -1.5652    0.0386    0.0955 C   0  0  0  0  0  0  0  0  0  0  0  0
   -2.9544   -0.4078   -0.1407 N   0  0  0  0  0  0  0  0  0  0  0  0
   -3.1497   -1.6632   -0.7178 C   0  0  0  0  0  0  0  0  0  0  0  0
   -4.5470   -2.1527   -0.9981 C   0  0  0  0  0  0  0  0  0  0  0  0
   -2.2131   -2.4179   -0.9896 O   0  0  0  0  0  0  0  0  0  0  0  0
   -4.0103    0.5999    0.1298 C   0  0  0  0  0  0  0  0  0  0  0  0
   -4.5672    1.2457   -1.1465 C   0  0  0  0  0  0  0  0  0  0  0  0
   -5.9852    1.7585   -0.9283 C   0  0  0  0  0  0  0  0  0  0  0  0
   -6.0992    2.3086    0.3798 O   0  0  0  0  0  0  0  0  0  0  0  0
   -6.0415    1.3227    1.4134 C   0  0  0  0  0  0  0  0  0  0  0  0
   -5.1171    0.1485    1.0859 C   0  0  0  0  0  0  0  0  0  0  0  0
   -0.7043   -0.8308    1.0239 C   0  0  0  0  0  0  0  0  0  0  0  0
    3.5071    0.7258    0.9724 C   0  0  0  0  0  0  0  0  0  0  0  0
    7.1274    2.3153    1.0324 H   0  0  0  0  0  0  0  0  0  0  0  0
    6.7106    2.5128   -0.7148 H   0  0  0  0  0  0  0  0  0  0  0  0
    6.4993    3.8502    0.4219 H   0  0  0  0  0  0  0  0  0  0  0  0
    6.7047    0.2587   -0.0761 H   0  0  0  0  0  0  0  0  0  0  0  0
    7.5421   -1.5652   -1.2278 H   0  0  0  0  0  0  0  0  0  0  0  0
    7.9363   -1.7145    0.5290 H   0  0  0  0  0  0  0  0  0  0  0  0
    7.9006   -3.1413   -0.5134 H   0  0  0  0  0  0  0  0  0  0  0  0
    3.6581   -2.6669    0.7156 H   0  0  0  0  0  0  0  0  0  0  0  0
    1.4742   -0.1579   -1.2415 H   0  0  0  0  0  0  0  0  0  0  0  0
    0.9755    1.3093   -0.3553 H   0  0  0  0  0  0  0  0  0  0  0  0
   -0.9490    1.0500   -1.7589 H   0  0  0  0  0  0  0  0  0  0  0  0
   -0.7541   -0.7011   -1.8088 H   0  0  0  0  0  0  0  0  0  0  0  0
   -1.5963    1.0347    0.5571 H   0  0  0  0  0  0  0  0  0  0  0  0
   -4.9646   -2.5985   -0.0917 H   0  0  0  0  0  0  0  0  0  0  0  0
   -5.2033   -1.3753   -1.3855 H   0  0  0  0  0  0  0  0  0  0  0  0
   -4.4982   -2.9292   -1.7686 H   0  0  0  0  0  0  0  0  0  0  0  0
   -3.5194    1.4155    0.6783 H   0  0  0  0  0  0  0  0  0  0  0  0
   -3.9139    2.0890   -1.4067 H   0  0  0  0  0  0  0  0  0  0  0  0
   -4.5417    0.5824   -2.0158 H   0  0  0  0  0  0  0  0  0  0  0  0
   -6.7273    0.9627   -1.0607 H   0  0  0  0  0  0  0  0  0  0  0  0
   -6.2150    2.5439   -1.6550 H   0  0  0  0  0  0  0  0  0  0  0  0
   -7.0564    0.9649    1.6173 H   0  0  0  0  0  0  0  0  0  0  0  0
   -5.6926    1.8323    2.3179 H   0  0  0  0  0  0  0  0  0  0  0  0
   -5.7336   -0.6361    0.6430 H   0  0  0  0  0  0  0  0  0  0  0  0
   -4.7037   -0.2760    2.0077 H   0  0  0  0  0  0  0  0  0  0  0  0
   -0.9052   -0.6303    2.0817 H   0  0  0  0  0  0  0  0  0  0  0  0
   -0.8077   -1.9066    0.8602 H   0  0  0  0  0  0  0  0  0  0  0  0
    2.8245    1.5180    1.2680 H   0  0  0  0  0  0  0  0  0  0  0  0
  1  2  1  0
  2  3  1  0
  3  4  2  0
  4  5  1  0
  5  6  1  0
  6  7  1  0
  5  8  2  0
  8  9  1  0
  9 10  1  0
 10 11  2  0
 10 12  1  0
 12 13  1  0
 13 14  1  0
 14 15  1  0
 15 16  1  0
 16 17  1  0
 17 18  1  0
 17 19  2  0
 16 20  1  0
 20 21  1  0
 21 22  1  0
 22 23  1  0
 23 24  1  0
 24 25  1  0
 15 26  1  0
  9 27  2  0
 27  3  1  0
 26 12  1  0
 25 20  1  0
  1 28  1  0
  1 29  1  0
  1 30  1  0
  4 31  1  0
  7 32  1  0
  7 33  1  0
  7 34  1  0
  8 35  1  0
 13 36  1  0
 13 37  1  0
 14 38  1  0
 14 39  1  0
 15 40  1  0
 18 41  1  0
 18 42  1  0
 18 43  1  0
 20 44  1  0
 21 45  1  0
 21 46  1  0
 22 47  1  0
 22 48  1  0
 24 49  1  0
 24 50  1  0
 25 51  1  0
 25 52  1  0
 26 53  1  0
 26 54  1  0
 27 55  1  0
M  END
$$$$
