
     RDKit          3D

 61 63  0  0  0  0  0  0  0  0999 V2000
    3.7418   -1.8273    0.8456 C   0  0  0  0  0  0  0  0  0  0  0  0
    3.8569   -0.4599    0.3356 N   0  0  0  0  0  0  0  0  0  0  0  0
    4.7067    0.3315    1.2298 C   0  0  0  0  0  0  0  0  0  0  0  0
    2.5394    0.1870    0.1932 C   0  0  0  0  0  0  0  0  0  0  0  0
    1.6746   -0.3958   -0.9398 C   0  0  0  0  0  0  0  0  0  0  0  0
    0.4713    0.3605   -1.1011 O   0  0  0  0  0  0  0  0  0  0  0  0
   -0.5708   -0.0082   -0.1828 C   0  0  0  0  0  0  0  0  0  0  0  0
   -1.5671   -0.9044   -0.9017 C   0  0  0  0  0  0  0  0  0  0  0  0
   -2.0509   -0.5725   -2.1775 C   0  0  0  0  0  0  0  0  0  0  0  0
   -2.9746   -1.3932   -2.8260 C   0  0  0  0  0  0  0  0  0  0  0  0
   -3.4293   -2.5552   -2.2073 C   0  0  0  0  0  0  0  0  0  0  0  0
   -2.9618   -2.8973   -0.9400 C   0  0  0  0  0  0  0  0  0  0  0  0
   -2.0372   -2.0776   -0.2898 C   0  0  0  0  0  0  0  0  0  0  0  0
   -1.2197    1.2405    0.4020 C   0  0  0  0  0  0  0  0  0  0  0  0
   -1.9503    1.1516    1.6002 C   0  0  0  0  0  0  0  0  0  0  0  0
   -2.5604    2.2805    2.1514 C   0  0  0  0  0  0  0  0  0  0  0  0
   -2.4539    3.5134    1.5115 C   0  0  0  0  0  0  0  0  0  0  0  0
   -1.7404    3.6180    0.3192 C   0  0  0  0  0  0  0  0  0  0  0  0
   -1.1298    2.4902   -0.2329 C   0  0  0  0  0  0  0  0  0  0  0  0
   -2.6671   -1.2761    0.5714 C   0  0  0  0  0  0  0  0  0  0  0  0
   -1.3546   -0.7108    0.3262 N   0  0  0  0  0  0  0  0  0  0  0  0
   -0.2491   -1.5577    0.4309 C   0  0  0  0  0  0  0  0  0  0  0  0
   -0.2944   -2.7488    0.7180 O   0  0  0  0  0  0  0  0  0  0  0  0
    0.9723   -0.8940    0.1594 C   0  0  0  0  0  0  0  0  0  0  0  0
    2.2568   -1.3556    0.1661 N   0  0  0  0  0  0  0  0  0  0  0  0
    3.0362   -0.2901   -0.1733 C   0  0  0  0  0  0  0  0  0  0  0  0
    4.7147   -0.5002   -0.2651 Cl  0  0  0  0  0  0  0  0  0  0  0  0
    2.3515    0.8069   -0.3956 N   0  0  0  0  0  0  0  0  0  0  0  0
    1.0614    0.4207   -0.1849 C   0  0  0  0  0  0  0  0  0  0  0  0
   -0.0587    1.2089   -0.2964 N   0  0  0  0  0  0  0  0  0  0  0  0
    0.0647    2.6012   -0.6900 C   0  0  0  0  0  0  0  0  0  0  0  0
   -1.3171    0.6474   -0.0596 C   0  0  0  0  0  0  0  0  0  0  0  0
   -2.3563    1.3016   -0.1832 O   0  0  0  0  0  0  0  0  0  0  0  0
    3.2314   -1.8657    1.8147 H   0  0  0  0  0  0  0  0  0  0  0  0
    4.7341   -2.2780    0.9634 H   0  0  0  0  0  0  0  0  0  0  0  0
    3.2010   -2.4685    0.1429 H   0  0  0  0  0  0  0  0  0  0  0  0
    4.2824    0.4153    2.2370 H   0  0  0  0  0  0  0  0  0  0  0  0
    5.7035   -0.1167    1.3108 H   0  0  0  0  0  0  0  0  0  0  0  0
    4.8517    1.3416    0.8304 H   0  0  0  0  0  0  0  0  0  0  0  0
    1.9902    0.1648    1.1432 H   0  0  0  0  0  0  0  0  0  0  0  0
    2.6788    1.2525   -0.0364 H   0  0  0  0  0  0  0  0  0  0  0  0
    2.2234   -0.3186   -1.8850 H   0  0  0  0  0  0  0  0  0  0  0  0
    1.4348   -1.4538   -0.7880 H   0  0  0  0  0  0  0  0  0  0  0  0
   -0.1292   -0.5609    0.6576 H   0  0  0  0  0  0  0  0  0  0  0  0
   -1.7025    0.3330   -2.6706 H   0  0  0  0  0  0  0  0  0  0  0  0
   -3.3385   -1.1231   -3.8137 H   0  0  0  0  0  0  0  0  0  0  0  0
   -4.1493   -3.1928   -2.7130 H   0  0  0  0  0  0  0  0  0  0  0  0
   -3.3199   -3.8025   -0.4572 H   0  0  0  0  0  0  0  0  0  0  0  0
   -1.6878   -2.3609    0.7001 H   0  0  0  0  0  0  0  0  0  0  0  0
   -2.0548    0.1961    2.1100 H   0  0  0  0  0  0  0  0  0  0  0  0
   -3.1231    2.1959    3.0775 H   0  0  0  0  0  0  0  0  0  0  0  0
   -2.9303    4.3916    1.9389 H   0  0  0  0  0  0  0  0  0  0  0  0
   -1.6608    4.5773   -0.1857 H   0  0  0  0  0  0  0  0  0  0  0  0
   -0.5795    2.5917   -1.1665 H   0  0  0  0  0  0  0  0  0  0  0  0
   -2.6120   -2.2647    1.0353 H   0  0  0  0  0  0  0  0  0  0  0  0
   -3.1931   -1.3595   -0.3847 H   0  0  0  0  0  0  0  0  0  0  0  0
   -3.2391   -0.6114    1.2270 H   0  0  0  0  0  0  0  0  0  0  0  0
    2.5700   -2.2935    0.3774 H   0  0  0  0  0  0  0  0  0  0  0  0
    0.4535    2.6471   -1.7125 H   0  0  0  0  0  0  0  0  0  0  0  0
   -0.8971    3.1208   -0.6565 H   0  0  0  0  0  0  0  0  0  0  0  0
    0.7576    3.1078   -0.0101 H   0  0  0  0  0  0  0  0  0  0  0  0
  1  2  1  0
  2  3  1  0
  2  4  1  0
  4  5  1  0
  5  6  1  0
  6  7  1  0
  7  8  1  0
  8  9  2  0
  9 10  1  0
 10 11  2  0
 11 12  1  0
 12 13  2  0
  7 14  1  0
 14 15  2  0
 15 16  1  0
 16 17  2  0
 17 18  1  0
 18 19  2  0
 20 21  1  0
 21 22  1  0
 22 23  2  0
 22 24  1  0
 24 25  1  0
 25 26  1  0
 26 27  1  0
 26 28  2  0
 28 29  1  0
 29 30  1  0
 30 31  1  0
 30 32  1  0
 32 33  2  0
 13  8  1  0
 19 14  1  0
 32 21  1  0
 29 24  2  0
  1 34  1  0
  1 35  1  0
  1 36  1  0
  3 37  1  0
  3 38  1  0
  3 39  1  0
  4 40  1  0
  4 41  1  0
  5 42  1  0
  5 43  1  0
  7 44  1  0
  9 45  1  0
 10 46  1  0
 11 47  1  0
 12 48  1  0
 13 49  1  0
 15 50  1  0
 16 51  1  0
 17 52  1  0
 18 53  1  0
 19 54  1  0
 20 55  1  0
 20 56  1  0
 20 57  1  0
 25 58  1  0
 31 59  1  0
 31 60  1  0
 31 61  1  0
M  END
$$$$
