
     RDKit          3D

 59 63  0  0  0  0  0  0  0  0999 V2000
    0.6877    0.0000    0.0000 Cl  0  0  0  0  0  0  0  0  0  0  0  0
    4.8809   -1.7415   -1.5668 O   0  0  0  0  0  0  0  0  0  0  0  0
    4.1690   -1.0293   -0.8180 C   0  0  0  0  0  0  0  0  0  0  0  0
    2.8158   -1.3301   -0.6171 N   0  0  0  0  0  0  0  0  0  0  0  0
    2.1239   -2.4216   -1.1954 C   0  0  0  0  0  0  0  0  0  0  0  0
    2.7944   -3.4641   -1.7910 C   0  0  0  0  0  0  0  0  0  0  0  0
    2.1253   -4.5505   -2.2983 C   0  0  0  0  0  0  0  0  0  0  0  0
    0.7601   -4.6726   -2.2477 C   0  0  0  0  0  0  0  0  0  0  0  0
    0.0970   -3.6255   -1.6506 C   0  0  0  0  0  0  0  0  0  0  0  0
    0.7325   -2.5095   -1.1263 C   0  0  0  0  0  0  0  0  0  0  0  0
   -0.0866   -1.4698   -0.5381 C   0  0  0  0  0  0  0  0  0  0  0  0
   -1.4597   -1.5373   -0.3446 C   0  0  0  0  0  0  0  0  0  0  0  0
   -1.9102   -0.3573    0.2531 N   0  0  0  0  0  0  0  0  0  0  0  0
   -3.0807    0.0749    0.6358 C   0  0  0  0  0  0  0  0  0  0  0  0
   -4.4184   -0.6869    0.5209 C   0  0  0  0  0  0  0  0  0  0  0  0
   -5.4750    0.2520    0.4773 N   0  0  0  0  0  0  0  0  0  0  0  0
   -5.4669    1.1726   -0.6074 C   0  0  0  0  0  0  0  0  0  0  0  0
   -6.2179    2.4164   -0.1798 C   0  0  0  0  0  0  0  0  0  0  0  0
   -7.0083    2.1957    1.0169 N   0  0  0  0  0  0  0  0  0  0  0  0
   -7.7055    0.9265    0.9600 C   0  0  0  0  0  0  0  0  0  0  0  0
   -6.7554   -0.2445    0.8384 C   0  0  0  0  0  0  0  0  0  0  0  0
   -3.1012    1.3848    1.2216 C   0  0  0  0  0  0  0  0  0  0  0  0
   -1.4241    1.8650    1.1620 S   0  0  0  0  0  0  0  0  0  0  0  0
   -0.8195    0.3223    0.3776 C   0  0  0  0  0  0  0  0  0  0  0  0
    0.2793   -0.2972   -0.0765 N   0  0  0  0  0  0  0  0  0  0  0  0
    4.8183    0.1390   -0.1580 C   0  0  0  0  0  0  0  0  0  0  0  0
    4.1368    0.9835    0.6672 C   0  0  0  0  0  0  0  0  0  0  0  0
    4.7991    2.0198    1.2280 N   0  0  0  0  0  0  0  0  0  0  0  0
    6.0915    2.2230    0.9876 C   0  0  0  0  0  0  0  0  0  0  0  0
    6.7500    3.3022    1.5817 C   0  0  0  0  0  0  0  0  0  0  0  0
    8.0842    3.4604    1.2961 C   0  0  0  0  0  0  0  0  0  0  0  0
    8.7943    2.6203    0.4655 C   0  0  0  0  0  0  0  0  0  0  0  0
    8.1540    1.5641   -0.1172 C   0  0  0  0  0  0  0  0  0  0  0  0
    6.7990    1.3789    0.1548 C   0  0  0  0  0  0  0  0  0  0  0  0
    6.1191    0.3581   -0.3894 N   0  0  0  0  0  0  0  0  0  0  0  0
   -0.6877    0.0000    0.0000 H   0  0  0  0  0  0  0  0  0  0  0  0
    2.2989   -0.7062    0.0294 H   0  0  0  0  0  0  0  0  0  0  0  0
    3.8750   -3.4872   -1.8772 H   0  0  0  0  0  0  0  0  0  0  0  0
    2.6700   -5.3778   -2.7725 H   0  0  0  0  0  0  0  0  0  0  0  0
    0.2461   -5.5378   -2.6527 H   0  0  0  0  0  0  0  0  0  0  0  0
   -1.0038   -3.7337   -1.6165 H   0  0  0  0  0  0  0  0  0  0  0  0
   -2.0400   -2.3958   -0.6299 H   0  0  0  0  0  0  0  0  0  0  0  0
   -4.4063   -1.3358   -0.3526 H   0  0  0  0  0  0  0  0  0  0  0  0
   -4.5283   -1.3019    1.4374 H   0  0  0  0  0  0  0  0  0  0  0  0
   -5.9935    0.7431   -1.4938 H   0  0  0  0  0  0  0  0  0  0  0  0
   -4.4253    1.4443   -0.8545 H   0  0  0  0  0  0  0  0  0  0  0  0
   -6.9321    2.7275   -0.9727 H   0  0  0  0  0  0  0  0  0  0  0  0
   -5.5504    3.2812    0.0043 H   0  0  0  0  0  0  0  0  0  0  0  0
   -6.3677    2.1919    1.8365 H   0  0  0  0  0  0  0  0  0  0  0  0
   -8.2866    0.8336    1.9108 H   0  0  0  0  0  0  0  0  0  0  0  0
   -8.4609    0.9492    0.1483 H   0  0  0  0  0  0  0  0  0  0  0  0
   -6.6913   -0.8254    1.7825 H   0  0  0  0  0  0  0  0  0  0  0  0
   -7.1704   -0.9075    0.0240 H   0  0  0  0  0  0  0  0  0  0  0  0
   -3.9981    1.9106    1.6025 H   0  0  0  0  0  0  0  0  0  0  0  0
    3.0680    0.8524    0.8927 H   0  0  0  0  0  0  0  0  0  0  0  0
    6.2002    3.9651    2.2340 H   0  0  0  0  0  0  0  0  0  0  0  0
    8.5992    4.3026    1.7594 H   0  0  0  0  0  0  0  0  0  0  0  0
    9.8588    2.8073    0.2822 H   0  0  0  0  0  0  0  0  0  0  0  0
    8.6434    0.8786   -0.7678 H   0  0  0  0  0  0  0  0  0  0  0  0
  2  3  2  0
  3  4  1  0
  4  5  1  0
  5  6  2  0
  6  7  1  0
  7  8  2  0
  8  9  1  0
  9 10  2  0
 10 11  1  0
 11 12  2  0
 12 13  1  0
 13 14  1  0
 14 15  1  0
 15 16  1  0
 16 17  1  0
 17 18  1  0
 18 19  1  0
 19 20  1  0
 20 21  1  0
 14 22  2  0
 22 23  1  0
 23 24  1  0
 24 25  2  0
  3 26  1  0
 26 27  2  0
 27 28  1  0
 28 29  2  0
 29 30  1  0
 30 31  2  0
 31 32  1  0
 32 33  2  0
 33 34  1  0
 34 35  2  0
 10  5  1  0
 25 11  1  0
 35 26  1  0
 24 13  1  0
 34 29  1  0
 21 16  1  0
  1 36  1  0
  4 37  1  0
  6 38  1  0
  7 39  1  0
  8 40  1  0
  9 41  1  0
 12 42  1  0
 15 43  1  0
 15 44  1  0
 17 45  1  0
 17 46  1  0
 18 47  1  0
 18 48  1  0
 19 49  1  0
 20 50  1  0
 20 51  1  0
 21 52  1  0
 21 53  1  0
 22 54  1  0
 27 55  1  0
 30 56  1  0
 31 57  1  0
 32 58  1  0
 33 59  1  0
M  END
$$$$
