
     RDKit          3D

 61 64  0  0  0  0  0  0  0  0999 V2000
   -8.3915    2.8483    0.2920 C   0  0  0  0  0  0  0  0  0  0  0  0
   -7.2859    1.8525   -0.0252 C   0  0  0  0  0  0  0  0  0  0  0  0
   -6.0358    2.4979   -0.6466 C   0  0  0  0  0  0  0  0  0  0  0  0
   -6.3192    3.1378   -2.0041 C   0  0  0  0  0  0  0  0  0  0  0  0
   -4.9858    1.4936   -0.7942 N   0  0  0  0  0  0  0  0  0  0  0  0
   -4.1372    1.1737    0.2442 C   0  0  0  0  0  0  0  0  0  0  0  0
   -4.1318    1.7450    1.3270 O   0  0  0  0  0  0  0  0  0  0  0  0
   -3.1693    0.0753   -0.0130 C   0  0  0  0  0  0  0  0  0  0  0  0
   -3.5185   -1.0394   -0.7835 C   0  0  0  0  0  0  0  0  0  0  0  0
   -2.5891   -2.0606   -0.9835 C   0  0  0  0  0  0  0  0  0  0  0  0
   -1.3124   -1.9686   -0.4118 C   0  0  0  0  0  0  0  0  0  0  0  0
   -0.3318   -3.0645   -0.6212 C   0  0  0  0  0  0  0  0  0  0  0  0
   -0.6917   -4.0662   -1.2359 O   0  0  0  0  0  0  0  0  0  0  0  0
    0.9468   -2.8837   -0.0858 N   0  0  0  0  0  0  0  0  0  0  0  0
    1.9361   -3.9270   -0.2770 C   0  0  0  0  0  0  0  0  0  0  0  0
    2.2908   -4.4584   -1.6456 C   0  0  0  0  0  0  0  0  0  0  0  0
    3.2880   -3.6395   -0.8894 C   0  0  0  0  0  0  0  0  0  0  0  0
    1.2460   -1.8093    0.7104 C   0  0  0  0  0  0  0  0  0  0  0  0
    2.3893   -1.6128    1.3058 N   0  0  0  0  0  0  0  0  0  0  0  0
    2.2127   -0.4192    1.9700 N   0  0  0  0  0  0  0  0  0  0  0  0
    3.2657    0.2510    2.7053 C   0  0  0  0  0  0  0  0  0  0  0  0
    4.2972    0.9128    1.7905 C   0  0  0  0  0  0  0  0  0  0  0  0
    5.0706    1.7787    2.1947 O   0  0  0  0  0  0  0  0  0  0  0  0
    4.3825    0.3768    0.5234 N   0  0  0  0  0  0  0  0  0  0  0  0
    5.4039    0.7789   -0.4197 C   0  0  0  0  0  0  0  0  0  0  0  0
    6.7750    0.1724   -0.1074 C   0  0  0  0  0  0  0  0  0  0  0  0
    7.7112    0.4067   -1.1615 O   0  0  0  0  0  0  0  0  0  0  0  0
    8.2784    1.7102   -1.1119 C   0  0  0  0  0  0  0  0  0  0  0  0
    0.9400    0.1041    1.7078 C   0  0  0  0  0  0  0  0  0  0  0  0
    0.5122    1.1757    2.1027 O   0  0  0  0  0  0  0  0  0  0  0  0
    0.3278   -0.8418    0.9133 N   0  0  0  0  0  0  0  0  0  0  0  0
   -0.9577   -0.8614    0.3669 C   0  0  0  0  0  0  0  0  0  0  0  0
   -1.8954    0.1570    0.5719 C   0  0  0  0  0  0  0  0  0  0  0  0
   -8.0221    3.6550    0.9327 H   0  0  0  0  0  0  0  0  0  0  0  0
   -8.8085    3.2896   -0.6177 H   0  0  0  0  0  0  0  0  0  0  0  0
   -9.2088    2.3452    0.8187 H   0  0  0  0  0  0  0  0  0  0  0  0
   -7.0072    1.3427    0.9059 H   0  0  0  0  0  0  0  0  0  0  0  0
   -7.6783    1.0752   -0.6930 H   0  0  0  0  0  0  0  0  0  0  0  0
   -5.6630    3.2746    0.0325 H   0  0  0  0  0  0  0  0  0  0  0  0
   -5.3957    3.5284   -2.4464 H   0  0  0  0  0  0  0  0  0  0  0  0
   -7.0209    3.9724   -1.9163 H   0  0  0  0  0  0  0  0  0  0  0  0
   -6.7371    2.4086   -2.7071 H   0  0  0  0  0  0  0  0  0  0  0  0
   -4.9280    0.9920   -1.6693 H   0  0  0  0  0  0  0  0  0  0  0  0
   -4.5159   -1.1435   -1.2029 H   0  0  0  0  0  0  0  0  0  0  0  0
   -2.8659   -2.9324   -1.5749 H   0  0  0  0  0  0  0  0  0  0  0  0
    1.9111   -4.6573    0.5292 H   0  0  0  0  0  0  0  0  0  0  0  0
    1.8193   -4.0146   -2.5148 H   0  0  0  0  0  0  0  0  0  0  0  0
    2.4639   -5.5246   -1.7387 H   0  0  0  0  0  0  0  0  0  0  0  0
    4.1487   -4.1453   -0.4666 H   0  0  0  0  0  0  0  0  0  0  0  0
    3.4985   -2.6428   -1.2581 H   0  0  0  0  0  0  0  0  0  0  0  0
    3.7735   -0.4868    3.3336 H   0  0  0  0  0  0  0  0  0  0  0  0
    2.8204    1.0273    3.3349 H   0  0  0  0  0  0  0  0  0  0  0  0
    3.8629   -0.4850    0.3675 H   0  0  0  0  0  0  0  0  0  0  0  0
    5.4625    1.8725   -0.4242 H   0  0  0  0  0  0  0  0  0  0  0  0
    5.0720    0.4699   -1.4166 H   0  0  0  0  0  0  0  0  0  0  0  0
    7.1730    0.5302    0.8494 H   0  0  0  0  0  0  0  0  0  0  0  0
    6.6706   -0.9149   -0.0169 H   0  0  0  0  0  0  0  0  0  0  0  0
    8.7870    1.8731   -0.1569 H   0  0  0  0  0  0  0  0  0  0  0  0
    9.0161    1.7915   -1.9149 H   0  0  0  0  0  0  0  0  0  0  0  0
    7.5141    2.4757   -1.2694 H   0  0  0  0  0  0  0  0  0  0  0  0
   -1.6634    1.0278    1.1831 H   0  0  0  0  0  0  0  0  0  0  0  0
  1  2  1  0
  2  3  1  0
  3  4  1  0
  3  5  1  0
  5  6  1  0
  6  7  2  0
  6  8  1  0
  8  9  2  0
  9 10  1  0
 10 11  2  0
 11 12  1  0
 12 13  2  0
 12 14  1  0
 14 15  1  0
 15 16  1  0
 16 17  1  0
 14 18  1  0
 18 19  2  0
 19 20  1  0
 20 21  1  0
 21 22  1  0
 22 23  2  0
 22 24  1  0
 24 25  1  0
 25 26  1  0
 26 27  1  0
 27 28  1  0
 20 29  1  0
 29 30  2  0
 29 31  1  0
 31 32  1  0
 32 33  2  0
 33  8  1  0
 32 11  1  0
 17 15  1  0
 31 18  1  0
  1 34  1  0
  1 35  1  0
  1 36  1  0
  2 37  1  0
  2 38  1  0
  3 39  1  0
  4 40  1  0
  4 41  1  0
  4 42  1  0
  5 43  1  0
  9 44  1  0
 10 45  1  0
 15 46  1  0
 16 47  1  0
 16 48  1  0
 17 49  1  0
 17 50  1  0
 21 51  1  0
 21 52  1  0
 24 53  1  0
 25 54  1  0
 25 55  1  0
 26 56  1  0
 26 57  1  0
 28 58  1  0
 28 59  1  0
 28 60  1  0
 33 61  1  0
M  END
$$$$
