
     RDKit          3D

 54 57  0  0  0  0  0  0  0  0999 V2000
   -3.5643   -2.7375    1.6857 C   0  0  0  0  0  0  0  0  0  0  0  0
   -3.9829   -1.4365    1.0573 C   0  0  0  0  0  0  0  0  0  0  0  0
   -4.9159   -0.6334    1.7388 C   0  0  0  0  0  0  0  0  0  0  0  0
   -5.3594    0.5708    1.1874 C   0  0  0  0  0  0  0  0  0  0  0  0
   -4.8861    0.9944   -0.0531 C   0  0  0  0  0  0  0  0  0  0  0  0
   -3.9646    0.2143   -0.7458 C   0  0  0  0  0  0  0  0  0  0  0  0
   -3.5134   -0.9960   -0.1971 C   0  0  0  0  0  0  0  0  0  0  0  0
   -2.3413   -1.9472   -1.1511 S   0  0  0  0  0  6  0  0  0  0  0  0
   -2.1079   -1.2700   -2.4098 O   0  0  0  0  0  0  0  0  0  0  0  0
   -2.7630   -3.3303   -1.1235 O   0  0  0  0  0  0  0  0  0  0  0  0
   -0.8989   -1.8004   -0.2426 N   0  0  0  0  0  0  0  0  0  0  0  0
   -0.4096   -0.3956   -0.0579 C   0  0  0  0  0  0  0  0  0  0  0  0
    1.0447   -0.3554    0.4326 C   0  0  0  0  0  0  0  0  0  0  0  0
    1.9633   -1.0471   -0.4759 N   0  0  0  0  0  0  0  0  0  0  0  0
    3.3443   -0.8735   -0.4957 C   0  0  0  0  0  0  0  0  0  0  0  0
    4.0590   -1.5047   -1.2748 O   0  0  0  0  0  0  0  0  0  0  0  0
    3.9291    0.1515    0.4938 C   0  0  0  0  0  0  0  0  0  0  0  0
    5.3448    0.1757    0.6017 O   0  0  0  0  0  0  0  0  0  0  0  0
    6.0407    0.9641   -0.2709 C   0  0  0  0  0  0  0  0  0  0  0  0
    7.3602    1.2306    0.1089 C   0  0  0  0  0  0  0  0  0  0  0  0
    8.1866    2.0227   -0.6918 C   0  0  0  0  0  0  0  0  0  0  0  0
    7.6929    2.5431   -1.8844 C   0  0  0  0  0  0  0  0  0  0  0  0
    8.7032    3.5199   -2.8766 Cl  0  0  0  0  0  0  0  0  0  0  0  0
    6.3851    2.2717   -2.2810 C   0  0  0  0  0  0  0  0  0  0  0  0
    5.5592    1.4790   -1.4756 C   0  0  0  0  0  0  0  0  0  0  0  0
    1.3593   -2.0569   -1.3520 C   0  0  0  0  0  0  0  0  0  0  0  0
    0.1758   -2.7604   -0.6793 C   0  0  0  0  0  0  0  0  0  0  0  0
   -5.2371    2.1781   -0.6380 O   0  0  0  0  0  0  0  0  0  0  0  0
   -6.3669    2.8181   -0.0630 C   0  0  0  0  0  0  0  0  0  0  0  0
   -6.7737    2.5135    1.3783 C   0  0  0  0  0  0  0  0  0  0  0  0
   -7.5456    3.2183    2.0237 O   0  0  0  0  0  0  0  0  0  0  0  0
   -6.2624    1.3581    1.8988 N   0  0  0  0  0  0  0  0  0  0  0  0
   -2.4771   -2.8492    1.6845 H   0  0  0  0  0  0  0  0  0  0  0  0
   -4.0275   -3.5790    1.1621 H   0  0  0  0  0  0  0  0  0  0  0  0
   -3.8789   -2.7895    2.7341 H   0  0  0  0  0  0  0  0  0  0  0  0
   -5.2991   -0.9564    2.7049 H   0  0  0  0  0  0  0  0  0  0  0  0
   -3.6062    0.5578   -1.7145 H   0  0  0  0  0  0  0  0  0  0  0  0
   -0.4796    0.1562   -1.0022 H   0  0  0  0  0  0  0  0  0  0  0  0
   -1.0413    0.1038    0.6838 H   0  0  0  0  0  0  0  0  0  0  0  0
    1.3609    0.6843    0.5555 H   0  0  0  0  0  0  0  0  0  0  0  0
    1.1285   -0.8498    1.4077 H   0  0  0  0  0  0  0  0  0  0  0  0
    3.5649   -0.1232    1.4903 H   0  0  0  0  0  0  0  0  0  0  0  0
    3.5350    1.1509    0.2748 H   0  0  0  0  0  0  0  0  0  0  0  0
    7.7474    0.8176    1.0374 H   0  0  0  0  0  0  0  0  0  0  0  0
    9.2082    2.2225   -0.3813 H   0  0  0  0  0  0  0  0  0  0  0  0
    6.0039    2.6627   -3.2207 H   0  0  0  0  0  0  0  0  0  0  0  0
    4.5585    1.2619   -1.8335 H   0  0  0  0  0  0  0  0  0  0  0  0
    2.1051   -2.8004   -1.6514 H   0  0  0  0  0  0  0  0  0  0  0  0
    1.0285   -1.5357   -2.2582 H   0  0  0  0  0  0  0  0  0  0  0  0
   -0.2205   -3.5234   -1.3570 H   0  0  0  0  0  0  0  0  0  0  0  0
    0.5160   -3.2873    0.2209 H   0  0  0  0  0  0  0  0  0  0  0  0
   -6.1804    3.8962   -0.1207 H   0  0  0  0  0  0  0  0  0  0  0  0
   -7.2337    2.5984   -0.6976 H   0  0  0  0  0  0  0  0  0  0  0  0
   -6.5675    1.1026    2.8286 H   0  0  0  0  0  0  0  0  0  0  0  0
  1  2  1  0
  2  3  2  0
  3  4  1  0
  4  5  2  0
  5  6  1  0
  6  7  2  0
  7  8  1  0
  8  9  2  0
  8 10  2  0
  8 11  1  0
 11 12  1  0
 12 13  1  0
 13 14  1  0
 14 15  1  0
 15 16  2  0
 15 17  1  0
 17 18  1  0
 18 19  1  0
 19 20  2  0
 20 21  1  0
 21 22  2  0
 22 23  1  0
 22 24  1  0
 24 25  2  0
 14 26  1  0
 26 27  1  0
  5 28  1  0
 28 29  1  0
 29 30  1  0
 30 31  2  0
 30 32  1  0
  7  2  1  0
 27 11  1  0
 32  4  1  0
 25 19  1  0
  1 33  1  0
  1 34  1  0
  1 35  1  0
  3 36  1  0
  6 37  1  0
 12 38  1  0
 12 39  1  0
 13 40  1  0
 13 41  1  0
 17 42  1  0
 17 43  1  0
 20 44  1  0
 21 45  1  0
 24 46  1  0
 25 47  1  0
 26 48  1  0
 26 49  1  0
 27 50  1  0
 27 51  1  0
 29 52  1  0
 29 53  1  0
 32 54  1  0
M  END
$$$$
