
     RDKit          3D

 34 35  0  0  0  0  0  0  0  0999 V2000
   -3.4155    0.6195    2.6469 C   0  0  0  0  0  0  0  0  0  0  0  0
   -2.6252    1.2308    1.6251 O   0  0  0  0  0  0  0  0  0  0  0  0
   -2.7935    0.5755    0.4332 C   0  0  0  0  0  0  0  0  0  0  0  0
   -3.9238    0.8566   -0.3366 C   0  0  0  0  0  0  0  0  0  0  0  0
   -4.0741    0.2533   -1.5808 C   0  0  0  0  0  0  0  0  0  0  0  0
   -5.1986    0.5517   -2.2928 O   0  0  0  0  0  0  0  0  0  0  0  0
   -3.1074   -0.6163   -2.0810 C   0  0  0  0  0  0  0  0  0  0  0  0
   -1.9678   -0.8784   -1.3163 C   0  0  0  0  0  0  0  0  0  0  0  0
   -1.0121   -1.7296   -1.8007 O   0  0  0  0  0  0  0  0  0  0  0  0
   -1.8000   -0.2792   -0.0601 C   0  0  0  0  0  0  0  0  0  0  0  0
   -0.6140   -0.5741    0.7701 C   0  0  0  0  0  0  0  0  0  0  0  0
   -0.7371   -1.1174    1.8623 O   0  0  0  0  0  0  0  0  0  0  0  0
    0.7005   -0.1601    0.2093 C   0  0  0  0  0  0  0  0  0  0  0  0
    1.8228   -0.3851    0.9085 C   0  0  0  0  0  0  0  0  0  0  0  0
    3.1638   -0.0047    0.4469 C   0  0  0  0  0  0  0  0  0  0  0  0
    3.5584   -0.1294   -0.8918 C   0  0  0  0  0  0  0  0  0  0  0  0
    4.8533    0.2181   -1.2862 C   0  0  0  0  0  0  0  0  0  0  0  0
    5.7689    0.6837   -0.3449 C   0  0  0  0  0  0  0  0  0  0  0  0
    5.3931    0.7964    0.9919 C   0  0  0  0  0  0  0  0  0  0  0  0
    4.0989    0.4483    1.3864 C   0  0  0  0  0  0  0  0  0  0  0  0
   -4.4738    0.8676    2.5144 H   0  0  0  0  0  0  0  0  0  0  0  0
   -3.0901    1.0254    3.6093 H   0  0  0  0  0  0  0  0  0  0  0  0
   -3.2826   -0.4678    2.6736 H   0  0  0  0  0  0  0  0  0  0  0  0
   -4.6771    1.5504    0.0253 H   0  0  0  0  0  0  0  0  0  0  0  0
   -5.1830    0.0765   -3.1396 H   0  0  0  0  0  0  0  0  0  0  0  0
   -3.2363   -1.0764   -3.0545 H   0  0  0  0  0  0  0  0  0  0  0  0
   -1.3434   -2.1783   -2.5966 H   0  0  0  0  0  0  0  0  0  0  0  0
    0.7032    0.3300   -0.7562 H   0  0  0  0  0  0  0  0  0  0  0  0
    1.7705   -0.8555    1.8890 H   0  0  0  0  0  0  0  0  0  0  0  0
    2.8679   -0.5108   -1.6398 H   0  0  0  0  0  0  0  0  0  0  0  0
    5.1478    0.1185   -2.3276 H   0  0  0  0  0  0  0  0  0  0  0  0
    6.7763    0.9526   -0.6514 H   0  0  0  0  0  0  0  0  0  0  0  0
    6.1066    1.1535    1.7299 H   0  0  0  0  0  0  0  0  0  0  0  0
    3.8235    0.5418    2.4348 H   0  0  0  0  0  0  0  0  0  0  0  0
  1  2  1  0
  2  3  1  0
  3  4  2  0
  4  5  1  0
  5  6  1  0
  5  7  2  0
  7  8  1  0
  8  9  1  0
  8 10  2  0
 10 11  1  0
 11 12  2  0
 11 13  1  0
 13 14  2  0
 14 15  1  0
 15 16  2  0
 16 17  1  0
 17 18  2  0
 18 19  1  0
 19 20  2  0
 10  3  1  0
 20 15  1  0
  1 21  1  0
  1 22  1  0
  1 23  1  0
  4 24  1  0
  6 25  1  0
  7 26  1  0
  9 27  1  0
 13 28  1  0
 14 29  1  0
 16 30  1  0
 17 31  1  0
 18 32  1  0
 19 33  1  0
 20 34  1  0
M  END
$$$$
