
     RDKit          3D

 39 41  0  0  0  0  0  0  0  0999 V2000
   -3.7739   -1.5788    4.0605 N   0  0  0  0  0  0  0  0  0  0  0  0
   -3.0709   -0.8582    3.4821 C   0  0  0  0  0  0  0  0  0  0  0  0
   -2.2382    0.0297    2.7541 C   0  0  0  0  0  0  0  0  0  0  0  0
   -2.4893    0.4730    1.5089 C   0  0  0  0  0  0  0  0  0  0  0  0
   -3.6447    0.0492    0.7841 C   0  0  0  0  0  0  0  0  0  0  0  0
   -4.8128    0.7470    0.5275 C   0  0  0  0  0  0  0  0  0  0  0  0
   -5.7472   -0.0018   -0.2454 C   0  0  0  0  0  0  0  0  0  0  0  0
   -5.2608   -1.2455   -0.5758 C   0  0  0  0  0  0  0  0  0  0  0  0
   -3.6848   -1.5019    0.0326 S   0  0  0  0  0  0  0  0  0  0  0  0
   -1.7080    1.3619    0.8040 N   0  0  0  0  0  0  0  0  0  0  0  0
   -0.6247    1.7537    1.3788 C   0  0  0  0  0  0  0  0  0  0  0  0
    0.4961    2.8414    0.6334 S   0  0  0  0  0  0  0  0  0  0  0  0
    0.5766    2.1013   -1.0255 C   0  0  0  0  0  0  0  0  0  0  0  0
    1.2036    0.7281   -1.0167 C   0  0  0  0  0  0  0  0  0  0  0  0
    0.4113   -0.4152   -1.1887 C   0  0  0  0  0  0  0  0  0  0  0  0
    0.9843   -1.6859   -1.1619 C   0  0  0  0  0  0  0  0  0  0  0  0
    2.3563   -1.8305   -0.9621 C   0  0  0  0  0  0  0  0  0  0  0  0
    3.1680   -0.7033   -0.7833 C   0  0  0  0  0  0  0  0  0  0  0  0
    4.6546   -0.8568   -0.5905 C   0  0  0  0  0  0  0  0  0  0  0  0
    5.3994   -0.9704   -1.8926 C   0  0  0  0  0  0  0  0  0  0  0  0
    5.6876   -2.0046   -2.4736 O   0  0  0  0  0  0  0  0  0  0  0  0
    5.7329    0.2262   -2.4187 O   0  0  0  0  0  0  0  0  0  0  0  0
    2.5845    0.5718   -0.8198 C   0  0  0  0  0  0  0  0  0  0  0  0
   -0.2467    1.3799    2.6251 N   0  0  0  0  0  0  0  0  0  0  0  0
   -1.0001    0.5353    3.3847 C   0  0  0  0  0  0  0  0  0  0  0  0
   -0.6586    0.2275    4.5210 O   0  0  0  0  0  0  0  0  0  0  0  0
   -4.9898    1.7554    0.8837 H   0  0  0  0  0  0  0  0  0  0  0  0
   -6.7244    0.3572   -0.5456 H   0  0  0  0  0  0  0  0  0  0  0  0
   -5.7521   -2.0173   -1.1524 H   0  0  0  0  0  0  0  0  0  0  0  0
   -0.4234    2.0756   -1.4732 H   0  0  0  0  0  0  0  0  0  0  0  0
    1.1769    2.7600   -1.6637 H   0  0  0  0  0  0  0  0  0  0  0  0
   -0.6623   -0.3244   -1.3469 H   0  0  0  0  0  0  0  0  0  0  0  0
    0.3603   -2.5650   -1.3024 H   0  0  0  0  0  0  0  0  0  0  0  0
    2.7905   -2.8291   -0.9528 H   0  0  0  0  0  0  0  0  0  0  0  0
    4.8709   -1.7505    0.0075 H   0  0  0  0  0  0  0  0  0  0  0  0
    5.0642   -0.0188   -0.0132 H   0  0  0  0  0  0  0  0  0  0  0  0
    6.1670   -0.0039   -3.2670 H   0  0  0  0  0  0  0  0  0  0  0  0
    3.2132    1.4527   -0.6943 H   0  0  0  0  0  0  0  0  0  0  0  0
    0.6142    1.7347    3.0142 H   0  0  0  0  0  0  0  0  0  0  0  0
  1  2  3  0
  2  3  1  0
  3  4  2  0
  4  5  1  0
  5  6  2  0
  6  7  1  0
  7  8  2  0
  8  9  1  0
  4 10  1  0
 10 11  2  0
 11 12  1  0
 12 13  1  0
 13 14  1  0
 14 15  2  0
 15 16  1  0
 16 17  2  0
 17 18  1  0
 18 19  1  0
 19 20  1  0
 20 21  2  0
 20 22  1  0
 18 23  2  0
 11 24  1  0
 24 25  1  0
 25 26  2  0
 25  3  1  0
  9  5  1  0
 23 14  1  0
  6 27  1  0
  7 28  1  0
  8 29  1  0
 13 30  1  0
 13 31  1  0
 15 32  1  0
 16 33  1  0
 17 34  1  0
 19 35  1  0
 19 36  1  0
 22 37  1  0
 23 38  1  0
 24 39  1  0
M  END
$$$$
