
     RDKit          3D

 58 62  0  0  0  0  0  0  0  0999 V2000
    5.0123    2.9847    0.1490 C   0  0  0  0  0  0  0  0  0  0  0  0
    5.2260    1.4985    0.2013 C   0  0  0  0  0  0  0  0  0  0  0  0
    6.4983    0.9532    0.0025 C   0  0  0  0  0  0  0  0  0  0  0  0
    6.6917   -0.4261    0.0752 C   0  0  0  0  0  0  0  0  0  0  0  0
    5.6164   -1.2631    0.3769 C   0  0  0  0  0  0  0  0  0  0  0  0
    4.3426   -0.7500    0.6027 C   0  0  0  0  0  0  0  0  0  0  0  0
    4.1571    0.6425    0.5013 C   0  0  0  0  0  0  0  0  0  0  0  0
    3.2005   -1.7193    0.8561 C   0  0  0  0  0  0  0  0  0  0  0  0
    2.4034   -1.9753   -0.4405 C   0  0  0  0  0  0  0  0  0  0  0  0
    1.3591   -0.8972   -0.7447 C   0  0  0  0  0  0  0  0  0  0  0  0
    0.5754   -0.4585    0.4195 N   0  0  0  0  0  0  0  0  0  0  0  0
   -0.8719   -0.3531    0.1312 C   0  0  0  0  0  0  0  0  0  0  0  0
   -1.2302    0.7323   -0.9014 C   0  0  0  0  0  0  0  0  0  0  0  0
   -2.6979    0.7573   -1.1567 C   0  0  0  0  0  0  0  0  0  0  0  0
   -3.5745    1.2207   -0.2022 N   0  0  0  0  0  0  0  0  0  0  0  0
   -4.7682    1.0246   -0.7274 C   0  0  0  0  0  0  0  0  0  0  0  0
   -6.0837    1.2822   -0.1458 C   0  0  0  0  0  0  0  0  0  0  0  0
   -7.2751    0.9523   -0.8138 C   0  0  0  0  0  0  0  0  0  0  0  0
   -8.5201    1.1875   -0.2160 C   0  0  0  0  0  0  0  0  0  0  0  0
   -8.5896    1.7582    1.0561 C   0  0  0  0  0  0  0  0  0  0  0  0
   -7.4178    2.1039    1.7256 C   0  0  0  0  0  0  0  0  0  0  0  0
   -6.1735    1.8640    1.1293 C   0  0  0  0  0  0  0  0  0  0  0  0
   -4.7365    0.4796   -1.9825 O   0  0  0  0  0  0  0  0  0  0  0  0
   -3.4085    0.3250   -2.2564 C   0  0  0  0  0  0  0  0  0  0  0  0
   -3.0627   -0.2562   -3.5650 C   0  0  0  0  0  0  0  0  0  0  0  0
    0.7944   -1.2917    1.6068 C   0  0  0  0  0  0  0  0  0  0  0  0
    2.2707   -1.2729    2.0106 C   0  0  0  0  0  0  0  0  0  0  0  0
    3.6855   -3.0349    1.2725 O   0  0  0  0  0  0  0  0  0  0  0  0
    4.8850   -3.5279    0.8905 C   0  0  0  0  0  0  0  0  0  0  0  0
    5.1434   -4.7244    0.9847 O   0  0  0  0  0  0  0  0  0  0  0  0
    5.8139   -2.6346    0.4437 N   0  0  0  0  0  0  0  0  0  0  0  0
    4.0232    3.2244   -0.2655 H   0  0  0  0  0  0  0  0  0  0  0  0
    5.7608    3.4659   -0.4962 H   0  0  0  0  0  0  0  0  0  0  0  0
    5.0911    3.4078    1.1581 H   0  0  0  0  0  0  0  0  0  0  0  0
    7.3446    1.5999   -0.2150 H   0  0  0  0  0  0  0  0  0  0  0  0
    7.6824   -0.8326   -0.0942 H   0  0  0  0  0  0  0  0  0  0  0  0
    3.1645    1.0733    0.6443 H   0  0  0  0  0  0  0  0  0  0  0  0
    1.8894   -2.9479   -0.3631 H   0  0  0  0  0  0  0  0  0  0  0  0
    3.0776   -2.0838   -1.2974 H   0  0  0  0  0  0  0  0  0  0  0  0
    1.8557   -0.0157   -1.1629 H   0  0  0  0  0  0  0  0  0  0  0  0
    0.7146   -1.2879   -1.5431 H   0  0  0  0  0  0  0  0  0  0  0  0
   -1.2609   -1.3315   -0.1938 H   0  0  0  0  0  0  0  0  0  0  0  0
   -1.4050   -0.1041    1.0623 H   0  0  0  0  0  0  0  0  0  0  0  0
   -0.7019    0.5535   -1.8457 H   0  0  0  0  0  0  0  0  0  0  0  0
   -0.9051    1.7152   -0.5369 H   0  0  0  0  0  0  0  0  0  0  0  0
   -7.2484    0.5033   -1.8074 H   0  0  0  0  0  0  0  0  0  0  0  0
   -9.4346    0.9188   -0.7458 H   0  0  0  0  0  0  0  0  0  0  0  0
   -9.5584    1.9371    1.5202 H   0  0  0  0  0  0  0  0  0  0  0  0
   -7.4641    2.5570    2.7131 H   0  0  0  0  0  0  0  0  0  0  0  0
   -5.2660    2.1343    1.6686 H   0  0  0  0  0  0  0  0  0  0  0  0
   -3.0292   -1.3512   -3.5035 H   0  0  0  0  0  0  0  0  0  0  0  0
   -3.8054    0.0271   -4.3249 H   0  0  0  0  0  0  0  0  0  0  0  0
   -2.0845    0.1011   -3.9030 H   0  0  0  0  0  0  0  0  0  0  0  0
    0.4500   -2.3223    1.4425 H   0  0  0  0  0  0  0  0  0  0  0  0
    0.2166   -0.8950    2.4530 H   0  0  0  0  0  0  0  0  0  0  0  0
    2.5161   -0.2671    2.3735 H   0  0  0  0  0  0  0  0  0  0  0  0
    2.3927   -1.9293    2.8847 H   0  0  0  0  0  0  0  0  0  0  0  0
    6.7188   -3.0317    0.2467 H   0  0  0  0  0  0  0  0  0  0  0  0
  1  2  1  0
  2  3  2  0
  3  4  1  0
  4  5  2  0
  5  6  1  0
  6  7  2  0
  6  8  1  0
  8  9  1  0
  9 10  1  0
 10 11  1  0
 11 12  1  0
 12 13  1  0
 13 14  1  0
 14 15  1  0
 15 16  2  0
 16 17  1  0
 17 18  2  0
 18 19  1  0
 19 20  2  0
 20 21  1  0
 21 22  2  0
 16 23  1  0
 23 24  1  0
 24 25  1  0
 11 26  1  0
 26 27  1  0
  8 28  1  0
 28 29  1  0
 29 30  2  0
 29 31  1  0
  7  2  1  0
 27  8  1  0
 31  5  1  0
 24 14  2  0
 22 17  1  0
  1 32  1  0
  1 33  1  0
  1 34  1  0
  3 35  1  0
  4 36  1  0
  7 37  1  0
  9 38  1  0
  9 39  1  0
 10 40  1  0
 10 41  1  0
 12 42  1  0
 12 43  1  0
 13 44  1  0
 13 45  1  0
 18 46  1  0
 19 47  1  0
 20 48  1  0
 21 49  1  0
 22 50  1  0
 25 51  1  0
 25 52  1  0
 25 53  1  0
 26 54  1  0
 26 55  1  0
 27 56  1  0
 27 57  1  0
 31 58  1  0
M  END
$$$$
