
     RDKit          3D

 34 35  0  0  0  0  0  0  0  0999 V2000
   -4.9007    0.9510    0.7338 N   0  0  0  0  0  0  0  0  0  0  0  0
   -3.9507   -0.0230    0.8480 C   0  0  0  0  0  0  0  0  0  0  0  0
   -4.2301   -1.1084    1.3409 O   0  0  0  0  0  0  0  0  0  0  0  0
   -2.5760    0.3548    0.3258 C   0  0  0  0  0  0  0  0  0  0  0  0
   -2.6250    0.6484   -1.1813 C   0  0  0  0  0  0  0  0  0  0  0  0
   -1.3468    0.2241   -1.9021 C   0  0  0  0  0  0  0  0  0  0  0  0
   -0.1180    0.4528   -1.0347 C   0  0  0  0  0  0  0  0  0  0  0  0
   -0.1836   -0.3229    0.2415 N   0  0  0  0  0  0  0  0  0  0  0  0
    0.9696   -1.5954    0.3920 S   0  0  0  0  0  6  0  0  0  0  0  0
    0.9021   -2.3216   -0.8572 O   0  0  0  0  0  0  0  0  0  0  0  0
    0.7622   -2.2344    1.6724 O   0  0  0  0  0  0  0  0  0  0  0  0
    2.5199   -0.7457    0.5071 C   0  0  0  0  0  0  0  0  0  0  0  0
    2.5325    0.5423    1.0690 C   0  0  0  0  0  0  0  0  0  0  0  0
    3.7270    1.2519    1.1524 C   0  0  0  0  0  0  0  0  0  0  0  0
    3.7345    2.8353    1.8220 Cl  0  0  0  0  0  0  0  0  0  0  0  0
    4.9136    0.6878    0.6950 C   0  0  0  0  0  0  0  0  0  0  0  0
    4.9047   -0.6037    0.1623 C   0  0  0  0  0  0  0  0  0  0  0  0
    3.7102   -1.3316    0.0704 C   0  0  0  0  0  0  0  0  0  0  0  0
    3.8389   -2.9408   -0.5345 Cl  0  0  0  0  0  0  0  0  0  0  0  0
   -1.5665   -0.7505    0.6383 C   0  0  0  0  0  0  0  0  0  0  0  0
   -5.8062    0.7527    1.1421 H   0  0  0  0  0  0  0  0  0  0  0  0
   -4.6711    1.9150    0.5369 H   0  0  0  0  0  0  0  0  0  0  0  0
   -2.2654    1.2657    0.8564 H   0  0  0  0  0  0  0  0  0  0  0  0
   -2.7789    1.7261   -1.3221 H   0  0  0  0  0  0  0  0  0  0  0  0
   -3.4802    0.1568   -1.6615 H   0  0  0  0  0  0  0  0  0  0  0  0
   -1.4150   -0.8374   -2.1712 H   0  0  0  0  0  0  0  0  0  0  0  0
   -1.2551    0.7806   -2.8417 H   0  0  0  0  0  0  0  0  0  0  0  0
    0.7822    0.2055   -1.6069 H   0  0  0  0  0  0  0  0  0  0  0  0
   -0.0331    1.5143   -0.7723 H   0  0  0  0  0  0  0  0  0  0  0  0
    1.6173    0.9884    1.4518 H   0  0  0  0  0  0  0  0  0  0  0  0
    5.8494    1.2376    0.7615 H   0  0  0  0  0  0  0  0  0  0  0  0
    5.8423   -1.0449   -0.1719 H   0  0  0  0  0  0  0  0  0  0  0  0
   -1.8365   -1.6812    0.1233 H   0  0  0  0  0  0  0  0  0  0  0  0
   -1.5673   -0.9493    1.7168 H   0  0  0  0  0  0  0  0  0  0  0  0
  1  2  1  0
  2  3  2  0
  2  4  1  0
  4  5  1  0
  5  6  1  0
  6  7  1  0
  7  8  1  0
  8  9  1  0
  9 10  2  0
  9 11  2  0
  9 12  1  0
 12 13  2  0
 13 14  1  0
 14 15  1  0
 14 16  2  0
 16 17  1  0
 17 18  2  0
 18 19  1  0
  8 20  1  0
 20  4  1  0
 18 12  1  0
  1 21  1  0
  1 22  1  0
  4 23  1  0
  5 24  1  0
  5 25  1  0
  6 26  1  0
  6 27  1  0
  7 28  1  0
  7 29  1  0
 13 30  1  0
 16 31  1  0
 17 32  1  0
 20 33  1  0
 20 34  1  0
M  END
$$$$
