
     RDKit          3D

 66 69  0  0  0  0  0  0  0  0999 V2000
    7.6017   -0.3099    0.7177 C   0  0  0  0  0  0  0  0  0  0  0  0
    7.9578    0.2268   -0.5523 O   0  0  0  0  0  0  0  0  0  0  0  0
    6.8651    0.4377   -1.3700 C   0  0  0  0  0  0  0  0  0  0  0  0
    7.1318    0.9709   -2.6201 C   0  0  0  0  0  0  0  0  0  0  0  0
    6.0647    1.2070   -3.4773 C   0  0  0  0  0  0  0  0  0  0  0  0
    4.7750    0.8987   -3.0559 C   0  0  0  0  0  0  0  0  0  0  0  0
    4.5897    0.3601   -1.7818 C   0  0  0  0  0  0  0  0  0  0  0  0
    3.1924    0.0091   -1.2944 C   0  0  0  0  0  0  0  0  0  0  0  0
    2.5531    1.0480   -0.4653 N   0  0  0  0  0  0  0  0  0  0  0  0
    2.1831    2.2361   -1.2287 C   0  0  0  0  0  0  0  0  0  0  0  0
    1.4263    0.5099    0.3196 C   0  0  0  0  0  0  0  0  0  0  0  0
    0.1918    0.0019   -0.4771 C   0  0  0  0  0  0  0  0  0  0  0  0
   -0.8614   -0.5380    0.4195 N   0  0  0  0  0  0  0  0  0  0  0  0
   -0.5315   -1.9284    0.8303 C   0  0  0  0  0  0  0  0  0  0  0  0
   -1.0189   -3.0664   -0.0881 C   0  0  0  0  0  0  0  0  0  0  0  0
   -1.0401   -4.4050    0.6473 C   0  0  0  0  0  0  0  0  0  0  0  0
   -0.0305   -4.4423    1.6472 O   0  0  0  0  0  0  0  0  0  0  0  0
   -0.2930   -3.5478    2.7317 C   0  0  0  0  0  0  0  0  0  0  0  0
   -0.9095   -2.2194    2.2872 C   0  0  0  0  0  0  0  0  0  0  0  0
   -2.2176   -0.2912   -0.1105 C   0  0  0  0  0  0  0  0  0  0  0  0
   -3.3739   -0.6960    0.8229 C   0  0  0  0  0  0  0  0  0  0  0  0
   -4.5745    0.0553    0.2627 C   0  0  0  0  0  0  0  0  0  0  0  0
   -4.0127    1.2778   -0.2717 N   0  0  0  0  0  0  0  0  0  0  0  0
   -4.6960    2.3904   -0.7040 C   0  0  0  0  0  0  0  0  0  0  0  0
   -4.1518    3.3744   -1.1916 O   0  0  0  0  0  0  0  0  0  0  0  0
   -6.1779    2.3501   -0.5616 C   0  0  0  0  0  0  0  0  0  0  0  0
   -6.9596    3.6322   -0.3783 C   0  0  0  0  0  0  0  0  0  0  0  0
   -6.8153    2.6817    0.7703 C   0  0  0  0  0  0  0  0  0  0  0  0
   -2.5649    1.2047   -0.3389 C   0  0  0  0  0  0  0  0  0  0  0  0
    5.6263    0.1218   -0.9379 N   0  0  0  0  0  0  0  0  0  0  0  0
    7.1486   -1.3018    0.6149 H   0  0  0  0  0  0  0  0  0  0  0  0
    6.9420    0.3707    1.2684 H   0  0  0  0  0  0  0  0  0  0  0  0
    8.5209   -0.4230    1.3003 H   0  0  0  0  0  0  0  0  0  0  0  0
    8.1493    1.2002   -2.9141 H   0  0  0  0  0  0  0  0  0  0  0  0
    6.2370    1.6267   -4.4646 H   0  0  0  0  0  0  0  0  0  0  0  0
    3.9301    1.0804   -3.7112 H   0  0  0  0  0  0  0  0  0  0  0  0
    3.3018   -0.9090   -0.7023 H   0  0  0  0  0  0  0  0  0  0  0  0
    2.5641   -0.2620   -2.1525 H   0  0  0  0  0  0  0  0  0  0  0  0
    1.6571    2.9592   -0.5941 H   0  0  0  0  0  0  0  0  0  0  0  0
    3.0725    2.7550   -1.6004 H   0  0  0  0  0  0  0  0  0  0  0  0
    1.5419    2.0017   -2.0856 H   0  0  0  0  0  0  0  0  0  0  0  0
    1.0914    1.2887    1.0187 H   0  0  0  0  0  0  0  0  0  0  0  0
    1.8189   -0.2871    0.9614 H   0  0  0  0  0  0  0  0  0  0  0  0
    0.4790   -0.7521   -1.2204 H   0  0  0  0  0  0  0  0  0  0  0  0
   -0.1847    0.8548   -1.0470 H   0  0  0  0  0  0  0  0  0  0  0  0
    0.5643   -2.0117    0.8282 H   0  0  0  0  0  0  0  0  0  0  0  0
   -2.0163   -2.8997   -0.5037 H   0  0  0  0  0  0  0  0  0  0  0  0
   -0.3398   -3.1317   -0.9482 H   0  0  0  0  0  0  0  0  0  0  0  0
   -2.0172   -4.5854    1.1113 H   0  0  0  0  0  0  0  0  0  0  0  0
   -0.8605   -5.2221   -0.0577 H   0  0  0  0  0  0  0  0  0  0  0  0
   -0.9388   -4.0478    3.4607 H   0  0  0  0  0  0  0  0  0  0  0  0
    0.6660   -3.3640    3.2252 H   0  0  0  0  0  0  0  0  0  0  0  0
   -1.9942   -2.2964    2.4016 H   0  0  0  0  0  0  0  0  0  0  0  0
   -0.5830   -1.4190    2.9609 H   0  0  0  0  0  0  0  0  0  0  0  0
   -2.3442   -0.8058   -1.0731 H   0  0  0  0  0  0  0  0  0  0  0  0
   -3.1789   -0.3460    1.8448 H   0  0  0  0  0  0  0  0  0  0  0  0
   -3.5611   -1.7725    0.8524 H   0  0  0  0  0  0  0  0  0  0  0  0
   -5.3298    0.2621    1.0249 H   0  0  0  0  0  0  0  0  0  0  0  0
   -5.0401   -0.4935   -0.5642 H   0  0  0  0  0  0  0  0  0  0  0  0
   -6.6572    1.5881   -1.1692 H   0  0  0  0  0  0  0  0  0  0  0  0
   -7.9258    3.7099   -0.8627 H   0  0  0  0  0  0  0  0  0  0  0  0
   -6.4073    4.5667   -0.3424 H   0  0  0  0  0  0  0  0  0  0  0  0
   -7.6856    2.1118    1.0725 H   0  0  0  0  0  0  0  0  0  0  0  0
   -6.1689    2.9798    1.5888 H   0  0  0  0  0  0  0  0  0  0  0  0
   -2.1641    1.8422    0.4585 H   0  0  0  0  0  0  0  0  0  0  0  0
   -2.2171    1.5824   -1.3054 H   0  0  0  0  0  0  0  0  0  0  0  0
  1  2  1  0
  2  3  1  0
  3  4  2  0
  4  5  1  0
  5  6  2  0
  6  7  1  0
  7  8  1  0
  8  9  1  0
  9 10  1  0
  9 11  1  0
 11 12  1  0
 12 13  1  0
 13 14  1  0
 14 15  1  0
 15 16  1  0
 16 17  1  0
 17 18  1  0
 18 19  1  0
 13 20  1  0
 20 21  1  0
 21 22  1  0
 22 23  1  0
 23 24  1  0
 24 25  2  0
 24 26  1  0
 26 27  1  0
 27 28  1  0
 23 29  1  0
  7 30  2  0
 30  3  1  0
 19 14  1  0
 29 20  1  0
 28 26  1  0
  1 31  1  0
  1 32  1  0
  1 33  1  0
  4 34  1  0
  5 35  1  0
  6 36  1  0
  8 37  1  0
  8 38  1  0
 10 39  1  0
 10 40  1  0
 10 41  1  0
 11 42  1  0
 11 43  1  0
 12 44  1  0
 12 45  1  0
 14 46  1  0
 15 47  1  0
 15 48  1  0
 16 49  1  0
 16 50  1  0
 18 51  1  0
 18 52  1  0
 19 53  1  0
 19 54  1  0
 20 55  1  0
 21 56  1  0
 21 57  1  0
 22 58  1  0
 22 59  1  0
 26 60  1  0
 27 61  1  0
 27 62  1  0
 28 63  1  0
 28 64  1  0
 29 65  1  0
 29 66  1  0
M  END
$$$$
