
     RDKit          3D

 44 47  0  0  0  0  0  0  0  0999 V2000
    4.3212   -2.7543    0.4138 O   0  0  0  0  0  0  0  0  0  0  0  0
    3.6868   -1.7654    0.7716 C   0  0  0  0  0  0  0  0  0  0  0  0
    4.2366   -0.7937    1.5851 N   0  0  0  0  0  0  0  0  0  0  0  0
    5.6412   -0.8070    1.9152 C   0  0  0  0  0  0  0  0  0  0  0  0
    6.3591    0.0417    0.9341 C   0  0  0  0  0  0  0  0  0  0  0  0
    6.9666   -0.2205   -0.2765 C   0  0  0  0  0  0  0  0  0  0  0  0
    7.4687    1.0160   -0.7468 C   0  0  0  0  0  0  0  0  0  0  0  0
    7.1323    1.9526    0.2022 C   0  0  0  0  0  0  0  0  0  0  0  0
    6.4538    1.3721    1.2257 O   0  0  0  0  0  0  0  0  0  0  0  0
    2.2956   -1.5217    0.3590 C   0  0  0  0  0  0  0  0  0  0  0  0
    1.4368   -0.5221    0.7807 C   0  0  0  0  0  0  0  0  0  0  0  0
    0.2423   -0.7162    0.1154 N   0  0  0  0  0  0  0  0  0  0  0  0
   -0.9220    0.0884    0.2604 C   0  0  0  0  0  0  0  0  0  0  0  0
   -2.0711   -0.2037   -0.4502 C   0  0  0  0  0  0  0  0  0  0  0  0
   -3.1655    0.6267   -0.2603 C   0  0  0  0  0  0  0  0  0  0  0  0
   -4.3550    0.3595   -0.9684 N   0  0  0  0  0  0  0  0  0  0  0  0
   -4.9564   -0.9364   -0.5595 C   0  0  0  0  0  0  0  0  0  0  0  0
   -6.4699   -0.9439   -0.8256 C   0  0  0  0  0  0  0  0  0  0  0  0
   -7.1737    0.0690   -0.0901 O   0  0  0  0  0  0  0  0  0  0  0  0
   -6.4066    1.2733    0.0953 C   0  0  0  0  0  0  0  0  0  0  0  0
   -5.3308    1.4765   -0.9805 C   0  0  0  0  0  0  0  0  0  0  0  0
   -3.1019    1.6776    0.5734 N   0  0  0  0  0  0  0  0  0  0  0  0
   -1.9474    1.8796    1.2200 C   0  0  0  0  0  0  0  0  0  0  0  0
   -0.8445    1.1325    1.1128 N   0  0  0  0  0  0  0  0  0  0  0  0
    0.4299   -1.8194   -0.6793 C   0  0  0  0  0  0  0  0  0  0  0  0
    1.6362   -2.3242   -0.5551 N   0  0  0  0  0  0  0  0  0  0  0  0
    3.7586    0.0892    1.6802 H   0  0  0  0  0  0  0  0  0  0  0  0
    6.0338   -1.8287    1.9120 H   0  0  0  0  0  0  0  0  0  0  0  0
    5.7453   -0.4008    2.9263 H   0  0  0  0  0  0  0  0  0  0  0  0
    7.0268   -1.1882   -0.7573 H   0  0  0  0  0  0  0  0  0  0  0  0
    8.0054    1.2027   -1.6662 H   0  0  0  0  0  0  0  0  0  0  0  0
    7.2916    3.0181    0.2918 H   0  0  0  0  0  0  0  0  0  0  0  0
    1.5519    0.2890    1.4852 H   0  0  0  0  0  0  0  0  0  0  0  0
   -2.1439   -1.0227   -1.1512 H   0  0  0  0  0  0  0  0  0  0  0  0
   -4.4857   -1.7523   -1.1192 H   0  0  0  0  0  0  0  0  0  0  0  0
   -4.7974   -1.1111    0.5134 H   0  0  0  0  0  0  0  0  0  0  0  0
   -6.6783   -0.7962   -1.8918 H   0  0  0  0  0  0  0  0  0  0  0  0
   -6.8971   -1.9107   -0.5411 H   0  0  0  0  0  0  0  0  0  0  0  0
   -5.9587    1.2300    1.0944 H   0  0  0  0  0  0  0  0  0  0  0  0
   -7.1117    2.1104    0.0869 H   0  0  0  0  0  0  0  0  0  0  0  0
   -4.8568    2.4605   -0.8859 H   0  0  0  0  0  0  0  0  0  0  0  0
   -5.8116    1.4713   -1.9670 H   0  0  0  0  0  0  0  0  0  0  0  0
   -1.9052    2.7285    1.8938 H   0  0  0  0  0  0  0  0  0  0  0  0
   -0.3296   -2.2259   -1.3320 H   0  0  0  0  0  0  0  0  0  0  0  0
  1  2  2  0
  2  3  1  0
  3  4  1  0
  4  5  1  0
  5  6  2  0
  6  7  1  0
  7  8  2  0
  8  9  1  0
  2 10  1  0
 10 11  2  0
 11 12  1  0
 12 13  1  0
 13 14  2  0
 14 15  1  0
 15 16  1  0
 16 17  1  0
 17 18  1  0
 18 19  1  0
 19 20  1  0
 20 21  1  0
 15 22  2  0
 22 23  1  0
 23 24  2  0
 12 25  1  0
 25 26  2  0
  9  5  1  0
 26 10  1  0
 24 13  1  0
 21 16  1  0
  3 27  1  0
  4 28  1  0
  4 29  1  0
  6 30  1  0
  7 31  1  0
  8 32  1  0
 11 33  1  0
 14 34  1  0
 17 35  1  0
 17 36  1  0
 18 37  1  0
 18 38  1  0
 20 39  1  0
 20 40  1  0
 21 41  1  0
 21 42  1  0
 23 43  1  0
 25 44  1  0
M  END
$$$$
