
     RDKit          3D

 46 49  0  0  0  0  0  0  0  0999 V2000
    3.3278   -0.6300    1.9757 O   0  0  0  0  0  0  0  0  0  0  0  0
    2.8524   -0.1597    0.9457 C   0  0  0  0  0  0  0  0  0  0  0  0
    3.5615    0.5459   -0.0007 N   0  0  0  0  0  0  0  0  0  0  0  0
    4.9593    0.7216   -0.0703 C   0  0  0  0  0  0  0  0  0  0  0  0
    5.8733   -0.0049    0.6951 C   0  0  0  0  0  0  0  0  0  0  0  0
    7.2474    0.2165    0.5575 C   0  0  0  0  0  0  0  0  0  0  0  0
    7.7189    1.1611   -0.3509 C   0  0  0  0  0  0  0  0  0  0  0  0
    6.8166    1.8841   -1.1262 C   0  0  0  0  0  0  0  0  0  0  0  0
    5.4436    1.6630   -0.9885 C   0  0  0  0  0  0  0  0  0  0  0  0
    1.4905   -0.2921    0.6572 N   0  0  0  0  0  0  0  0  0  0  0  0
    0.6427   -0.8585    1.7043 C   0  0  0  0  0  0  0  0  0  0  0  0
   -0.8236   -0.5209    1.4856 C   0  0  0  0  0  0  0  0  0  0  0  0
   -1.3133   -1.1102    0.1565 C   0  0  0  0  0  0  0  0  0  0  0  0
   -2.6095   -0.5294   -0.2405 N   0  0  0  0  0  0  0  0  0  0  0  0
   -2.6973    0.7769   -0.6636 C   0  0  0  0  0  0  0  0  0  0  0  0
   -3.7835    1.3871   -0.9976 N   0  0  0  0  0  0  0  0  0  0  0  0
   -4.9837    0.6703   -0.9177 C   0  0  0  0  0  0  0  0  0  0  0  0
   -6.1711    1.3005   -1.2969 C   0  0  0  0  0  0  0  0  0  0  0  0
   -7.3839    0.6148   -1.2213 C   0  0  0  0  0  0  0  0  0  0  0  0
   -8.8399    1.4015   -1.6920 Cl  0  0  0  0  0  0  0  0  0  0  0  0
   -7.4278   -0.7031   -0.7667 C   0  0  0  0  0  0  0  0  0  0  0  0
   -6.2470   -1.3407   -0.3851 C   0  0  0  0  0  0  0  0  0  0  0  0
   -5.0324   -0.6486   -0.4650 C   0  0  0  0  0  0  0  0  0  0  0  0
   -3.7629   -1.2900   -0.0711 C   0  0  0  0  0  0  0  0  0  0  0  0
   -3.7808   -2.4309    0.3828 O   0  0  0  0  0  0  0  0  0  0  0  0
   -0.2505   -1.0400   -0.9577 C   0  0  0  0  0  0  0  0  0  0  0  0
    0.8870   -0.0675   -0.6570 C   0  0  0  0  0  0  0  0  0  0  0  0
    3.0161    1.1603   -0.5821 H   0  0  0  0  0  0  0  0  0  0  0  0
    5.5476   -0.7587    1.4056 H   0  0  0  0  0  0  0  0  0  0  0  0
    7.9470   -0.3542    1.1630 H   0  0  0  0  0  0  0  0  0  0  0  0
    8.7874    1.3306   -0.4543 H   0  0  0  0  0  0  0  0  0  0  0  0
    7.1807    2.6202   -1.8381 H   0  0  0  0  0  0  0  0  0  0  0  0
    4.7617    2.2400   -1.6068 H   0  0  0  0  0  0  0  0  0  0  0  0
    0.7966   -1.9444    1.7053 H   0  0  0  0  0  0  0  0  0  0  0  0
    0.9686   -0.4790    2.6796 H   0  0  0  0  0  0  0  0  0  0  0  0
   -1.4305   -0.9138    2.3100 H   0  0  0  0  0  0  0  0  0  0  0  0
   -0.9492    0.5691    1.5002 H   0  0  0  0  0  0  0  0  0  0  0  0
   -1.4760   -2.1818    0.3318 H   0  0  0  0  0  0  0  0  0  0  0  0
   -1.7404    1.3155   -0.7124 H   0  0  0  0  0  0  0  0  0  0  0  0
   -6.1403    2.3281   -1.6492 H   0  0  0  0  0  0  0  0  0  0  0  0
   -8.3736   -1.2359   -0.7072 H   0  0  0  0  0  0  0  0  0  0  0  0
   -6.2734   -2.3683   -0.0288 H   0  0  0  0  0  0  0  0  0  0  0  0
   -0.6997   -0.8071   -1.9302 H   0  0  0  0  0  0  0  0  0  0  0  0
    0.1916   -2.0406   -1.0631 H   0  0  0  0  0  0  0  0  0  0  0  0
    0.5282    0.9670   -0.6700 H   0  0  0  0  0  0  0  0  0  0  0  0
    1.6441   -0.1636   -1.4420 H   0  0  0  0  0  0  0  0  0  0  0  0
  1  2  2  0
  2  3  1  0
  3  4  1  0
  4  5  2  0
  5  6  1  0
  6  7  2  0
  7  8  1  0
  8  9  2  0
  2 10  1  0
 10 11  1  0
 11 12  1  0
 12 13  1  0
 13 14  1  0
 14 15  1  0
 15 16  2  0
 16 17  1  0
 17 18  2  0
 18 19  1  0
 19 20  1  0
 19 21  2  0
 21 22  1  0
 22 23  2  0
 23 24  1  0
 24 25  2  0
 13 26  1  0
 26 27  1  0
  9  4  1  0
 27 10  1  0
 24 14  1  0
 23 17  1  0
  3 28  1  0
  5 29  1  0
  6 30  1  0
  7 31  1  0
  8 32  1  0
  9 33  1  0
 11 34  1  0
 11 35  1  0
 12 36  1  0
 12 37  1  0
 13 38  1  0
 15 39  1  0
 18 40  1  0
 21 41  1  0
 22 42  1  0
 26 43  1  0
 26 44  1  0
 27 45  1  0
 27 46  1  0
M  END
$$$$
