
     RDKit          3D

 48 51  0  0  0  0  0  0  0  0999 V2000
    0.6634    0.3793   -2.1355 O   0  0  0  0  0  0  0  0  0  0  0  0
    0.1519   -0.5925   -1.5890 C   0  0  0  0  0  0  0  0  0  0  0  0
    0.9341   -1.5876   -0.7596 C   0  0  0  0  0  0  0  0  0  0  0  0
    2.2823   -0.9986   -0.3422 C   0  0  2  0  0  0  0  0  0  0  0  0
    3.1441   -2.0290    0.2126 N   0  0  0  0  0  0  0  0  0  0  0  0
    4.4970   -1.9080    0.3509 C   0  0  0  0  0  0  0  0  0  0  0  0
    5.1697   -2.9323    0.4417 O   0  0  0  0  0  0  0  0  0  0  0  0
    5.1431   -0.5698    0.3904 C   0  0  0  0  0  0  0  0  0  0  0  0
    6.5203   -0.5583    0.0884 C   0  0  0  0  0  0  0  0  0  0  0  0
    7.2815    0.6019    0.2241 C   0  0  0  0  0  0  0  0  0  0  0  0
    6.6812    1.7640    0.6878 C   0  0  0  0  0  0  0  0  0  0  0  0
    5.3198    1.7660    0.9967 C   0  0  0  0  0  0  0  0  0  0  0  0
    4.5285    0.6147    0.8280 C   0  0  0  0  0  0  0  0  0  0  0  0
    3.1730    0.7765    1.1616 N   0  0  0  0  0  0  0  0  0  0  0  0
    2.0829    0.0741    0.7315 C   0  0  0  0  0  0  0  0  0  0  0  0
    0.9708    0.3946    1.1586 O   0  0  0  0  0  0  0  0  0  0  0  0
   -1.1829   -0.9110   -1.7162 N   0  0  0  0  0  0  0  0  0  0  0  0
   -2.1046   -0.0015   -2.3782 C   0  0  0  0  0  0  0  0  0  0  0  0
   -2.4958    1.1987   -1.5125 C   0  0  0  0  0  0  0  0  0  0  0  0
   -3.2932    0.8078   -0.3579 N   0  0  0  0  0  0  0  0  0  0  0  0
   -2.7859    0.6260    0.9032 C   0  0  0  0  0  0  0  0  0  0  0  0
   -3.8195    0.2450    1.7264 C   0  0  0  0  0  0  0  0  0  0  0  0
   -5.0035    0.1988    0.9427 C   0  0  0  0  0  0  0  0  0  0  0  0
   -6.3476   -0.1175    1.2307 C   0  0  0  0  0  0  0  0  0  0  0  0
   -7.3003   -0.0638    0.2084 C   0  0  0  0  0  0  0  0  0  0  0  0
   -6.9220    0.2992   -1.0762 C   0  0  0  0  0  0  0  0  0  0  0  0
   -7.8508    0.3441   -2.0415 F   0  0  0  0  0  0  0  0  0  0  0  0
   -5.6027    0.6183   -1.3950 C   0  0  0  0  0  0  0  0  0  0  0  0
   -4.6520    0.5607   -0.3633 C   0  0  0  0  0  0  0  0  0  0  0  0
    1.0865   -2.4783   -1.3816 H   0  0  0  0  0  0  0  0  0  0  0  0
    0.3454   -1.8913    0.1145 H   0  0  0  0  0  0  0  0  0  0  0  0
    2.7933   -0.5478   -1.2017 H   0  0  0  0  0  0  0  0  0  0  0  0
    2.8675   -2.9992    0.1156 H   0  0  0  0  0  0  0  0  0  0  0  0
    7.0149   -1.4736   -0.2360 H   0  0  0  0  0  0  0  0  0  0  0  0
    8.3428    0.5877   -0.0116 H   0  0  0  0  0  0  0  0  0  0  0  0
    7.2696    2.6700    0.8113 H   0  0  0  0  0  0  0  0  0  0  0  0
    4.8771    2.6951    1.3512 H   0  0  0  0  0  0  0  0  0  0  0  0
    2.9097    1.5923    1.7023 H   0  0  0  0  0  0  0  0  0  0  0  0
   -1.5814   -1.5738   -1.0598 H   0  0  0  0  0  0  0  0  0  0  0  0
   -2.9830   -0.5908   -2.6613 H   0  0  0  0  0  0  0  0  0  0  0  0
   -1.6293    0.3576   -3.2979 H   0  0  0  0  0  0  0  0  0  0  0  0
   -3.0908    1.9125   -2.0926 H   0  0  0  0  0  0  0  0  0  0  0  0
   -1.6132    1.7323   -1.1417 H   0  0  0  0  0  0  0  0  0  0  0  0
   -1.7341    0.7811    1.1147 H   0  0  0  0  0  0  0  0  0  0  0  0
   -3.7335    0.0277    2.7830 H   0  0  0  0  0  0  0  0  0  0  0  0
   -6.6417   -0.3986    2.2378 H   0  0  0  0  0  0  0  0  0  0  0  0
   -8.3390   -0.3032    0.4131 H   0  0  0  0  0  0  0  0  0  0  0  0
   -5.3435    0.9004   -2.4084 H   0  0  0  0  0  0  0  0  0  0  0  0
  1  2  2  0
  2  3  1  0
  3  4  1  0
  4  5  1  0
  5  6  1  0
  6  7  2  0
  6  8  1  0
  8  9  2  0
  9 10  1  0
 10 11  2  0
 11 12  1  0
 12 13  2  0
 13 14  1  0
 14 15  1  0
 15 16  2  0
  2 17  1  0
 17 18  1  0
 18 19  1  0
 19 20  1  0
 20 21  1  0
 21 22  2  0
 22 23  1  0
 23 24  2  0
 24 25  1  0
 25 26  2  0
 26 27  1  0
 26 28  1  0
 28 29  2  0
 15  4  1  0
 29 20  1  0
 13  8  1  0
 29 23  1  0
  3 30  1  0
  3 31  1  0
  4 32  1  6
  5 33  1  0
  9 34  1  0
 10 35  1  0
 11 36  1  0
 12 37  1  0
 14 38  1  0
 17 39  1  0
 18 40  1  0
 18 41  1  0
 19 42  1  0
 19 43  1  0
 21 44  1  0
 22 45  1  0
 24 46  1  0
 25 47  1  0
 28 48  1  0
M  END
$$$$
