
     RDKit          3D

 47 47  0  0  0  0  0  0  0  0999 V2000
   -7.0023   -1.1481   -0.7117 C   0  0  0  0  0  0  0  0  0  0  0  0
   -6.3418    0.0700   -0.2447 N   0  0  0  0  0  0  0  0  0  0  0  0
   -7.2068    1.0353    0.4323 C   0  0  0  0  0  0  0  0  0  0  0  0
   -4.9837    0.0233    0.0904 C   0  0  0  0  0  0  0  0  0  0  0  0
   -4.1634   -1.0659   -0.2561 C   0  0  0  0  0  0  0  0  0  0  0  0
   -2.7974   -1.1069    0.0604 C   0  0  0  0  0  0  0  0  0  0  0  0
   -2.1954   -0.0383    0.7213 C   0  0  0  0  0  0  0  0  0  0  0  0
   -0.7419   -0.1191    1.0320 C   0  0  0  0  0  0  0  0  0  0  0  0
   -0.2104   -1.2116    1.1916 O   0  0  0  0  0  0  0  0  0  0  0  0
   -0.0629    1.0801    1.0845 N   0  0  0  0  0  0  0  0  0  0  0  0
    1.3656    1.1561    1.3217 C   0  0  0  0  0  0  0  0  0  0  0  0
    2.1571    1.3563    0.0283 C   0  0  0  0  0  0  0  0  0  0  0  0
    2.2079    0.1368   -0.8990 C   0  0  0  0  0  0  0  0  0  0  0  0
    2.9189   -1.0971   -0.3307 C   0  0  0  0  0  0  0  0  0  0  0  0
    4.3710   -0.8838    0.1060 C   0  0  0  0  0  0  0  0  0  0  0  0
    5.2901   -0.4606   -1.0381 C   0  0  0  0  0  0  0  0  0  0  0  0
    6.7335   -0.3415   -0.5947 C   0  0  0  0  0  0  0  0  0  0  0  0
    7.1186   -0.4162    0.5691 O   0  0  0  0  0  0  0  0  0  0  0  0
    7.6048   -0.1038   -1.6368 N   0  0  0  0  0  0  0  0  0  0  0  0
    8.9747   -0.1150   -1.2727 O   0  0  0  0  0  0  0  0  0  0  0  0
   -2.9774    1.0574    1.0821 C   0  0  0  0  0  0  0  0  0  0  0  0
   -4.3442    1.0830    0.7614 C   0  0  0  0  0  0  0  0  0  0  0  0
   -6.9694   -1.9323    0.0528 H   0  0  0  0  0  0  0  0  0  0  0  0
   -6.5469   -1.5161   -1.6373 H   0  0  0  0  0  0  0  0  0  0  0  0
   -8.0557   -0.9622   -0.9504 H   0  0  0  0  0  0  0  0  0  0  0  0
   -7.1950    0.8822    1.5172 H   0  0  0  0  0  0  0  0  0  0  0  0
   -8.2463    0.9427    0.0979 H   0  0  0  0  0  0  0  0  0  0  0  0
   -6.9085    2.0637    0.2009 H   0  0  0  0  0  0  0  0  0  0  0  0
   -4.5648   -1.9248   -0.7855 H   0  0  0  0  0  0  0  0  0  0  0  0
   -2.2081   -1.9772   -0.2220 H   0  0  0  0  0  0  0  0  0  0  0  0
   -0.5317    1.9251    0.7895 H   0  0  0  0  0  0  0  0  0  0  0  0
    1.5167    2.0277    1.9680 H   0  0  0  0  0  0  0  0  0  0  0  0
    1.7075    0.2753    1.8732 H   0  0  0  0  0  0  0  0  0  0  0  0
    3.1775    1.6648    0.2814 H   0  0  0  0  0  0  0  0  0  0  0  0
    1.7177    2.1920   -0.5315 H   0  0  0  0  0  0  0  0  0  0  0  0
    2.6996    0.4342   -1.8329 H   0  0  0  0  0  0  0  0  0  0  0  0
    1.1880   -0.1481   -1.1832 H   0  0  0  0  0  0  0  0  0  0  0  0
    2.8917   -1.8883   -1.0908 H   0  0  0  0  0  0  0  0  0  0  0  0
    2.3559   -1.4852    0.5246 H   0  0  0  0  0  0  0  0  0  0  0  0
    4.4191   -0.1526    0.9214 H   0  0  0  0  0  0  0  0  0  0  0  0
    4.7414   -1.8267    0.5294 H   0  0  0  0  0  0  0  0  0  0  0  0
    4.9873    0.5146   -1.4343 H   0  0  0  0  0  0  0  0  0  0  0  0
    5.2345   -1.1955   -1.8494 H   0  0  0  0  0  0  0  0  0  0  0  0
    7.3978   -0.4265   -2.5760 H   0  0  0  0  0  0  0  0  0  0  0  0
    8.9326   -0.2385   -0.2979 H   0  0  0  0  0  0  0  0  0  0  0  0
   -2.5572    1.8933    1.6324 H   0  0  0  0  0  0  0  0  0  0  0  0
   -4.8987    1.9681    1.0585 H   0  0  0  0  0  0  0  0  0  0  0  0
  1  2  1  0
  2  3  1  0
  2  4  1  0
  4  5  2  0
  5  6  1  0
  6  7  2  0
  7  8  1  0
  8  9  2  0
  8 10  1  0
 10 11  1  0
 11 12  1  0
 12 13  1  0
 13 14  1  0
 14 15  1  0
 15 16  1  0
 16 17  1  0
 17 18  2  0
 17 19  1  0
 19 20  1  0
  7 21  1  0
 21 22  2  0
 22  4  1  0
  1 23  1  0
  1 24  1  0
  1 25  1  0
  3 26  1  0
  3 27  1  0
  3 28  1  0
  5 29  1  0
  6 30  1  0
 10 31  1  0
 11 32  1  0
 11 33  1  0
 12 34  1  0
 12 35  1  0
 13 36  1  0
 13 37  1  0
 14 38  1  0
 14 39  1  0
 15 40  1  0
 15 41  1  0
 16 42  1  0
 16 43  1  0
 19 44  1  0
 20 45  1  0
 21 46  1  0
 22 47  1  0
M  END
$$$$
