
     RDKit          3D

 54 57  0  0  0  0  0  0  0  0999 V2000
    6.3407    0.4159    3.6824 C   0  0  0  0  0  0  0  0  0  0  0  0
    5.7820   -0.1103    2.4181 C   0  0  0  0  0  0  0  0  0  0  0  0
    6.0709    0.3024    1.0987 C   0  0  0  0  0  0  0  0  0  0  0  0
    5.3870   -0.3849    0.1806 N   0  0  0  0  0  0  0  0  0  0  0  0
    4.6350   -1.2324    0.9136 N   0  0  0  0  0  0  0  0  0  0  0  0
    3.7608   -2.1735    0.2451 C   0  0  0  0  0  0  0  0  0  0  0  0
    2.3316   -2.0616    0.7242 C   0  0  0  0  0  0  0  0  0  0  0  0
    1.9014   -2.8287    1.5900 O   0  0  0  0  0  0  0  0  0  0  0  0
    1.5242   -1.1079    0.1438 N   0  0  0  0  0  0  0  0  0  0  0  0
    1.9138   -0.0957   -0.8312 C   0  0  0  0  0  0  0  0  0  0  0  0
    0.7252    0.8573   -0.9267 C   0  0  0  0  0  0  0  0  0  0  0  0
   -0.4617   -0.0324   -0.5295 C   0  0  0  0  0  0  0  0  0  0  0  0
   -1.7194    0.6737   -0.2047 N   0  0  0  0  0  0  0  0  0  0  0  0
   -1.6840    1.6128    0.8424 C   0  0  0  0  0  0  0  0  0  0  0  0
   -0.6850    1.7154    1.5534 O   0  0  0  0  0  0  0  0  0  0  0  0
   -2.7666    2.5924    1.1678 C   0  0  0  0  0  0  0  0  0  0  0  0
   -3.9276    3.0490    0.3364 C   0  0  0  0  0  0  0  0  0  0  0  0
   -4.1645    2.1958    1.5594 C   0  0  0  0  0  0  0  0  0  0  0  0
   -2.9400    0.1699   -0.8710 C   0  0  0  0  0  0  0  0  0  0  0  0
   -2.9454    0.4507   -2.3840 C   0  0  0  0  0  0  0  0  0  0  0  0
   -3.8008   -0.5621   -3.1375 C   0  0  0  0  0  0  0  0  0  0  0  0
   -4.9123   -0.9473   -2.3373 O   0  0  0  0  0  0  0  0  0  0  0  0
   -4.5362   -1.7424   -1.2104 C   0  0  0  0  0  0  0  0  0  0  0  0
   -3.2077   -1.3143   -0.5875 C   0  0  0  0  0  0  0  0  0  0  0  0
    0.1372   -0.9381    0.5564 C   0  0  0  0  0  0  0  0  0  0  0  0
    4.8572   -1.1202    2.2568 C   0  0  0  0  0  0  0  0  0  0  0  0
    6.7603   -0.3955    4.2857 H   0  0  0  0  0  0  0  0  0  0  0  0
    7.1373    1.1422    3.4918 H   0  0  0  0  0  0  0  0  0  0  0  0
    5.5602    0.9131    4.2670 H   0  0  0  0  0  0  0  0  0  0  0  0
    6.7551    1.0747    0.7712 H   0  0  0  0  0  0  0  0  0  0  0  0
    4.1388   -3.1788    0.4614 H   0  0  0  0  0  0  0  0  0  0  0  0
    3.8239   -2.0237   -0.8369 H   0  0  0  0  0  0  0  0  0  0  0  0
    2.0963   -0.6009   -1.7856 H   0  0  0  0  0  0  0  0  0  0  0  0
    2.8238    0.4214   -0.5198 H   0  0  0  0  0  0  0  0  0  0  0  0
    0.6142    1.2805   -1.9301 H   0  0  0  0  0  0  0  0  0  0  0  0
    0.8754    1.6938   -0.2378 H   0  0  0  0  0  0  0  0  0  0  0  0
   -0.6505   -0.6674   -1.4053 H   0  0  0  0  0  0  0  0  0  0  0  0
   -2.3438    3.3968    1.7743 H   0  0  0  0  0  0  0  0  0  0  0  0
   -4.2032    4.0987    0.4007 H   0  0  0  0  0  0  0  0  0  0  0  0
   -4.0958    2.6520   -0.6516 H   0  0  0  0  0  0  0  0  0  0  0  0
   -4.4778    1.1669    1.4476 H   0  0  0  0  0  0  0  0  0  0  0  0
   -4.5907    2.6731    2.4365 H   0  0  0  0  0  0  0  0  0  0  0  0
   -3.8030    0.6757   -0.4568 H   0  0  0  0  0  0  0  0  0  0  0  0
   -1.9419    0.4661   -2.8226 H   0  0  0  0  0  0  0  0  0  0  0  0
   -3.3484    1.4585   -2.5446 H   0  0  0  0  0  0  0  0  0  0  0  0
   -3.2197   -1.4509   -3.4129 H   0  0  0  0  0  0  0  0  0  0  0  0
   -4.1774   -0.1189   -4.0653 H   0  0  0  0  0  0  0  0  0  0  0  0
   -5.3414   -1.6482   -0.4739 H   0  0  0  0  0  0  0  0  0  0  0  0
   -4.4970   -2.7946   -1.5138 H   0  0  0  0  0  0  0  0  0  0  0  0
   -3.2103   -1.5248    0.4884 H   0  0  0  0  0  0  0  0  0  0  0  0
   -2.4120   -1.9358   -1.0154 H   0  0  0  0  0  0  0  0  0  0  0  0
   -0.3672   -1.9085    0.6112 H   0  0  0  0  0  0  0  0  0  0  0  0
    0.1388   -0.5023    1.5587 H   0  0  0  0  0  0  0  0  0  0  0  0
    4.3400   -1.7466    2.9722 H   0  0  0  0  0  0  0  0  0  0  0  0
  1  2  1  0
  2  3  1  0
  3  4  2  0
  4  5  1  0
  5  6  1  0
  6  7  1  0
  7  8  2  0
  7  9  1  0
  9 10  1  0
 10 11  1  0
 11 12  1  0
 12 13  1  0
 13 14  1  0
 14 15  2  0
 14 16  1  0
 16 17  1  0
 17 18  1  0
 13 19  1  0
 19 20  1  0
 20 21  1  0
 21 22  1  0
 22 23  1  0
 23 24  1  0
 12 25  1  0
  5 26  1  0
 26  2  2  0
 25  9  1  0
 18 16  1  0
 24 19  1  0
  1 27  1  0
  1 28  1  0
  1 29  1  0
  3 30  1  0
  6 31  1  0
  6 32  1  0
 10 33  1  0
 10 34  1  0
 11 35  1  0
 11 36  1  0
 12 37  1  0
 16 38  1  0
 17 39  1  0
 17 40  1  0
 18 41  1  0
 18 42  1  0
 19 43  1  0
 20 44  1  0
 20 45  1  0
 21 46  1  0
 21 47  1  0
 23 48  1  0
 23 49  1  0
 24 50  1  0
 24 51  1  0
 25 52  1  0
 25 53  1  0
 26 54  1  0
M  END
$$$$
