
     RDKit          3D

 48 51  0  0  0  0  0  0  0  0999 V2000
   -1.8851   -2.4941   -0.2401 O   0  0  0  0  0  0  0  0  0  0  0  0
   -1.6118   -1.4109   -0.7530 C   0  0  0  0  0  0  0  0  0  0  0  0
   -2.5382   -0.5849   -1.3384 N   0  0  0  0  0  0  0  0  0  0  0  0
   -3.9464   -0.9293   -1.3795 C   0  0  0  0  0  0  0  0  0  0  0  0
   -4.6546   -0.6296   -0.0591 C   0  0  0  0  0  0  0  0  0  0  0  0
   -6.1810   -0.9579   -0.0986 C   0  0  0  0  0  0  0  0  0  0  0  0
   -6.8258    0.3552    0.3964 C   0  0  0  0  0  0  0  0  0  0  0  0
   -6.6154    1.4022   -0.6731 C   0  0  0  0  0  0  0  0  0  0  0  0
   -5.3101    1.7121   -0.6755 C   0  0  0  0  0  0  0  0  0  0  0  0
   -4.6485    0.8591    0.3836 C   0  0  0  0  0  0  0  0  0  0  0  0
   -5.7878    0.8432    1.4112 C   0  0  0  0  0  0  0  0  0  0  0  0
   -0.1971   -0.8975   -0.6834 C   0  0  0  0  0  0  0  0  0  0  0  0
    0.2837    0.0083   -1.5471 C   0  0  0  0  0  0  0  0  0  0  0  0
    1.7090    0.4178   -1.4200 C   0  0  0  0  0  0  0  0  0  0  0  0
    2.1459    1.2893   -2.1676 O   0  0  0  0  0  0  0  0  0  0  0  0
    2.5693   -0.2576   -0.3789 C   0  0  0  0  0  0  0  0  0  0  0  0
    3.8939    0.1117   -0.3330 O   0  0  0  0  0  0  0  0  0  0  0  0
    4.7163   -0.4873    0.6652 C   0  0  0  0  0  0  0  0  0  0  0  0
    6.1154    0.0789    0.5847 C   0  0  0  0  0  0  0  0  0  0  0  0
    7.2267   -0.7518    0.7968 C   0  0  0  0  0  0  0  0  0  0  0  0
    8.5225   -0.2311    0.7611 C   0  0  0  0  0  0  0  0  0  0  0  0
    8.7224    1.1281    0.5233 C   0  0  0  0  0  0  0  0  0  0  0  0
    7.6251    1.9626    0.3239 C   0  0  0  0  0  0  0  0  0  0  0  0
    7.8721    3.6423    0.0421 Cl  0  0  0  0  0  0  0  0  0  0  0  0
    6.3291    1.4481    0.3579 C   0  0  0  0  0  0  0  0  0  0  0  0
    1.9420   -1.1630    0.3961 C   0  0  0  0  0  0  0  0  0  0  0  0
    0.6104   -1.4598    0.2860 N   0  0  0  0  0  0  0  0  0  0  0  0
   -2.2900    0.3656   -1.5736 H   0  0  0  0  0  0  0  0  0  0  0  0
   -4.0359   -1.9976   -1.6094 H   0  0  0  0  0  0  0  0  0  0  0  0
   -4.3878   -0.3780   -2.2160 H   0  0  0  0  0  0  0  0  0  0  0  0
   -4.1947   -1.2309    0.7375 H   0  0  0  0  0  0  0  0  0  0  0  0
   -6.3999   -1.7794    0.5932 H   0  0  0  0  0  0  0  0  0  0  0  0
   -6.5319   -1.2448   -1.0961 H   0  0  0  0  0  0  0  0  0  0  0  0
   -7.8471    0.2777    0.7701 H   0  0  0  0  0  0  0  0  0  0  0  0
   -7.3763    1.7958   -1.3302 H   0  0  0  0  0  0  0  0  0  0  0  0
   -4.8131    2.4065   -1.3357 H   0  0  0  0  0  0  0  0  0  0  0  0
   -3.6998    1.2436    0.7604 H   0  0  0  0  0  0  0  0  0  0  0  0
   -6.0146    1.8329    1.8280 H   0  0  0  0  0  0  0  0  0  0  0  0
   -5.6222    0.1390    2.2345 H   0  0  0  0  0  0  0  0  0  0  0  0
   -0.2708    0.4586   -2.3569 H   0  0  0  0  0  0  0  0  0  0  0  0
    4.3198   -0.2766    1.6660 H   0  0  0  0  0  0  0  0  0  0  0  0
    4.7498   -1.5711    0.5003 H   0  0  0  0  0  0  0  0  0  0  0  0
    7.0923   -1.8148    0.9881 H   0  0  0  0  0  0  0  0  0  0  0  0
    9.3764   -0.8852    0.9194 H   0  0  0  0  0  0  0  0  0  0  0  0
    9.7316    1.5297    0.4959 H   0  0  0  0  0  0  0  0  0  0  0  0
    5.4816    2.1125    0.1992 H   0  0  0  0  0  0  0  0  0  0  0  0
    2.4390   -1.7320    1.1729 H   0  0  0  0  0  0  0  0  0  0  0  0
    0.2116   -2.2555    0.7868 H   0  0  0  0  0  0  0  0  0  0  0  0
  1  2  2  0
  2  3  1  0
  3  4  1  0
  4  5  1  0
  5  6  1  0
  6  7  1  0
  7  8  1  0
  8  9  2  0
  9 10  1  0
 10 11  1  0
  2 12  1  0
 12 13  2  0
 13 14  1  0
 14 15  2  0
 14 16  1  0
 16 17  1  0
 17 18  1  0
 18 19  1  0
 19 20  2  0
 20 21  1  0
 21 22  2  0
 22 23  1  0
 23 24  1  0
 23 25  2  0
 16 26  2  0
 26 27  1  0
 10  5  1  0
 27 12  1  0
 11  7  1  0
 25 19  1  0
  3 28  1  0
  4 29  1  0
  4 30  1  0
  5 31  1  0
  6 32  1  0
  6 33  1  0
  7 34  1  0
  8 35  1  0
  9 36  1  0
 10 37  1  0
 11 38  1  0
 11 39  1  0
 13 40  1  0
 18 41  1  0
 18 42  1  0
 20 43  1  0
 21 44  1  0
 22 45  1  0
 25 46  1  0
 26 47  1  0
 27 48  1  0
M  END
$$$$
