
     RDKit          3D

 37 38  0  0  0  0  0  0  0  0999 V2000
    2.2211    1.9941    0.9040 C   0  0  0  0  0  0  0  0  0  0  0  0
    2.0705    0.4708    0.9392 C   0  0  0  0  0  0  0  0  0  0  0  0
    0.8028    0.0710    0.3248 N   0  0  0  0  0  0  0  0  0  0  0  0
   -0.3872    0.1063    1.0386 C   0  0  0  0  0  0  0  0  0  0  0  0
   -0.4373    0.3652    2.2364 O   0  0  0  0  0  0  0  0  0  0  0  0
   -1.6123   -0.2255    0.1791 C   0  0  0  0  0  0  0  0  0  0  0  0
   -2.8166   -0.0871    0.9156 O   0  0  0  0  0  0  0  0  0  0  0  0
   -3.9858   -0.3536    0.2598 C   0  0  0  0  0  0  0  0  0  0  0  0
   -4.1110   -0.7672   -1.0675 C   0  0  0  0  0  0  0  0  0  0  0  0
   -5.3775   -1.0048   -1.6119 C   0  0  0  0  0  0  0  0  0  0  0  0
   -6.5210   -0.8309   -0.8340 C   0  0  0  0  0  0  0  0  0  0  0  0
   -6.4012   -0.4194    0.4908 C   0  0  0  0  0  0  0  0  0  0  0  0
   -5.1371   -0.1826    1.0331 C   0  0  0  0  0  0  0  0  0  0  0  0
    3.2632   -0.2789    0.3097 C   0  0  0  0  0  0  0  0  0  0  0  0
    3.4987   -0.0390   -1.1759 C   0  0  0  0  0  0  0  0  0  0  0  0
    4.9521   -0.4214   -1.3140 C   0  0  0  0  0  0  0  0  0  0  0  0
    5.5417    0.1111   -0.0256 C   0  0  0  0  0  0  0  0  0  0  0  0
    4.5011    0.0658    0.9614 O   0  0  0  0  0  0  0  0  0  0  0  0
    1.4144    2.4744    1.4690 H   0  0  0  0  0  0  0  0  0  0  0  0
    2.1685    2.3833   -0.1177 H   0  0  0  0  0  0  0  0  0  0  0  0
    3.1698    2.3119    1.3475 H   0  0  0  0  0  0  0  0  0  0  0  0
    2.0359    0.1880    1.9996 H   0  0  0  0  0  0  0  0  0  0  0  0
    0.7458    0.0828   -0.6849 H   0  0  0  0  0  0  0  0  0  0  0  0
   -1.4942   -1.2607   -0.1633 H   0  0  0  0  0  0  0  0  0  0  0  0
   -1.6124    0.4655   -0.6728 H   0  0  0  0  0  0  0  0  0  0  0  0
   -3.2485   -0.9165   -1.7070 H   0  0  0  0  0  0  0  0  0  0  0  0
   -5.4717   -1.3274   -2.6457 H   0  0  0  0  0  0  0  0  0  0  0  0
   -7.5039   -1.0167   -1.2591 H   0  0  0  0  0  0  0  0  0  0  0  0
   -7.2879   -0.2826    1.1038 H   0  0  0  0  0  0  0  0  0  0  0  0
   -5.0458    0.1380    2.0685 H   0  0  0  0  0  0  0  0  0  0  0  0
    3.1184   -1.3559    0.4713 H   0  0  0  0  0  0  0  0  0  0  0  0
    3.3778    1.0158   -1.4430 H   0  0  0  0  0  0  0  0  0  0  0  0
    2.8374   -0.6326   -1.8133 H   0  0  0  0  0  0  0  0  0  0  0  0
    5.4330   -0.0103   -2.2054 H   0  0  0  0  0  0  0  0  0  0  0  0
    5.0477   -1.5133   -1.3464 H   0  0  0  0  0  0  0  0  0  0  0  0
    5.8511    1.1560   -0.1338 H   0  0  0  0  0  0  0  0  0  0  0  0
    6.4002   -0.4736    0.3163 H   0  0  0  0  0  0  0  0  0  0  0  0
  1  2  1  0
  2  3  1  0
  3  4  1  0
  4  5  2  0
  4  6  1  0
  6  7  1  0
  7  8  1  0
  8  9  2  0
  9 10  1  0
 10 11  2  0
 11 12  1  0
 12 13  2  0
  2 14  1  0
 14 15  1  0
 15 16  1  0
 16 17  1  0
 17 18  1  0
 13  8  1  0
 18 14  1  0
  1 19  1  0
  1 20  1  0
  1 21  1  0
  2 22  1  0
  3 23  1  0
  6 24  1  0
  6 25  1  0
  9 26  1  0
 10 27  1  0
 11 28  1  0
 12 29  1  0
 13 30  1  0
 14 31  1  0
 15 32  1  0
 15 33  1  0
 16 34  1  0
 16 35  1  0
 17 36  1  0
 17 37  1  0
M  END
$$$$
