
     RDKit          3D

 26 27  0  0  0  0  0  0  0  0999 V2000
    2.7104   -2.5330    0.3587 N   0  0  0  0  0  0  0  0  0  0  0  0
    1.9162   -1.8535   -0.5134 C   0  0  0  0  0  0  0  0  0  0  0  0
    1.8145   -2.2073   -1.6810 O   0  0  0  0  0  0  0  0  0  0  0  0
    1.1209   -0.7057   -0.0149 C   0  0  0  0  0  0  0  0  0  0  0  0
   -0.1661   -0.5494   -0.5737 C   0  0  0  0  0  0  0  0  0  0  0  0
   -1.0130    0.5165   -0.2142 C   0  0  0  0  0  0  0  0  0  0  0  0
   -2.3200    0.7059   -0.7300 N   0  0  0  0  0  0  0  0  0  0  0  0
   -2.5916    0.4180   -2.1433 C   0  0  0  0  0  0  0  0  0  0  0  0
   -3.1625   -0.4461   -1.0653 C   0  0  0  0  0  0  0  0  0  0  0  0
   -0.5046    1.4362    0.7218 C   0  0  0  0  0  0  0  0  0  0  0  0
   -1.3184    2.5605    1.1329 N   0  0  0  0  0  4  0  0  0  0  0  0
   -1.8719    2.4682    2.2366 O   0  0  0  0  0  0  0  0  0  0  0  0
   -1.3290    3.5497    0.3896 O   0  0  0  0  0  1  0  0  0  0  0  0
    0.7696    1.3270    1.2899 C   0  0  0  0  0  0  0  0  0  0  0  0
    1.5666    0.2462    0.9046 C   0  0  0  0  0  0  0  0  0  0  0  0
    2.8919    0.1739    1.4669 N   0  0  0  0  0  4  0  0  0  0  0  0
    3.0673   -0.6607    2.3651 O   0  0  0  0  0  0  0  0  0  0  0  0
    3.7296    0.9711    1.0334 O   0  0  0  0  0  1  0  0  0  0  0  0
    2.7863   -2.3563    1.3565 H   0  0  0  0  0  0  0  0  0  0  0  0
    3.2157   -3.3348   -0.0010 H   0  0  0  0  0  0  0  0  0  0  0  0
   -0.4961   -1.2858   -1.3062 H   0  0  0  0  0  0  0  0  0  0  0  0
   -1.7633    0.0633   -2.7392 H   0  0  0  0  0  0  0  0  0  0  0  0
   -3.2311    1.1587   -2.6055 H   0  0  0  0  0  0  0  0  0  0  0  0
   -2.7507   -1.4274   -0.8834 H   0  0  0  0  0  0  0  0  0  0  0  0
   -4.1987   -0.3036   -0.7869 H   0  0  0  0  0  0  0  0  0  0  0  0
    1.1280    2.0684    2.0018 H   0  0  0  0  0  0  0  0  0  0  0  0
  1  2  1  0
  2  3  2  0
  2  4  1  0
  4  5  2  0
  5  6  1  0
  6  7  1  0
  7  8  1  0
  8  9  1  0
  6 10  2  0
 10 11  1  0
 11 12  2  0
 11 13  1  0
 10 14  1  0
 14 15  2  0
 15 16  1  0
 16 17  2  0
 16 18  1  0
 15  4  1  0
  9  7  1  0
  1 19  1  0
  1 20  1  0
  5 21  1  0
  8 22  1  0
  8 23  1  0
  9 24  1  0
  9 25  1  0
 14 26  1  0
M  CHG  4  11   1  13  -1  16   1  18  -1
M  END
$$$$
