
     RDKit          3D

 48 49  0  0  0  0  0  0  0  0999 V2000
    8.9978   -0.5941   -1.4409 C   0  0  0  0  0  0  0  0  0  0  0  0
    8.0279    0.5687   -1.3005 C   0  0  0  0  0  0  0  0  0  0  0  0
    6.6144    0.1390   -0.9056 C   0  0  0  0  0  0  0  0  0  0  0  0
    6.5388   -0.4820    0.4881 C   0  0  0  0  0  0  0  0  0  0  0  0
    5.1741   -0.8007    0.8483 N   0  0  0  0  0  0  0  0  0  0  0  0
    4.3132    0.1320    1.3888 C   0  0  0  0  0  0  0  0  0  0  0  0
    4.6392    1.2770    1.6819 O   0  0  0  0  0  0  0  0  0  0  0  0
    2.9008   -0.4128    1.6182 C   0  0  0  0  0  0  0  0  0  0  0  0
    2.5120   -1.3646    0.6250 O   0  0  0  0  0  0  0  0  0  0  0  0
    2.0337   -0.7423   -0.5754 C   0  0  0  0  0  0  0  0  0  0  0  0
    0.5641   -0.5091   -0.4447 C   0  0  0  0  0  0  0  0  0  0  0  0
    0.0076    0.6596   -0.1918 N   0  0  0  0  0  0  0  0  0  0  0  0
   -1.3677    0.5779   -0.1200 N   0  0  0  0  0  0  0  0  0  0  0  0
   -1.7981   -0.6534   -0.3245 C   0  0  0  0  0  0  0  0  0  0  0  0
   -3.2102   -1.0136   -0.3014 C   0  0  0  0  0  0  0  0  0  0  0  0
   -3.6161   -2.1549   -0.5035 O   0  0  0  0  0  0  0  0  0  0  0  0
   -4.0222    0.0801   -0.0281 N   0  0  0  0  0  0  0  0  0  0  0  0
   -5.4244    0.1272    0.0753 C   0  0  0  0  0  0  0  0  0  0  0  0
   -6.0003    1.3708    0.3633 C   0  0  0  0  0  0  0  0  0  0  0  0
   -7.3889    1.5123    0.4847 C   0  0  0  0  0  0  0  0  0  0  0  0
   -8.2206    0.4078    0.3189 C   0  0  0  0  0  0  0  0  0  0  0  0
   -9.5843    0.4035    0.4093 O   0  0  0  0  0  0  0  0  0  0  0  0
  -10.2138    1.6441    0.7029 C   0  0  0  0  0  0  0  0  0  0  0  0
   -7.6483   -0.8320    0.0319 C   0  0  0  0  0  0  0  0  0  0  0  0
   -6.2608   -0.9750   -0.0897 C   0  0  0  0  0  0  0  0  0  0  0  0
   -0.5624   -1.7981   -0.6240 S   0  0  0  0  0  0  0  0  0  0  0  0
    8.6178   -1.3401   -2.1460 H   0  0  0  0  0  0  0  0  0  0  0  0
    9.1774   -1.0851   -0.4800 H   0  0  0  0  0  0  0  0  0  0  0  0
    9.9623   -0.2354   -1.8146 H   0  0  0  0  0  0  0  0  0  0  0  0
    7.9752    1.0963   -2.2604 H   0  0  0  0  0  0  0  0  0  0  0  0
    8.4190    1.2836   -0.5673 H   0  0  0  0  0  0  0  0  0  0  0  0
    6.2199   -0.5676   -1.6466 H   0  0  0  0  0  0  0  0  0  0  0  0
    5.9620    1.0204   -0.9468 H   0  0  0  0  0  0  0  0  0  0  0  0
    7.1008   -1.4195    0.5322 H   0  0  0  0  0  0  0  0  0  0  0  0
    6.9523    0.2044    1.2352 H   0  0  0  0  0  0  0  0  0  0  0  0
    4.7742   -1.6882    0.5603 H   0  0  0  0  0  0  0  0  0  0  0  0
    2.9039   -0.9256    2.5856 H   0  0  0  0  0  0  0  0  0  0  0  0
    2.1890    0.4175    1.6739 H   0  0  0  0  0  0  0  0  0  0  0  0
    2.5707    0.1897   -0.7857 H   0  0  0  0  0  0  0  0  0  0  0  0
    2.2351   -1.4289   -1.4047 H   0  0  0  0  0  0  0  0  0  0  0  0
   -3.5223    0.9542    0.1139 H   0  0  0  0  0  0  0  0  0  0  0  0
   -5.3780    2.2524    0.4985 H   0  0  0  0  0  0  0  0  0  0  0  0
   -7.7836    2.4976    0.7088 H   0  0  0  0  0  0  0  0  0  0  0  0
  -10.0226    2.3800   -0.0852 H   0  0  0  0  0  0  0  0  0  0  0  0
   -9.9026    2.0229    1.6821 H   0  0  0  0  0  0  0  0  0  0  0  0
  -11.2935    1.4704    0.7411 H   0  0  0  0  0  0  0  0  0  0  0  0
   -8.2875   -1.7022   -0.0997 H   0  0  0  0  0  0  0  0  0  0  0  0
   -5.8750   -1.9641   -0.3136 H   0  0  0  0  0  0  0  0  0  0  0  0
  1  2  1  0
  2  3  1  0
  3  4  1  0
  4  5  1  0
  5  6  1  0
  6  7  2  0
  6  8  1  0
  8  9  1  0
  9 10  1  0
 10 11  1  0
 11 12  2  0
 12 13  1  0
 13 14  2  0
 14 15  1  0
 15 16  2  0
 15 17  1  0
 17 18  1  0
 18 19  2  0
 19 20  1  0
 20 21  2  0
 21 22  1  0
 22 23  1  0
 21 24  1  0
 24 25  2  0
 14 26  1  0
 26 11  1  0
 25 18  1  0
  1 27  1  0
  1 28  1  0
  1 29  1  0
  2 30  1  0
  2 31  1  0
  3 32  1  0
  3 33  1  0
  4 34  1  0
  4 35  1  0
  5 36  1  0
  8 37  1  0
  8 38  1  0
 10 39  1  0
 10 40  1  0
 17 41  1  0
 19 42  1  0
 20 43  1  0
 23 44  1  0
 23 45  1  0
 23 46  1  0
 24 47  1  0
 25 48  1  0
M  END
$$$$
