
     RDKit          3D

 64 67  0  0  0  0  0  0  0  0999 V2000
    3.1947   -0.4892   -2.8357 C   0  0  0  0  0  0  0  0  0  0  0  0
    3.5379    0.8949   -2.2980 C   0  0  0  0  0  0  0  0  0  0  0  0
    3.3417    0.9985   -0.8042 C   0  0  0  0  0  0  0  0  0  0  0  0
    2.0322    1.0342   -0.2911 C   0  0  0  0  0  0  0  0  0  0  0  0
    1.7851    1.1685    1.0832 C   0  0  0  0  0  0  0  0  0  0  0  0
    0.4134    1.1799    1.5814 C   0  0  0  0  0  0  0  0  0  0  0  0
    0.0734    1.4522    2.8536 N   0  0  0  0  0  0  0  0  0  0  0  0
   -1.3154    1.3362    2.8566 O   0  0  0  0  0  0  0  0  0  0  0  0
   -1.6832    0.9965    1.5863 C   0  0  0  0  0  0  0  0  0  0  0  0
   -3.0998    0.7843    1.3295 C   0  0  0  0  0  0  0  0  0  0  0  0
   -4.0746    0.9956    2.3033 C   0  0  0  0  0  0  0  0  0  0  0  0
   -5.3955    0.7552    1.9729 C   0  0  0  0  0  0  0  0  0  0  0  0
   -6.3228    0.9677    2.9733 O   0  0  0  0  0  0  0  0  0  0  0  0
   -7.6561    0.6746    2.5666 C   0  0  0  0  0  0  0  0  0  0  0  0
   -5.8011    0.3307    0.7588 N   0  0  0  0  0  0  0  0  0  0  0  0
   -4.8583    0.1319   -0.1894 C   0  0  0  0  0  0  0  0  0  0  0  0
   -5.2913   -0.3928   -1.5457 C   0  0  0  0  0  0  0  0  0  0  0  0
   -5.4025   -1.9187   -1.5572 C   0  0  0  0  0  0  0  0  0  0  0  0
   -6.8011   -2.2075   -1.0249 C   0  0  0  0  0  0  0  0  0  0  0  0
   -7.6581   -1.0194   -1.4568 C   0  0  0  0  0  0  0  0  0  0  0  0
   -6.6945    0.0504   -1.9755 C   0  0  0  0  0  0  0  0  0  0  0  0
   -3.5059    0.3438    0.0645 C   0  0  0  0  0  0  0  0  0  0  0  0
   -0.6623    0.8936    0.7654 N   0  0  0  0  0  0  0  0  0  0  0  0
    2.8754    1.2951    1.9538 C   0  0  0  0  0  0  0  0  0  0  0  0
    4.1939    1.2745    1.4711 C   0  0  0  0  0  0  0  0  0  0  0  0
    5.3356    1.4089    2.4405 C   0  0  0  0  0  0  0  0  0  0  0  0
    4.4141    1.0814    0.0971 C   0  0  0  0  0  0  0  0  0  0  0  0
    5.7077    1.0460   -0.3602 O   0  0  0  0  0  0  0  0  0  0  0  0
    6.1784   -0.3110   -0.4657 C   0  0  0  0  0  0  0  0  0  0  0  0
    7.6971   -0.3283   -0.2307 C   0  0  1  0  0  0  0  0  0  0  0  0
    7.9744   -0.1863    1.1729 O   0  0  0  0  0  0  0  0  0  0  0  0
    8.3260   -1.6424   -0.7008 C   0  0  0  0  0  0  0  0  0  0  0  0
    7.7384   -2.7329    0.0159 O   0  0  0  0  0  0  0  0  0  0  0  0
    3.7979   -1.2660   -2.3538 H   0  0  0  0  0  0  0  0  0  0  0  0
    3.3808   -0.5336   -3.9135 H   0  0  0  0  0  0  0  0  0  0  0  0
    2.1402   -0.7336   -2.6682 H   0  0  0  0  0  0  0  0  0  0  0  0
    4.5662    1.1494   -2.5785 H   0  0  0  0  0  0  0  0  0  0  0  0
    2.9045    1.6456   -2.7897 H   0  0  0  0  0  0  0  0  0  0  0  0
    1.1890    0.9644   -0.9787 H   0  0  0  0  0  0  0  0  0  0  0  0
   -3.8278    1.3372    3.3024 H   0  0  0  0  0  0  0  0  0  0  0  0
   -8.3146    0.8599    3.4205 H   0  0  0  0  0  0  0  0  0  0  0  0
   -7.7636   -0.3792    2.2878 H   0  0  0  0  0  0  0  0  0  0  0  0
   -7.9758    1.3335    1.7520 H   0  0  0  0  0  0  0  0  0  0  0  0
   -4.5626   -0.0529   -2.2927 H   0  0  0  0  0  0  0  0  0  0  0  0
   -5.3281   -2.2837   -2.5894 H   0  0  0  0  0  0  0  0  0  0  0  0
   -4.6308   -2.4224   -0.9669 H   0  0  0  0  0  0  0  0  0  0  0  0
   -6.7822   -2.2777    0.0700 H   0  0  0  0  0  0  0  0  0  0  0  0
   -7.1933   -3.1557   -1.4038 H   0  0  0  0  0  0  0  0  0  0  0  0
   -8.2473   -0.6426   -0.6127 H   0  0  0  0  0  0  0  0  0  0  0  0
   -8.3655   -1.3082   -2.2425 H   0  0  0  0  0  0  0  0  0  0  0  0
   -6.9665    1.0535   -1.6289 H   0  0  0  0  0  0  0  0  0  0  0  0
   -6.7481    0.0632   -3.0727 H   0  0  0  0  0  0  0  0  0  0  0  0
   -2.7674    0.1623   -0.7134 H   0  0  0  0  0  0  0  0  0  0  0  0
    2.7034    1.4135    3.0226 H   0  0  0  0  0  0  0  0  0  0  0  0
    5.6830    0.4167    2.7487 H   0  0  0  0  0  0  0  0  0  0  0  0
    6.1688    1.9663    1.9992 H   0  0  0  0  0  0  0  0  0  0  0  0
    5.0269    1.9632    3.3345 H   0  0  0  0  0  0  0  0  0  0  0  0
    5.9623   -0.6583   -1.4824 H   0  0  0  0  0  0  0  0  0  0  0  0
    5.6746   -0.9673    0.2579 H   0  0  0  0  0  0  0  0  0  0  0  0
    8.1714    0.5175   -0.7408 H   0  0  0  0  0  0  0  0  0  0  0  0
    7.7342   -1.0473    1.5711 H   0  0  0  0  0  0  0  0  0  0  0  0
    9.3991   -1.6470   -0.4789 H   0  0  0  0  0  0  0  0  0  0  0  0
    8.1722   -1.7974   -1.7735 H   0  0  0  0  0  0  0  0  0  0  0  0
    8.2022   -3.5395   -0.2700 H   0  0  0  0  0  0  0  0  0  0  0  0
  1  2  1  0
  2  3  1  0
  3  4  2  0
  4  5  1  0
  5  6  1  0
  6  7  2  0
  7  8  1  0
  8  9  1  0
  9 10  1  0
 10 11  2  0
 11 12  1  0
 12 13  1  0
 13 14  1  0
 12 15  2  0
 15 16  1  0
 16 17  1  0
 17 18  1  0
 18 19  1  0
 19 20  1  0
 20 21  1  0
 16 22  2  0
  9 23  2  0
  5 24  2  0
 24 25  1  0
 25 26  1  0
 25 27  2  0
 27 28  1  0
 28 29  1  0
 29 30  1  0
 30 31  1  0
 30 32  1  0
 32 33  1  0
 27  3  1  0
 23  6  1  0
 22 10  1  0
 21 17  1  0
  1 34  1  0
  1 35  1  0
  1 36  1  0
  2 37  1  0
  2 38  1  0
  4 39  1  0
 11 40  1  0
 14 41  1  0
 14 42  1  0
 14 43  1  0
 17 44  1  0
 18 45  1  0
 18 46  1  0
 19 47  1  0
 19 48  1  0
 20 49  1  0
 20 50  1  0
 21 51  1  0
 21 52  1  0
 22 53  1  0
 24 54  1  0
 26 55  1  0
 26 56  1  0
 26 57  1  0
 29 58  1  0
 29 59  1  0
 30 60  1  6
 31 61  1  0
 32 62  1  0
 32 63  1  0
 33 64  1  0
M  END
$$$$
