
     RDKit          3D

 44 46  0  0  0  0  0  0  0  0999 V2000
    5.1018    1.7021    1.2979 C   0  0  0  0  0  0  0  0  0  0  0  0
    4.2938    0.7226    0.4867 C   0  0  0  0  0  0  0  0  0  0  0  0
    2.8924    0.6876    0.6795 C   0  0  0  0  0  0  0  0  0  0  0  0
    2.0782   -0.1918   -0.0430 C   0  0  0  0  0  0  0  0  0  0  0  0
    0.6584   -0.2707    0.1326 N   0  0  0  0  0  0  0  0  0  0  0  0
   -0.0506   -1.1527   -0.6315 N   0  0  0  0  0  0  0  0  0  0  0  0
   -1.3020   -1.0092   -0.1865 C   0  0  0  0  0  0  0  0  0  0  0  0
   -2.4126   -1.8644   -0.6840 C   0  0  0  0  0  0  0  0  0  0  0  0
   -3.6643   -1.0207   -0.7486 C   0  0  0  0  0  0  0  0  0  0  0  0
   -3.9762   -0.2754   -1.8959 C   0  0  0  0  0  0  0  0  0  0  0  0
   -5.1289    0.5021   -1.9244 C   0  0  0  0  0  0  0  0  0  0  0  0
   -5.4182    1.2141   -3.0230 F   0  0  0  0  0  0  0  0  0  0  0  0
   -5.9892    0.5562   -0.8326 C   0  0  0  0  0  0  0  0  0  0  0  0
   -5.6957   -0.1723    0.3318 C   0  0  0  0  0  0  0  0  0  0  0  0
   -6.6269   -0.1001    1.5201 C   0  0  0  0  0  0  0  0  0  0  0  0
   -6.8441    1.1803    1.9377 F   0  0  0  0  0  0  0  0  0  0  0  0
   -6.1787   -0.7831    2.6140 F   0  0  0  0  0  0  0  0  0  0  0  0
   -7.8640   -0.6133    1.2457 F   0  0  0  0  0  0  0  0  0  0  0  0
   -4.5322   -0.9587    0.3608 C   0  0  0  0  0  0  0  0  0  0  0  0
   -1.4402   -0.0971    0.8227 N   0  0  0  0  0  0  0  0  0  0  0  0
   -0.2279    0.3895    0.9893 C   0  0  0  0  0  0  0  0  0  0  0  0
    0.0803    1.4657    1.9615 C   0  0  0  0  0  0  0  0  0  0  0  0
    2.6913   -1.0544   -0.9721 C   0  0  0  0  0  0  0  0  0  0  0  0
    4.0791   -1.0504   -1.1562 C   0  0  0  0  0  0  0  0  0  0  0  0
    4.8894   -0.1663   -0.4325 C   0  0  0  0  0  0  0  0  0  0  0  0
    6.3700   -0.2146   -0.6282 C   0  0  0  0  0  0  0  0  0  0  0  0
    6.8183   -0.5039   -1.8880 N   0  0  0  0  0  0  0  0  0  0  0  0
    7.1612    0.0124    0.2752 O   0  0  0  0  0  0  0  0  0  0  0  0
    4.4642    2.4889    1.7181 H   0  0  0  0  0  0  0  0  0  0  0  0
    5.8431    2.2115    0.6731 H   0  0  0  0  0  0  0  0  0  0  0  0
    5.5991    1.1908    2.1276 H   0  0  0  0  0  0  0  0  0  0  0  0
    2.4893    1.3727    1.4146 H   0  0  0  0  0  0  0  0  0  0  0  0
   -2.1883   -2.2863   -1.6718 H   0  0  0  0  0  0  0  0  0  0  0  0
   -2.5577   -2.7081   -0.0033 H   0  0  0  0  0  0  0  0  0  0  0  0
   -3.3277   -0.2842   -2.7687 H   0  0  0  0  0  0  0  0  0  0  0  0
   -6.8809    1.1791   -0.8927 H   0  0  0  0  0  0  0  0  0  0  0  0
   -4.2809   -1.5172    1.2649 H   0  0  0  0  0  0  0  0  0  0  0  0
    0.5455    2.3271    1.4651 H   0  0  0  0  0  0  0  0  0  0  0  0
   -0.8438    1.8364    2.4282 H   0  0  0  0  0  0  0  0  0  0  0  0
    0.7223    1.0947    2.7722 H   0  0  0  0  0  0  0  0  0  0  0  0
    2.1028   -1.7642   -1.5522 H   0  0  0  0  0  0  0  0  0  0  0  0
    4.5152   -1.7719   -1.8466 H   0  0  0  0  0  0  0  0  0  0  0  0
    6.2175   -0.4884   -2.7002 H   0  0  0  0  0  0  0  0  0  0  0  0
    7.8177   -0.4436   -2.0375 H   0  0  0  0  0  0  0  0  0  0  0  0
  1  2  1  0
  2  3  2  0
  3  4  1  0
  4  5  1  0
  5  6  1  0
  6  7  2  0
  7  8  1  0
  8  9  1  0
  9 10  2  0
 10 11  1  0
 11 12  1  0
 11 13  2  0
 13 14  1  0
 14 15  1  0
 15 16  1  0
 15 17  1  0
 15 18  1  0
 14 19  2  0
  7 20  1  0
 20 21  2  0
 21 22  1  0
  4 23  2  0
 23 24  1  0
 24 25  2  0
 25 26  1  0
 26 27  1  0
 26 28  2  0
 25  2  1  0
 21  5  1  0
 19  9  1  0
  1 29  1  0
  1 30  1  0
  1 31  1  0
  3 32  1  0
  8 33  1  0
  8 34  1  0
 10 35  1  0
 13 36  1  0
 19 37  1  0
 22 38  1  0
 22 39  1  0
 22 40  1  0
 23 41  1  0
 24 42  1  0
 27 43  1  0
 27 44  1  0
M  END
$$$$
