
     RDKit          3D

 51 51  0  0  0  0  0  0  0  0999 V2000
   -7.4924   -0.1250    0.6356 C   0  0  0  0  0  0  0  0  0  0  0  0
   -6.5022    0.6220   -0.2151 C   0  0  0  0  0  0  0  0  0  0  0  0
   -5.0832    0.5332    0.3543 C   0  0  1  0  0  0  0  0  0  0  0  0
   -5.1043    1.1180    1.6968 N   0  0  0  0  0  0  0  0  0  0  0  0
   -4.6023   -0.8782    0.3782 C   0  0  0  0  0  0  0  0  0  0  0  0
   -3.2790   -1.0712    0.8907 N   0  0  0  0  0  0  0  0  0  0  0  0
   -2.0719   -0.7044    0.1914 C   0  0  0  0  0  0  0  0  0  0  0  0
   -2.1452   -0.2032   -1.0905 C   0  0  0  0  0  0  0  0  0  0  0  0
   -0.9610    0.1529   -1.7056 C   0  0  0  0  0  0  0  0  0  0  0  0
    0.1874    0.0033   -1.0554 N   0  0  0  0  0  0  0  0  0  0  0  0
    0.2714   -0.4942    0.2177 C   0  0  0  0  0  0  0  0  0  0  0  0
    1.6016   -0.5982    0.8000 C   0  0  0  0  0  0  0  0  0  0  0  0
    2.7088   -0.1909    0.0438 C   0  0  0  0  0  0  0  0  0  0  0  0
    4.0001   -0.2449    0.4931 C   0  0  0  0  0  0  0  0  0  0  0  0
    5.1395    0.1832   -0.3071 C   0  0  0  0  0  0  0  0  0  0  0  0
    5.2360    0.0998   -1.6776 C   0  0  0  0  0  0  0  0  0  0  0  0
    6.4483    0.6014   -2.0324 N   0  0  0  0  0  0  0  0  0  0  0  0
    7.1069    0.9905   -0.9574 N   0  0  0  0  0  0  0  0  0  0  0  0
    8.4196    1.5802   -0.8317 C   0  0  0  0  0  0  0  0  0  0  0  0
    6.3190    0.7426    0.1237 C   0  0  0  0  0  0  0  0  0  0  0  0
    4.1754   -0.7362    1.7717 C   0  0  0  0  0  0  0  0  0  0  0  0
    3.1174   -1.1408    2.5331 C   0  0  0  0  0  0  0  0  0  0  0  0
    1.7851   -1.0854    2.0703 C   0  0  0  0  0  0  0  0  0  0  0  0
    0.7831   -1.5172    2.9130 O   0  0  0  0  0  0  0  0  0  0  0  0
   -0.8746   -0.8290    0.7891 N   0  0  0  0  0  0  0  0  0  0  0  0
    0.6849    0.0000    0.0000 Cl  0  0  0  0  0  0  0  0  0  0  0  0
    0.6832    0.0000    0.0000 Cl  0  0  0  0  0  0  0  0  0  0  0  0
   -7.1360   -0.2636    1.6716 H   0  0  0  0  0  0  0  0  0  0  0  0
   -8.4643    0.4149    0.7119 H   0  0  0  0  0  0  0  0  0  0  0  0
   -7.7262   -1.0990    0.1412 H   0  0  0  0  0  0  0  0  0  0  0  0
   -6.4364    0.2480   -1.2526 H   0  0  0  0  0  0  0  0  0  0  0  0
   -6.8373    1.6773   -0.2652 H   0  0  0  0  0  0  0  0  0  0  0  0
   -4.4460    1.1788   -0.2417 H   0  0  0  0  0  0  0  0  0  0  0  0
   -4.4484    0.5893    2.3343 H   0  0  0  0  0  0  0  0  0  0  0  0
   -4.8855    2.1275    1.6579 H   0  0  0  0  0  0  0  0  0  0  0  0
   -4.5699   -1.2137   -0.7016 H   0  0  0  0  0  0  0  0  0  0  0  0
   -5.3217   -1.5780    0.8584 H   0  0  0  0  0  0  0  0  0  0  0  0
   -3.1096   -1.5117    1.8489 H   0  0  0  0  0  0  0  0  0  0  0  0
   -3.1006   -0.1076   -1.5988 H   0  0  0  0  0  0  0  0  0  0  0  0
   -1.0137    0.5512   -2.7215 H   0  0  0  0  0  0  0  0  0  0  0  0
    2.5533    0.1962   -0.9678 H   0  0  0  0  0  0  0  0  0  0  0  0
    4.5335   -0.2760   -2.3959 H   0  0  0  0  0  0  0  0  0  0  0  0
    8.9491    1.6464   -1.7912 H   0  0  0  0  0  0  0  0  0  0  0  0
    9.0415    0.9238   -0.1699 H   0  0  0  0  0  0  0  0  0  0  0  0
    8.3740    2.5813   -0.3368 H   0  0  0  0  0  0  0  0  0  0  0  0
    6.5740    0.9500    1.1582 H   0  0  0  0  0  0  0  0  0  0  0  0
    5.1964   -0.7857    2.1433 H   0  0  0  0  0  0  0  0  0  0  0  0
    3.2591   -1.5239    3.5325 H   0  0  0  0  0  0  0  0  0  0  0  0
   -0.1688   -1.5337    2.7220 H   0  0  0  0  0  0  0  0  0  0  0  0
   -0.6849    0.0000    0.0000 H   0  0  0  0  0  0  0  0  0  0  0  0
   -0.6832    0.0000    0.0000 H   0  0  0  0  0  0  0  0  0  0  0  0
  1  2  1  0
  2  3  1  0
  3  4  1  0
  3  5  1  0
  5  6  1  0
  6  7  1  0
  7  8  2  0
  8  9  1  0
  9 10  2  0
 10 11  1  0
 11 12  1  0
 12 13  2  0
 13 14  1  0
 14 15  1  0
 15 16  1  0
 16 17  2  0
 17 18  1  0
 18 19  1  0
 18 20  1  0
 14 21  2  0
 21 22  1  0
 22 23  2  0
 23 24  1  0
 11 25  2  0
 25  7  1  0
 23 12  1  0
 20 15  2  0
  1 28  1  0
  1 29  1  0
  1 30  1  0
  2 31  1  0
  2 32  1  0
  3 33  1  6
  4 34  1  0
  4 35  1  0
  5 36  1  0
  5 37  1  0
  6 38  1  0
  8 39  1  0
  9 40  1  0
 13 41  1  0
 16 42  1  0
 19 43  1  0
 19 44  1  0
 19 45  1  0
 20 46  1  0
 21 47  1  0
 22 48  1  0
 24 49  1  0
 26 50  1  0
 27 51  1  0
M  END
$$$$
