
     RDKit          3D

 49 51  0  0  0  0  0  0  0  0999 V2000
    6.5257   -2.3537    2.9259 C   0  0  0  0  0  0  0  0  0  0  0  0
    5.3103   -1.8500    2.2103 C   0  0  0  0  0  0  0  0  0  0  0  0
    4.2356   -2.6847    1.9528 C   0  0  0  0  0  0  0  0  0  0  0  0
    3.1261   -2.2809    1.2871 N   0  0  0  0  0  0  0  0  0  0  0  0
    3.1222   -0.9988    0.8582 C   0  0  0  0  0  0  0  0  0  0  0  0
    1.9670   -0.6384    0.1651 N   0  0  0  0  0  0  0  0  0  0  0  0
    1.6593    0.5889   -0.3750 C   0  0  0  0  0  0  0  0  0  0  0  0
    2.3923    1.5786   -0.3175 O   0  0  0  0  0  0  0  0  0  0  0  0
    0.4177    0.5475   -0.9867 N   0  0  0  0  0  0  0  0  0  0  0  0
   -0.2887    1.6019   -1.6004 C   0  0  0  0  0  0  0  0  0  0  0  0
    0.0970    2.9400   -1.5482 C   0  0  0  0  0  0  0  0  0  0  0  0
   -0.6825    3.9259   -2.1697 C   0  0  0  0  0  0  0  0  0  0  0  0
   -0.0902    5.7384   -2.0085 Br  0  0  0  0  0  0  0  0  0  0  0  0
   -1.8544    3.5861   -2.8738 C   0  0  0  0  0  0  0  0  0  0  0  0
   -2.7098    4.6130   -3.5608 C   0  0  0  0  0  0  0  0  0  0  0  0
   -2.2334    2.2368   -2.9314 C   0  0  0  0  0  0  0  0  0  0  0  0
   -1.4686    1.2680   -2.2805 C   0  0  0  0  0  0  0  0  0  0  0  0
   -1.8474   -0.0494   -2.3540 O   0  0  0  0  0  0  0  0  0  0  0  0
   -2.8618   -0.3521   -1.3809 C   0  0  0  0  0  0  0  0  0  0  0  0
   -2.5431   -1.7222   -0.7512 C   0  0  2  0  0  0  0  0  0  0  0  0
   -3.6878   -2.2052    0.1736 C   0  0  0  0  0  0  0  0  0  0  0  0
   -3.8458   -1.3820    1.3919 N   0  0  0  0  0  0  0  0  0  0  0  0
   -2.5412   -0.9337    1.9110 C   0  0  0  0  0  0  0  0  0  0  0  0
   -1.3521   -1.7346    1.3558 C   0  0  0  0  0  0  0  0  0  0  0  0
   -1.2514   -1.6633   -0.0780 O   0  0  0  0  0  0  0  0  0  0  0  0
    4.1997   -0.1635    1.1085 C   0  0  0  0  0  0  0  0  0  0  0  0
    5.3094   -0.5688    1.7849 N   0  0  0  0  0  0  0  0  0  0  0  0
    6.2443   -2.9810    3.7776 H   0  0  0  0  0  0  0  0  0  0  0  0
    7.1421   -2.9354    2.2468 H   0  0  0  0  0  0  0  0  0  0  0  0
    7.1232   -1.5224    3.3123 H   0  0  0  0  0  0  0  0  0  0  0  0
    4.2336   -3.7192    2.2761 H   0  0  0  0  0  0  0  0  0  0  0  0
    1.3071   -1.3876    0.0829 H   0  0  0  0  0  0  0  0  0  0  0  0
   -0.0425   -0.3577   -1.0529 H   0  0  0  0  0  0  0  0  0  0  0  0
    0.9915    3.2410   -1.0155 H   0  0  0  0  0  0  0  0  0  0  0  0
   -3.5766    4.1523   -4.0601 H   0  0  0  0  0  0  0  0  0  0  0  0
   -2.1316    5.1355   -4.3313 H   0  0  0  0  0  0  0  0  0  0  0  0
   -3.0989    5.3314   -2.8349 H   0  0  0  0  0  0  0  0  0  0  0  0
   -3.1214    1.9326   -3.4833 H   0  0  0  0  0  0  0  0  0  0  0  0
   -3.8161   -0.3946   -1.9074 H   0  0  0  0  0  0  0  0  0  0  0  0
   -2.9255    0.4230   -0.6139 H   0  0  0  0  0  0  0  0  0  0  0  0
   -2.4157   -2.4478   -1.5685 H   0  0  0  0  0  0  0  0  0  0  0  0
   -4.6355   -2.2248   -0.3758 H   0  0  0  0  0  0  0  0  0  0  0  0
   -3.4854   -3.2371    0.4804 H   0  0  0  0  0  0  0  0  0  0  0  0
   -4.3279   -1.9264    2.0942 H   0  0  0  0  0  0  0  0  0  0  0  0
   -2.4193    0.1190    1.6428 H   0  0  0  0  0  0  0  0  0  0  0  0
   -2.5473   -0.9802    3.0054 H   0  0  0  0  0  0  0  0  0  0  0  0
   -1.4171   -2.7887    1.6425 H   0  0  0  0  0  0  0  0  0  0  0  0
   -0.4150   -1.3416    1.7693 H   0  0  0  0  0  0  0  0  0  0  0  0
    4.2298    0.8656    0.7813 H   0  0  0  0  0  0  0  0  0  0  0  0
  1  2  1  0
  2  3  2  0
  3  4  1  0
  4  5  2  0
  5  6  1  0
  6  7  1  0
  7  8  2  0
  7  9  1  0
  9 10  1  0
 10 11  2  0
 11 12  1  0
 12 13  1  0
 12 14  2  0
 14 15  1  0
 14 16  1  0
 16 17  2  0
 17 18  1  0
 18 19  1  0
 19 20  1  0
 20 21  1  0
 21 22  1  0
 22 23  1  0
 23 24  1  0
 24 25  1  0
  5 26  1  0
 26 27  2  0
 27  2  1  0
 17 10  1  0
 25 20  1  0
  1 28  1  0
  1 29  1  0
  1 30  1  0
  3 31  1  0
  6 32  1  0
  9 33  1  0
 11 34  1  0
 15 35  1  0
 15 36  1  0
 15 37  1  0
 16 38  1  0
 19 39  1  0
 19 40  1  0
 20 41  1  6
 21 42  1  0
 21 43  1  0
 22 44  1  0
 23 45  1  0
 23 46  1  0
 24 47  1  0
 24 48  1  0
 26 49  1  0
M  END
$$$$
