
     RDKit          3D

 61 64  0  0  0  0  0  0  0  0999 V2000
    7.5882    2.5210    0.9349 C   0  0  0  0  0  0  0  0  0  0  0  0
    6.8172    1.3445    0.4153 C   0  0  0  0  0  0  0  0  0  0  0  0
    5.4502    1.4458    0.2108 C   0  0  0  0  0  0  0  0  0  0  0  0
    4.7490    0.3429   -0.2753 C   0  0  0  0  0  0  0  0  0  0  0  0
    3.3476    0.4005   -0.4914 N   0  0  0  0  0  0  0  0  0  0  0  0
    2.5162    1.4968   -0.4214 C   0  0  0  0  0  0  0  0  0  0  0  0
    2.8404    2.6618   -0.2368 O   0  0  0  0  0  0  0  0  0  0  0  0
    1.2050    1.1171   -0.6192 N   0  0  0  0  0  0  0  0  0  0  0  0
    0.1408    2.0972   -0.4863 C   0  0  0  0  0  0  0  0  0  0  0  0
   -1.2296    1.4620   -0.7779 C   0  0  0  0  0  0  0  0  0  0  0  0
   -1.4387    0.1856   -0.0557 N   0  0  0  0  0  0  0  0  0  0  0  0
   -1.6405    0.3716    1.3943 C   0  0  0  0  0  0  0  0  0  0  0  0
   -3.1007    0.2452    1.8337 C   0  0  0  0  0  0  0  0  0  0  0  0
   -3.6531   -1.1528    1.5011 C   0  0  0  0  0  0  0  0  0  0  0  0
   -3.2312   -2.0198    2.5794 O   0  0  0  0  0  0  0  0  0  0  0  0
   -5.2052   -1.1904    1.5102 C   0  0  0  0  0  0  0  0  0  0  0  0
   -5.9329   -0.3999    0.4487 C   0  0  0  0  0  0  0  0  0  0  0  0
   -6.2560   -0.9820   -0.7851 C   0  0  0  0  0  0  0  0  0  0  0  0
   -6.9252   -0.2464   -1.7653 C   0  0  0  0  0  0  0  0  0  0  0  0
   -7.2879    1.0758   -1.5203 C   0  0  0  0  0  0  0  0  0  0  0  0
   -6.9879    1.6613   -0.2928 C   0  0  0  0  0  0  0  0  0  0  0  0
   -6.3185    0.9267    0.6874 C   0  0  0  0  0  0  0  0  0  0  0  0
   -3.0216   -1.7079    0.2091 C   0  0  0  0  0  0  0  0  0  0  0  0
   -2.5216   -0.5827   -0.6941 C   0  0  0  0  0  0  0  0  0  0  0  0
    5.4555   -0.8666   -0.5372 C   0  0  0  0  0  0  0  0  0  0  0  0
    4.8761   -2.0707   -1.0255 C   0  0  0  0  0  0  0  0  0  0  0  0
    5.6445   -3.2134   -1.2543 C   0  0  0  0  0  0  0  0  0  0  0  0
    7.0062   -3.1826   -1.0023 C   0  0  0  0  0  0  0  0  0  0  0  0
    7.5889   -2.0091   -0.5245 C   0  0  0  0  0  0  0  0  0  0  0  0
    6.8475   -0.8592   -0.2886 C   0  0  0  0  0  0  0  0  0  0  0  0
    7.5079    0.2119    0.1716 N   0  0  0  0  0  0  0  0  0  0  0  0
    8.6544    2.2847    1.0130 H   0  0  0  0  0  0  0  0  0  0  0  0
    7.4779    3.3746    0.2588 H   0  0  0  0  0  0  0  0  0  0  0  0
    7.2267    2.8000    1.9295 H   0  0  0  0  0  0  0  0  0  0  0  0
    4.9624    2.3850    0.4421 H   0  0  0  0  0  0  0  0  0  0  0  0
    2.8985   -0.4196   -0.8614 H   0  0  0  0  0  0  0  0  0  0  0  0
    0.9472    0.2095   -0.2522 H   0  0  0  0  0  0  0  0  0  0  0  0
    0.3352    2.9197   -1.1837 H   0  0  0  0  0  0  0  0  0  0  0  0
    0.1847    2.5087    0.5278 H   0  0  0  0  0  0  0  0  0  0  0  0
   -1.2591    1.2605   -1.8573 H   0  0  0  0  0  0  0  0  0  0  0  0
   -2.0330    2.1773   -0.5633 H   0  0  0  0  0  0  0  0  0  0  0  0
   -1.0443   -0.3907    1.9119 H   0  0  0  0  0  0  0  0  0  0  0  0
   -1.2481    1.3330    1.7431 H   0  0  0  0  0  0  0  0  0  0  0  0
   -3.6687    1.0372    1.3360 H   0  0  0  0  0  0  0  0  0  0  0  0
   -3.1656    0.4317    2.9128 H   0  0  0  0  0  0  0  0  0  0  0  0
   -3.5006   -2.9285    2.3585 H   0  0  0  0  0  0  0  0  0  0  0  0
   -5.5622   -0.8668    2.4988 H   0  0  0  0  0  0  0  0  0  0  0  0
   -5.5374   -2.2370    1.4500 H   0  0  0  0  0  0  0  0  0  0  0  0
   -5.9972   -2.0174   -0.9931 H   0  0  0  0  0  0  0  0  0  0  0  0
   -7.1697   -0.7078   -2.7187 H   0  0  0  0  0  0  0  0  0  0  0  0
   -7.8121    1.6470   -2.2820 H   0  0  0  0  0  0  0  0  0  0  0  0
   -7.2798    2.6898   -0.0957 H   0  0  0  0  0  0  0  0  0  0  0  0
   -6.1022    1.3990    1.6436 H   0  0  0  0  0  0  0  0  0  0  0  0
   -2.1777   -2.3698    0.4500 H   0  0  0  0  0  0  0  0  0  0  0  0
   -3.7295   -2.3416   -0.3354 H   0  0  0  0  0  0  0  0  0  0  0  0
   -3.3603    0.0703   -0.9660 H   0  0  0  0  0  0  0  0  0  0  0  0
   -2.1411   -1.0187   -1.6255 H   0  0  0  0  0  0  0  0  0  0  0  0
    3.8145   -2.1418   -1.2385 H   0  0  0  0  0  0  0  0  0  0  0  0
    5.1779   -4.1211   -1.6284 H   0  0  0  0  0  0  0  0  0  0  0  0
    7.6198   -4.0627   -1.1745 H   0  0  0  0  0  0  0  0  0  0  0  0
    8.6591   -1.9890   -0.3284 H   0  0  0  0  0  0  0  0  0  0  0  0
  1  2  1  0
  2  3  2  0
  3  4  1  0
  4  5  1  0
  5  6  1  0
  6  7  2  0
  6  8  1  0
  8  9  1  0
  9 10  1  0
 10 11  1  0
 11 12  1  0
 12 13  1  0
 13 14  1  0
 14 15  1  0
 14 16  1  0
 16 17  1  0
 17 18  2  0
 18 19  1  0
 19 20  2  0
 20 21  1  0
 21 22  2  0
 14 23  1  0
 23 24  1  0
  4 25  2  0
 25 26  1  0
 26 27  2  0
 27 28  1  0
 28 29  2  0
 29 30  1  0
 30 31  2  0
 31  2  1  0
 24 11  1  0
 30 25  1  0
 22 17  1  0
  1 32  1  0
  1 33  1  0
  1 34  1  0
  3 35  1  0
  5 36  1  0
  8 37  1  0
  9 38  1  0
  9 39  1  0
 10 40  1  0
 10 41  1  0
 12 42  1  0
 12 43  1  0
 13 44  1  0
 13 45  1  0
 15 46  1  0
 16 47  1  0
 16 48  1  0
 18 49  1  0
 19 50  1  0
 20 51  1  0
 21 52  1  0
 22 53  1  0
 23 54  1  0
 23 55  1  0
 24 56  1  0
 24 57  1  0
 26 58  1  0
 27 59  1  0
 28 60  1  0
 29 61  1  0
M  END
$$$$
