
     RDKit          3D

 48 48  0  0  0  0  0  0  0  0999 V2000
   -1.3526    2.2286   -2.0695 N   0  0  0  0  0  0  0  0  0  0  0  0
   -2.4112    1.5844   -1.5181 C   0  0  0  0  0  0  0  0  0  0  0  0
   -2.2374    0.5235   -0.7862 N   0  0  0  0  0  0  0  0  0  0  0  0
   -3.3658   -0.0023   -0.2746 C   0  0  0  0  0  0  0  0  0  0  0  0
   -4.6583    0.4141   -0.4819 C   0  0  0  0  0  0  0  0  0  0  0  0
   -5.5519   -0.3736    0.2046 N   0  0  0  0  0  0  0  0  0  0  0  0
   -4.7877   -1.2426    0.8424 C   0  0  0  0  0  0  0  0  0  0  0  0
   -3.4469   -1.0524    0.5916 N   0  0  0  0  0  0  0  0  0  0  0  0
   -2.3626   -1.7906    1.2153 C   0  0  2  0  0  0  0  0  0  0  0  0
   -1.8293   -0.9883    2.3049 O   0  0  0  0  0  0  0  0  0  0  0  0
   -0.3804   -0.9907    2.1780 C   0  0  2  0  0  0  0  0  0  0  0  0
    0.0730    0.3743    1.6545 C   0  0  0  0  0  0  0  0  0  0  0  0
    1.4330    0.3872    1.2741 O   0  0  0  0  0  0  0  0  0  0  0  0
    1.7396    0.6017   -0.3113 P   0  0  0  0  0  5  0  0  0  0  0  0
    0.9502    1.7909   -0.7994 O   0  0  0  0  0  0  0  0  0  0  0  0
    1.5900   -0.7533   -0.9730 O   0  0  0  0  0  1  0  0  0  0  0  0
    3.3026    0.9236   -0.2159 O   0  0  0  0  0  0  0  0  0  0  0  0
    4.3113    0.4890   -1.3759 P   0  0  0  0  0  5  0  0  0  0  0  0
    4.1504    1.1349   -2.7161 O   0  0  0  0  0  0  0  0  0  0  0  0
    4.0175   -1.1057   -1.4461 O   0  0  0  0  0  0  0  0  0  0  0  0
    5.7363    0.4953   -0.6759 O   0  0  0  0  0  0  0  0  0  0  0  0
    6.6999    1.7235   -0.3734 P   0  0  0  0  0  5  0  0  0  0  0  0
    7.5650    1.3743    0.8137 O   0  0  0  0  0  0  0  0  0  0  0  0
    7.3019    2.3260   -1.6074 O   0  0  0  0  0  1  0  0  0  0  0  0
    5.6697    2.7717    0.2778 O   0  0  0  0  0  0  0  0  0  0  0  0
   -0.0431   -2.1947    1.3002 C   0  0  1  0  0  0  0  0  0  0  0  0
   -0.0827   -3.3937    2.1078 O   0  0  0  0  0  0  0  0  0  0  0  0
   -1.1977   -2.2076    0.3090 C   0  0  1  0  0  0  0  0  0  0  0  0
   -1.3991   -3.4875   -0.3017 O   0  0  0  0  0  0  0  0  0  0  0  0
   -4.8581    1.5707   -1.3349 C   0  0  0  0  0  0  0  0  0  0  0  0
   -5.9473    2.0466   -1.6479 O   0  0  0  0  0  0  0  0  0  0  0  0
   -3.6592    2.1150   -1.7820 N   0  0  0  0  0  0  0  0  0  0  0  0
    0.0000    0.0000    0.0000 Na  0  0  0  0  0 15  0  0  0  0  0  0
    0.0000    0.0000    0.0000 Na  0  0  0  0  0 15  0  0  0  0  0  0
   -1.3246    3.2277   -1.9269 H   0  0  0  0  0  0  0  0  0  0  0  0
   -0.4498    1.8834   -1.6642 H   0  0  0  0  0  0  0  0  0  0  0  0
   -5.1417   -2.0208    1.5059 H   0  0  0  0  0  0  0  0  0  0  0  0
   -2.8151   -2.6817    1.6697 H   0  0  0  0  0  0  0  0  0  0  0  0
    0.0322   -1.1356    3.1835 H   0  0  0  0  0  0  0  0  0  0  0  0
   -0.0567    1.1155    2.4520 H   0  0  0  0  0  0  0  0  0  0  0  0
   -0.5661    0.7221    0.8490 H   0  0  0  0  0  0  0  0  0  0  0  0
    3.0249   -1.2115   -1.4952 H   0  0  0  0  0  0  0  0  0  0  0  0
    5.8808    2.7105    1.2256 H   0  0  0  0  0  0  0  0  0  0  0  0
    0.9411   -2.1771    0.8341 H   0  0  0  0  0  0  0  0  0  0  0  0
    0.7649   -3.4142    2.5862 H   0  0  0  0  0  0  0  0  0  0  0  0
   -1.0015   -1.4938   -0.4916 H   0  0  0  0  0  0  0  0  0  0  0  0
   -0.5359   -3.7095   -0.6980 H   0  0  0  0  0  0  0  0  0  0  0  0
   -3.7218    2.8933   -2.4129 H   0  0  0  0  0  0  0  0  0  0  0  0
  1  2  1  0
  2  3  2  0
  3  4  1  0
  4  5  2  0
  5  6  1  0
  6  7  2  0
  7  8  1  0
  8  9  1  0
  9 10  1  0
 10 11  1  0
 11 12  1  0
 12 13  1  0
 13 14  1  0
 14 15  2  0
 14 16  1  0
 14 17  1  0
 17 18  1  0
 18 19  2  0
 18 20  1  0
 18 21  1  0
 21 22  1  0
 22 23  2  0
 22 24  1  0
 22 25  1  0
 11 26  1  0
 26 27  1  0
 26 28  1  0
 28 29  1  0
  5 30  1  0
 30 31  2  0
 30 32  1  0
 32  2  1  0
  8  4  1  0
 28  9  1  0
  1 35  1  0
  1 36  1  0
  7 37  1  0
  9 38  1  1
 11 39  1  1
 12 40  1  0
 12 41  1  0
 20 42  1  0
 25 43  1  0
 26 44  1  6
 27 45  1  0
 28 46  1  6
 29 47  1  0
 32 48  1  0
M  CHG  4  16  -1  24  -1  33   1  34   1
M  END
$$$$
