
     RDKit          3D

 59 62  0  0  0  0  0  0  0  0999 V2000
   -5.0786   -1.7219   -2.6822 C   0  0  0  0  0  0  0  0  0  0  0  0
   -5.3739   -1.8453   -1.2305 C   0  0  0  0  0  0  0  0  0  0  0  0
   -5.6197   -3.0619   -0.7185 N   0  0  0  0  0  0  0  0  0  0  0  0
   -5.9290   -2.8276    0.5633 N   0  0  0  0  0  0  0  0  0  0  0  0
   -5.8438   -1.5097    0.9220 C   0  0  0  0  0  0  0  0  0  0  0  0
   -6.1821   -1.0583    2.2920 C   0  0  0  0  0  0  0  0  0  0  0  0
   -5.4604   -0.8394   -0.2316 C   0  0  0  0  0  0  0  0  0  0  0  0
   -5.1820    0.8548   -0.4537 S   0  0  0  0  0  6  0  0  0  0  0  0
   -5.4640    1.0959   -1.8528 O   0  0  0  0  0  0  0  0  0  0  0  0
   -5.9509    1.4979    0.5909 O   0  0  0  0  0  0  0  0  0  0  0  0
   -3.5455    1.1850   -0.1846 N   0  0  0  0  0  0  0  0  0  0  0  0
   -2.5713    0.7140   -1.1982 C   0  0  0  0  0  0  0  0  0  0  0  0
   -1.1625    1.2339   -0.8764 C   0  0  0  0  0  0  0  0  0  0  0  0
   -0.7070    0.8360    0.4608 N   0  0  0  0  0  0  0  0  0  0  0  0
    0.6100    0.8878    0.8930 C   0  0  0  0  0  0  0  0  0  0  0  0
    0.9376    0.5450    2.0286 O   0  0  0  0  0  0  0  0  0  0  0  0
    1.6373    1.3892   -0.1116 C   0  0  0  0  0  0  0  0  0  0  0  0
    3.0403    1.4746    0.4960 C   0  0  0  0  0  0  0  0  0  0  0  0
    4.0812    1.9935   -0.5054 C   0  0  2  0  0  0  0  0  0  0  0  0
    4.2306    1.1733   -1.6884 N   0  0  0  0  0  0  0  0  0  0  0  0
    4.5677   -0.1439   -1.7423 C   0  0  0  0  0  0  0  0  0  0  0  0
    4.2664   -0.7753   -2.7538 O   0  0  0  0  0  0  0  0  0  0  0  0
    5.2809   -0.8103   -0.6226 C   0  0  0  0  0  0  0  0  0  0  0  0
    5.2269   -2.2213   -0.6382 C   0  0  0  0  0  0  0  0  0  0  0  0
    5.9437   -2.9898    0.2788 C   0  0  0  0  0  0  0  0  0  0  0  0
    6.7495   -2.3590    1.2141 C   0  0  0  0  0  0  0  0  0  0  0  0
    6.8180   -0.9641    1.2385 C   0  0  0  0  0  0  0  0  0  0  0  0
    6.0729   -0.1704    0.3426 C   0  0  0  0  0  0  0  0  0  0  0  0
    6.2309    1.2143    0.5226 N   0  0  0  0  0  0  0  0  0  0  0  0
    5.4261    2.2532    0.1608 C   0  0  0  0  0  0  0  0  0  0  0  0
    5.7466    3.3926    0.5164 O   0  0  0  0  0  0  0  0  0  0  0  0
   -1.7519    0.4204    1.4026 C   0  0  0  0  0  0  0  0  0  0  0  0
   -3.0526    1.2146    1.2195 C   0  0  0  0  0  0  0  0  0  0  0  0
   -5.0138   -2.7101   -3.1591 H   0  0  0  0  0  0  0  0  0  0  0  0
   -5.8768   -1.1646   -3.1916 H   0  0  0  0  0  0  0  0  0  0  0  0
   -4.1233   -1.2091   -2.8483 H   0  0  0  0  0  0  0  0  0  0  0  0
   -6.1995   -3.6202    1.1407 H   0  0  0  0  0  0  0  0  0  0  0  0
   -6.4719   -1.8999    2.9306 H   0  0  0  0  0  0  0  0  0  0  0  0
   -7.0203   -0.3569    2.2713 H   0  0  0  0  0  0  0  0  0  0  0  0
   -5.3284   -0.5688    2.7650 H   0  0  0  0  0  0  0  0  0  0  0  0
   -2.5596   -0.3812   -1.2141 H   0  0  0  0  0  0  0  0  0  0  0  0
   -2.8594    1.0788   -2.1887 H   0  0  0  0  0  0  0  0  0  0  0  0
   -1.1536    2.3306   -0.8980 H   0  0  0  0  0  0  0  0  0  0  0  0
   -0.4559    0.8769   -1.6296 H   0  0  0  0  0  0  0  0  0  0  0  0
    1.6484    0.6969   -0.9583 H   0  0  0  0  0  0  0  0  0  0  0  0
    1.3316    2.3806   -0.4622 H   0  0  0  0  0  0  0  0  0  0  0  0
    3.3224    0.4921    0.8906 H   0  0  0  0  0  0  0  0  0  0  0  0
    3.0161    2.1440    1.3657 H   0  0  0  0  0  0  0  0  0  0  0  0
    3.7433    2.9681   -0.8840 H   0  0  0  0  0  0  0  0  0  0  0  0
    3.7375    1.4701   -2.5225 H   0  0  0  0  0  0  0  0  0  0  0  0
    4.6286   -2.7352   -1.3904 H   0  0  0  0  0  0  0  0  0  0  0  0
    5.8885   -4.0759    0.2432 H   0  0  0  0  0  0  0  0  0  0  0  0
    7.3288   -2.9468    1.9249 H   0  0  0  0  0  0  0  0  0  0  0  0
    7.4541   -0.5019    1.9917 H   0  0  0  0  0  0  0  0  0  0  0  0
    6.9892    1.5264    1.1203 H   0  0  0  0  0  0  0  0  0  0  0  0
   -1.4040    0.5208    2.4364 H   0  0  0  0  0  0  0  0  0  0  0  0
   -1.9342   -0.6465    1.2198 H   0  0  0  0  0  0  0  0  0  0  0  0
   -2.8798    2.2662    1.4786 H   0  0  0  0  0  0  0  0  0  0  0  0
   -3.7996    0.8305    1.9165 H   0  0  0  0  0  0  0  0  0  0  0  0
  1  2  1  0
  2  3  2  0
  3  4  1  0
  4  5  1  0
  5  6  1  0
  5  7  2  0
  7  8  1  0
  8  9  2  0
  8 10  2  0
  8 11  1  0
 11 12  1  0
 12 13  1  0
 13 14  1  0
 14 15  1  0
 15 16  2  0
 15 17  1  0
 17 18  1  0
 18 19  1  0
 19 20  1  0
 20 21  1  0
 21 22  2  0
 21 23  1  0
 23 24  2  0
 24 25  1  0
 25 26  2  0
 26 27  1  0
 27 28  2  0
 28 29  1  0
 29 30  1  0
 30 31  2  0
 14 32  1  0
 32 33  1  0
  7  2  1  0
 33 11  1  0
 30 19  1  0
 28 23  1  0
  1 34  1  0
  1 35  1  0
  1 36  1  0
  4 37  1  0
  6 38  1  0
  6 39  1  0
  6 40  1  0
 12 41  1  0
 12 42  1  0
 13 43  1  0
 13 44  1  0
 17 45  1  0
 17 46  1  0
 18 47  1  0
 18 48  1  0
 19 49  1  6
 20 50  1  0
 24 51  1  0
 25 52  1  0
 26 53  1  0
 27 54  1  0
 29 55  1  0
 32 56  1  0
 32 57  1  0
 33 58  1  0
 33 59  1  0
M  END
$$$$
