
     RDKit          3D

 29 29  0  0  0  0  0  0  0  0999 V2000
    2.2155   -0.5725   -1.5238 N   0  0  0  0  0  0  0  0  0  0  0  0
    0.9296    0.1101   -1.5696 C   0  0  0  0  0  0  0  0  0  0  0  0
    0.2087    0.2745   -0.1966 C   0  0  0  0  0  0  0  0  0  0  0  0
    1.1345    1.0022    0.8207 C   0  0  0  0  0  0  0  0  0  0  0  0
    2.3585    0.2405    1.2739 C   0  0  0  0  0  0  0  0  0  0  0  0
    2.4313   -0.9392    1.5771 O   0  0  0  0  0  0  0  0  0  0  0  0
    3.4360    1.0422    1.4051 O   0  0  0  0  0  0  0  0  0  0  0  0
   -1.0311    1.1951   -0.4581 C   0  0  0  0  0  0  0  0  0  0  0  0
   -2.1794    0.9293    0.5097 C   0  0  0  0  0  0  0  0  0  0  0  0
   -2.7179   -0.4926    0.3567 C   0  0  0  0  0  0  0  0  0  0  0  0
   -1.6576   -1.4891   -0.1108 C   0  0  0  0  0  0  0  0  0  0  0  0
   -0.2657   -1.0949    0.3762 C   0  0  0  0  0  0  0  0  0  0  0  0
    2.5499   -0.7367   -2.4728 H   0  0  0  0  0  0  0  0  0  0  0  0
    2.1191   -1.4933   -1.0939 H   0  0  0  0  0  0  0  0  0  0  0  0
    1.0987    1.1002   -2.0106 H   0  0  0  0  0  0  0  0  0  0  0  0
    0.2771   -0.4342   -2.2630 H   0  0  0  0  0  0  0  0  0  0  0  0
    1.4708    1.9485    0.3760 H   0  0  0  0  0  0  0  0  0  0  0  0
    0.5783    1.2631    1.7294 H   0  0  0  0  0  0  0  0  0  0  0  0
    4.1473    0.4246    1.6724 H   0  0  0  0  0  0  0  0  0  0  0  0
   -0.7412    2.2518   -0.4019 H   0  0  0  0  0  0  0  0  0  0  0  0
   -1.4092    1.0436   -1.4784 H   0  0  0  0  0  0  0  0  0  0  0  0
   -1.8378    1.0850    1.5400 H   0  0  0  0  0  0  0  0  0  0  0  0
   -2.9905    1.6467    0.3407 H   0  0  0  0  0  0  0  0  0  0  0  0
   -3.1369   -0.8159    1.3174 H   0  0  0  0  0  0  0  0  0  0  0  0
   -3.5496   -0.5024   -0.3581 H   0  0  0  0  0  0  0  0  0  0  0  0
   -1.9150   -2.4907    0.2523 H   0  0  0  0  0  0  0  0  0  0  0  0
   -1.6617   -1.5461   -1.2060 H   0  0  0  0  0  0  0  0  0  0  0  0
   -0.2962   -1.0525    1.4732 H   0  0  0  0  0  0  0  0  0  0  0  0
    0.4345   -1.8973    0.1230 H   0  0  0  0  0  0  0  0  0  0  0  0
  1  2  1  0
  2  3  1  0
  3  4  1  0
  4  5  1  0
  5  6  2  0
  5  7  1  0
  3  8  1  0
  8  9  1  0
  9 10  1  0
 10 11  1  0
 11 12  1  0
 12  3  1  0
  1 13  1  0
  1 14  1  0
  2 15  1  0
  2 16  1  0
  4 17  1  0
  4 18  1  0
  7 19  1  0
  8 20  1  0
  8 21  1  0
  9 22  1  0
  9 23  1  0
 10 24  1  0
 10 25  1  0
 11 26  1  0
 11 27  1  0
 12 28  1  0
 12 29  1  0
M  END
$$$$
