
     RDKit          3D

 60 63  0  0  0  0  0  0  0  0999 V2000
   -2.1713   -0.9053   -1.3814 C   0  0  0  0  0  0  0  0  0  0  0  0
   -3.4954   -1.1477   -0.6616 C   0  0  0  0  0  0  0  0  0  0  0  0
   -3.9915    0.0303    0.0708 N   0  0  0  0  0  0  0  0  0  0  0  0
   -3.0773    0.5273    1.1113 C   0  0  0  0  0  0  0  0  0  0  0  0
   -2.7311   -0.4465    2.2474 C   0  0  0  0  0  0  0  0  0  0  0  0
   -1.8109    0.1980    3.2869 C   0  0  0  0  0  0  0  0  0  0  0  0
   -0.4920    0.4943    2.7656 N   0  0  0  0  0  0  0  0  0  0  0  0
    0.4739   -0.4939    2.6389 C   0  0  0  0  0  0  0  0  0  0  0  0
    0.2709   -1.6430    3.0267 O   0  0  0  0  0  0  0  0  0  0  0  0
    1.7366   -0.0608    1.9987 C   0  0  0  0  0  0  0  0  0  0  0  0
    2.1519    1.2764    1.6443 C   0  0  0  0  0  0  0  0  0  0  0  0
    3.3965    1.1180    1.1035 C   0  0  0  0  0  0  0  0  0  0  0  0
    3.6458   -0.2037    1.1322 N   0  0  0  0  0  0  0  0  0  0  0  0
    2.7038   -0.9555    1.6777 N   0  0  0  0  0  0  0  0  0  0  0  0
    4.9488   -0.6085    0.6547 C   0  0  0  0  0  0  0  0  0  0  0  0
    5.6121    0.7463    0.2953 C   0  0  1  0  0  0  0  0  0  0  0  0
    5.9827    0.7923   -1.0912 O   0  0  0  0  0  0  0  0  0  0  0  0
    7.1472    0.1882   -1.4704 C   0  0  0  0  0  0  0  0  0  0  0  0
    7.4522    0.2892   -2.8277 C   0  0  0  0  0  0  0  0  0  0  0  0
    8.6101   -0.3029   -3.3293 C   0  0  0  0  0  0  0  0  0  0  0  0
    9.4315   -0.9849   -2.4461 C   0  0  0  0  0  0  0  0  0  0  0  0
    9.1751   -1.1016   -1.1246 N   0  0  0  0  0  0  0  0  0  0  0  0
    8.0419   -0.5119   -0.6682 C   0  0  0  0  0  0  0  0  0  0  0  0
    4.5329    1.8610    0.5400 C   0  0  0  0  0  0  0  0  0  0  0  0
   -5.3479   -0.2052    0.6028 C   0  0  0  0  0  0  0  0  0  0  0  0
   -6.4220   -0.1943   -0.4672 C   0  0  0  0  0  0  0  0  0  0  0  0
   -6.5168    0.8731   -1.3735 C   0  0  0  0  0  0  0  0  0  0  0  0
   -7.5198    0.8967   -2.3437 C   0  0  0  0  0  0  0  0  0  0  0  0
   -8.4451   -0.1427   -2.4142 C   0  0  0  0  0  0  0  0  0  0  0  0
   -8.3682   -1.2048   -1.5150 C   0  0  0  0  0  0  0  0  0  0  0  0
   -7.3639   -1.2305   -0.5441 C   0  0  0  0  0  0  0  0  0  0  0  0
   -1.3408   -0.7740   -0.6800 H   0  0  0  0  0  0  0  0  0  0  0  0
   -2.2298   -0.0217   -2.0259 H   0  0  0  0  0  0  0  0  0  0  0  0
   -1.9300   -1.7656   -2.0155 H   0  0  0  0  0  0  0  0  0  0  0  0
   -3.3986   -2.0178   -0.0010 H   0  0  0  0  0  0  0  0  0  0  0  0
   -4.2207   -1.4274   -1.4360 H   0  0  0  0  0  0  0  0  0  0  0  0
   -2.1554    0.8765    0.6312 H   0  0  0  0  0  0  0  0  0  0  0  0
   -3.5121    1.4381    1.5453 H   0  0  0  0  0  0  0  0  0  0  0  0
   -3.6490   -0.7637    2.7561 H   0  0  0  0  0  0  0  0  0  0  0  0
   -2.2531   -1.3468    1.8468 H   0  0  0  0  0  0  0  0  0  0  0  0
   -1.7025   -0.4760    4.1443 H   0  0  0  0  0  0  0  0  0  0  0  0
   -2.2365    1.1382    3.6537 H   0  0  0  0  0  0  0  0  0  0  0  0
   -0.3425    1.3861    2.3185 H   0  0  0  0  0  0  0  0  0  0  0  0
    1.6215    2.2048    1.7929 H   0  0  0  0  0  0  0  0  0  0  0  0
    4.8129   -1.2776   -0.2001 H   0  0  0  0  0  0  0  0  0  0  0  0
    5.4652   -1.1117    1.4776 H   0  0  0  0  0  0  0  0  0  0  0  0
    6.4764    0.9657    0.9389 H   0  0  0  0  0  0  0  0  0  0  0  0
    6.7850    0.8272   -3.4979 H   0  0  0  0  0  0  0  0  0  0  0  0
    8.8612   -0.2364   -4.3830 H   0  0  0  0  0  0  0  0  0  0  0  0
   10.3391   -1.4731   -2.7901 H   0  0  0  0  0  0  0  0  0  0  0  0
    7.8970   -0.6438    0.3986 H   0  0  0  0  0  0  0  0  0  0  0  0
    4.2579    2.3760   -0.3874 H   0  0  0  0  0  0  0  0  0  0  0  0
    4.9064    2.6004    1.2581 H   0  0  0  0  0  0  0  0  0  0  0  0
   -5.6230    0.5900    1.3095 H   0  0  0  0  0  0  0  0  0  0  0  0
   -5.3810   -1.1453    1.1683 H   0  0  0  0  0  0  0  0  0  0  0  0
   -5.7954    1.6868   -1.3277 H   0  0  0  0  0  0  0  0  0  0  0  0
   -7.5754    1.7249   -3.0442 H   0  0  0  0  0  0  0  0  0  0  0  0
   -9.2259   -0.1251   -3.1700 H   0  0  0  0  0  0  0  0  0  0  0  0
   -9.0913   -2.0149   -1.5698 H   0  0  0  0  0  0  0  0  0  0  0  0
   -7.3205   -2.0660    0.1501 H   0  0  0  0  0  0  0  0  0  0  0  0
  1  2  1  0
  2  3  1  0
  3  4  1  0
  4  5  1  0
  5  6  1  0
  6  7  1  0
  7  8  1  0
  8  9  2  0
  8 10  1  0
 10 11  1  0
 11 12  2  0
 12 13  1  0
 13 14  1  0
 13 15  1  0
 15 16  1  0
 16 17  1  0
 17 18  1  0
 18 19  2  0
 19 20  1  0
 20 21  2  0
 21 22  1  0
 22 23  2  0
 16 24  1  0
  3 25  1  0
 25 26  1  0
 26 27  2  0
 27 28  1  0
 28 29  2  0
 29 30  1  0
 30 31  2  0
 14 10  2  0
 23 18  1  0
 31 26  1  0
 24 12  1  0
  1 32  1  0
  1 33  1  0
  1 34  1  0
  2 35  1  0
  2 36  1  0
  4 37  1  0
  4 38  1  0
  5 39  1  0
  5 40  1  0
  6 41  1  0
  6 42  1  0
  7 43  1  0
 11 44  1  0
 15 45  1  0
 15 46  1  0
 16 47  1  1
 19 48  1  0
 20 49  1  0
 21 50  1  0
 23 51  1  0
 24 52  1  0
 24 53  1  0
 25 54  1  0
 25 55  1  0
 27 56  1  0
 28 57  1  0
 29 58  1  0
 30 59  1  0
 31 60  1  0
M  END
$$$$
