
     RDKit          3D

 43 44  0  0  0  0  0  0  0  0999 V2000
    7.7492    0.0566   -2.2134 C   0  0  0  0  0  0  0  0  0  0  0  0
    6.3235    0.1398   -1.7252 C   0  0  0  0  0  0  0  0  0  0  0  0
    5.5642    0.9899   -2.1766 O   0  0  0  0  0  0  0  0  0  0  0  0
    6.0293   -0.8302   -0.7964 N   0  0  0  0  0  0  0  0  0  0  0  0
    4.8318   -1.0291   -0.1594 C   0  0  0  0  0  0  0  0  0  0  0  0
    4.6762   -2.0226    0.6833 N   0  0  0  0  0  0  0  0  0  0  0  0
    3.3835   -2.0096    1.1922 C   0  0  0  0  0  0  0  0  0  0  0  0
    2.9946   -3.0502    2.1796 C   0  0  0  0  0  0  0  0  0  0  0  0
    2.5824   -0.9949    0.7006 C   0  0  0  0  0  0  0  0  0  0  0  0
    0.9123   -0.5200    0.9985 S   0  0  0  0  0  6  0  0  0  0  0  0
    0.2385   -1.7504    1.3524 O   0  0  0  0  0  0  0  0  0  0  0  0
    1.0111    0.5953    1.9152 O   0  0  0  0  0  0  0  0  0  0  0  0
    0.2700    0.0753   -0.4664 N   0  0  0  0  0  0  0  0  0  0  0  0
   -1.1329    0.3481   -0.4149 C   0  0  0  0  0  0  0  0  0  0  0  0
   -2.0413   -0.6807   -0.6351 C   0  0  0  0  0  0  0  0  0  0  0  0
   -3.4124   -0.4322   -0.5348 C   0  0  0  0  0  0  0  0  0  0  0  0
   -3.9055    0.8455   -0.1962 C   0  0  0  0  0  0  0  0  0  0  0  0
   -5.4273    1.0581   -0.0943 C   0  0  0  0  0  0  0  0  0  0  0  0
   -5.9830    0.4637   -1.3138 O   0  0  0  0  0  0  0  0  0  0  0  0
   -6.0013    0.3951    1.1661 C   0  0  0  0  0  0  0  0  0  0  0  0
   -7.3461    0.5237    1.2515 F   0  0  0  0  0  0  0  0  0  0  0  0
   -5.7441   -0.9369    1.1991 F   0  0  0  0  0  0  0  0  0  0  0  0
   -5.4795    0.9198    2.3001 F   0  0  0  0  0  0  0  0  0  0  0  0
   -5.8887    2.5176    0.0108 C   0  0  0  0  0  0  0  0  0  0  0  0
   -5.4305    3.2256   -1.0582 F   0  0  0  0  0  0  0  0  0  0  0  0
   -7.2349    2.6423   -0.0121 F   0  0  0  0  0  0  0  0  0  0  0  0
   -5.4438    3.1485    1.1177 F   0  0  0  0  0  0  0  0  0  0  0  0
   -2.9650    1.8628    0.0431 C   0  0  0  0  0  0  0  0  0  0  0  0
   -1.5903    1.6142   -0.0605 C   0  0  0  0  0  0  0  0  0  0  0  0
    3.4782   -0.0276   -0.3884 S   0  0  0  0  0  0  0  0  0  0  0  0
    7.7695   -0.4727   -3.1695 H   0  0  0  0  0  0  0  0  0  0  0  0
    8.1436    1.0679   -2.3432 H   0  0  0  0  0  0  0  0  0  0  0  0
    8.3916   -0.4662   -1.4994 H   0  0  0  0  0  0  0  0  0  0  0  0
    6.7292   -1.5113   -0.5355 H   0  0  0  0  0  0  0  0  0  0  0  0
    2.3710   -3.8123    1.7033 H   0  0  0  0  0  0  0  0  0  0  0  0
    3.8808   -3.5428    2.5920 H   0  0  0  0  0  0  0  0  0  0  0  0
    2.4396   -2.6097    3.0145 H   0  0  0  0  0  0  0  0  0  0  0  0
    0.8147    0.8962   -0.7369 H   0  0  0  0  0  0  0  0  0  0  0  0
   -1.6916   -1.6817   -0.8799 H   0  0  0  0  0  0  0  0  0  0  0  0
   -4.0999   -1.2599   -0.7174 H   0  0  0  0  0  0  0  0  0  0  0  0
   -5.6153    0.9666   -2.0660 H   0  0  0  0  0  0  0  0  0  0  0  0
   -3.2622    2.8708    0.3281 H   0  0  0  0  0  0  0  0  0  0  0  0
   -0.8893    2.4173    0.1550 H   0  0  0  0  0  0  0  0  0  0  0  0
  1  2  1  0
  2  3  2  0
  2  4  1  0
  4  5  1  0
  5  6  2  0
  6  7  1  0
  7  8  1  0
  7  9  2  0
  9 10  1  0
 10 11  2  0
 10 12  2  0
 10 13  1  0
 13 14  1  0
 14 15  2  0
 15 16  1  0
 16 17  2  0
 17 18  1  0
 18 19  1  0
 18 20  1  0
 20 21  1  0
 20 22  1  0
 20 23  1  0
 18 24  1  0
 24 25  1  0
 24 26  1  0
 24 27  1  0
 17 28  1  0
 28 29  2  0
  9 30  1  0
 30  5  1  0
 29 14  1  0
  1 31  1  0
  1 32  1  0
  1 33  1  0
  4 34  1  0
  8 35  1  0
  8 36  1  0
  8 37  1  0
 13 38  1  0
 15 39  1  0
 16 40  1  0
 19 41  1  0
 28 42  1  0
 29 43  1  0
M  END
$$$$
