
     RDKit          3D

 52 57  0  0  0  0  0  0  0  0999 V2000
   -2.7375   -5.5639   -1.3694 C   0  0  0  0  0  0  0  0  0  0  0  0
   -3.8473   -4.7441   -1.3877 C   0  0  0  0  0  0  0  0  0  0  0  0
   -3.3736   -3.4980   -1.0816 N   0  0  0  0  0  0  0  0  0  0  0  0
   -3.9930   -2.2758   -0.9461 C   0  0  0  0  0  0  0  0  0  0  0  0
   -3.2297   -1.2098   -0.6296 C   0  0  0  0  0  0  0  0  0  0  0  0
   -3.8547    0.1234   -0.4477 C   0  0  0  0  0  0  0  0  0  0  0  0
   -4.8230    0.6121   -1.3409 C   0  0  0  0  0  0  0  0  0  0  0  0
   -5.4061    1.8784   -1.1730 C   0  0  0  0  0  0  0  0  0  0  0  0
   -4.9986    2.6710   -0.0883 C   0  0  0  0  0  0  0  0  0  0  0  0
   -5.3160    3.9501    0.4198 C   0  0  0  0  0  0  0  0  0  0  0  0
   -4.6180    4.2590    1.5163 N   0  0  0  0  0  0  0  0  0  0  0  0
   -3.8449    3.1741    1.7080 N   0  0  0  0  0  0  0  0  0  0  0  0
   -4.0307    2.1839    0.7800 C   0  0  0  0  0  0  0  0  0  0  0  0
   -3.4369    0.9258    0.6304 C   0  0  0  0  0  0  0  0  0  0  0  0
   -1.8584   -1.2989   -0.4191 N   0  0  0  0  0  0  0  0  0  0  0  0
   -1.2358   -2.4478   -0.5450 C   0  0  0  0  0  0  0  0  0  0  0  0
    0.1206   -2.6201   -0.3504 N   0  0  0  0  0  0  0  0  0  0  0  0
    1.1449   -1.6849   -0.1494 C   0  0  0  0  0  0  0  0  0  0  0  0
    2.4243   -2.1540    0.1692 C   0  0  0  0  0  0  0  0  0  0  0  0
    3.4913   -1.2739    0.4118 C   0  0  0  0  0  0  0  0  0  0  0  0
    3.3351    0.1164    0.3563 C   0  0  0  0  0  0  0  0  0  0  0  0
    4.3859    0.9812    0.5959 N   0  0  0  0  0  0  0  0  0  0  0  0
    4.1757    2.4048    0.9031 C   0  0  0  0  0  0  0  0  0  0  0  0
    5.3809    2.9578    1.6831 C   0  0  0  0  0  0  0  0  0  0  0  0
    6.6307    2.8489    0.9872 O   0  0  0  0  0  0  0  0  0  0  0  0
    6.6703    1.7522    0.0637 C   0  0  0  0  0  0  0  0  0  0  0  0
    5.7899    0.5574    0.4690 C   0  0  0  0  0  0  0  0  0  0  0  0
    2.0467    0.5735    0.0518 C   0  0  0  0  0  0  0  0  0  0  0  0
    0.9750   -0.3036   -0.1917 C   0  0  0  0  0  0  0  0  0  0  0  0
   -2.0261   -3.6207   -0.8946 C   0  0  0  0  0  0  0  0  0  0  0  0
   -1.5992   -4.8568   -1.0593 N   0  0  0  0  0  0  0  0  0  0  0  0
   -2.7002   -6.6289   -1.5630 H   0  0  0  0  0  0  0  0  0  0  0  0
   -4.8915   -4.9379   -1.5851 H   0  0  0  0  0  0  0  0  0  0  0  0
   -5.0645   -2.2429   -1.0897 H   0  0  0  0  0  0  0  0  0  0  0  0
   -5.1280    0.0176   -2.1995 H   0  0  0  0  0  0  0  0  0  0  0  0
   -6.1510    2.2379   -1.8766 H   0  0  0  0  0  0  0  0  0  0  0  0
   -6.0277    4.6674    0.0327 H   0  0  0  0  0  0  0  0  0  0  0  0
   -3.2072    3.1697    2.4957 H   0  0  0  0  0  0  0  0  0  0  0  0
   -2.6757    0.5771    1.3232 H   0  0  0  0  0  0  0  0  0  0  0  0
    0.4296   -3.5796   -0.4721 H   0  0  0  0  0  0  0  0  0  0  0  0
    2.6140   -3.2223    0.2436 H   0  0  0  0  0  0  0  0  0  0  0  0
    4.4502   -1.7116    0.6745 H   0  0  0  0  0  0  0  0  0  0  0  0
    3.2819    2.5485    1.5208 H   0  0  0  0  0  0  0  0  0  0  0  0
    4.0519    2.9587   -0.0347 H   0  0  0  0  0  0  0  0  0  0  0  0
    5.4887    2.4283    2.6372 H   0  0  0  0  0  0  0  0  0  0  0  0
    5.2254    4.0164    1.9143 H   0  0  0  0  0  0  0  0  0  0  0  0
    6.3615    2.1346   -0.9165 H   0  0  0  0  0  0  0  0  0  0  0  0
    7.7146    1.4360   -0.0253 H   0  0  0  0  0  0  0  0  0  0  0  0
    6.1260    0.1558    1.4320 H   0  0  0  0  0  0  0  0  0  0  0  0
    5.9064   -0.2177   -0.2970 H   0  0  0  0  0  0  0  0  0  0  0  0
    1.8408    1.6371   -0.0293 H   0  0  0  0  0  0  0  0  0  0  0  0
    0.0133    0.1381   -0.4335 H   0  0  0  0  0  0  0  0  0  0  0  0
  1  2  2  0
  2  3  1  0
  3  4  1  0
  4  5  2  0
  5  6  1  0
  6  7  2  0
  7  8  1  0
  8  9  2  0
  9 10  1  0
 10 11  2  0
 11 12  1  0
 12 13  1  0
 13 14  2  0
  5 15  1  0
 15 16  2  0
 16 17  1  0
 17 18  1  0
 18 19  2  0
 19 20  1  0
 20 21  2  0
 21 22  1  0
 22 23  1  0
 23 24  1  0
 24 25  1  0
 25 26  1  0
 26 27  1  0
 21 28  1  0
 28 29  2  0
 16 30  1  0
 30 31  2  0
 31  1  1  0
 30  3  1  0
 14  6  1  0
 29 18  1  0
 13  9  1  0
 27 22  1  0
  1 32  1  0
  2 33  1  0
  4 34  1  0
  7 35  1  0
  8 36  1  0
 10 37  1  0
 12 38  1  0
 14 39  1  0
 17 40  1  0
 19 41  1  0
 20 42  1  0
 23 43  1  0
 23 44  1  0
 24 45  1  0
 24 46  1  0
 26 47  1  0
 26 48  1  0
 27 49  1  0
 27 50  1  0
 28 51  1  0
 29 52  1  0
M  END
$$$$
