
     RDKit          3D

 50 53  0  0  0  0  0  0  0  0999 V2000
    4.4491   -1.1725   -2.1700 C   0  0  0  0  0  0  0  0  0  0  0  0
    3.7271   -0.3008   -1.3087 O   0  0  0  0  0  0  0  0  0  0  0  0
    4.4693    0.4587   -0.4326 C   0  0  0  0  0  0  0  0  0  0  0  0
    5.8541    0.6341   -0.5043 C   0  0  0  0  0  0  0  0  0  0  0  0
    6.5065    1.4358    0.4345 C   0  0  0  0  0  0  0  0  0  0  0  0
    5.7800    2.0654    1.4426 C   0  0  0  0  0  0  0  0  0  0  0  0
    4.3955    1.9005    1.5187 C   0  0  0  0  0  0  0  0  0  0  0  0
    3.7328    1.1017    0.5857 C   0  0  0  0  0  0  0  0  0  0  0  0
    2.3416    0.8846    0.5945 N   0  0  0  0  0  0  0  0  0  0  0  0
    1.3949    1.3248    1.4933 C   0  0  0  0  0  0  0  0  0  0  0  0
    1.5924    2.0471    2.4672 O   0  0  0  0  0  0  0  0  0  0  0  0
   -0.0223    0.8917    1.1297 C   0  0  0  0  0  0  0  0  0  0  0  0
   -0.0523   -0.1777    0.0866 N   0  0  0  0  0  0  0  0  0  0  0  0
   -1.1584   -0.0360   -0.8599 C   0  0  0  0  0  0  0  0  0  0  0  0
   -2.4597   -0.1613   -0.2066 N   0  0  0  0  0  0  0  0  0  0  0  0
   -3.4935    0.4624   -0.9598 C   0  0  0  0  0  0  0  0  0  0  0  0
   -4.5421   -0.2782   -1.5334 C   0  0  0  0  0  0  0  0  0  0  0  0
   -5.5460    0.3430   -2.2848 C   0  0  0  0  0  0  0  0  0  0  0  0
   -5.5196    1.7212   -2.4721 C   0  0  0  0  0  0  0  0  0  0  0  0
   -4.4941    2.4629   -1.9024 C   0  0  0  0  0  0  0  0  0  0  0  0
   -4.4682    3.7913   -2.0739 F   0  0  0  0  0  0  0  0  0  0  0  0
   -3.4903    1.8523   -1.1548 C   0  0  0  0  0  0  0  0  0  0  0  0
   -2.6540   -1.2345    0.6874 C   0  0  0  0  0  0  0  0  0  0  0  0
   -3.9158   -1.4459    1.1506 N   0  0  0  0  0  0  0  0  0  0  0  0
   -4.1483   -2.4178    2.0643 C   0  0  0  0  0  0  0  0  0  0  0  0
   -3.1633   -3.2307    2.5841 C   0  0  0  0  0  0  0  0  0  0  0  0
   -1.8692   -3.0295    2.1362 C   0  0  0  0  0  0  0  0  0  0  0  0
   -1.6297   -2.0303    1.1854 C   0  0  0  0  0  0  0  0  0  0  0  0
    0.0039   -1.7625    0.6454 S   0  0  0  0  0  6  0  0  0  0  0  0
    0.2197   -2.6261   -0.4948 O   0  0  0  0  0  0  0  0  0  0  0  0
    0.8798   -1.7979    1.7945 O   0  0  0  0  0  0  0  0  0  0  0  0
    5.1042   -1.8425   -1.6030 H   0  0  0  0  0  0  0  0  0  0  0  0
    5.0130   -0.6045   -2.9168 H   0  0  0  0  0  0  0  0  0  0  0  0
    3.7215   -1.7917   -2.7034 H   0  0  0  0  0  0  0  0  0  0  0  0
    6.4521    0.1678   -1.2795 H   0  0  0  0  0  0  0  0  0  0  0  0
    7.5839    1.5706    0.3790 H   0  0  0  0  0  0  0  0  0  0  0  0
    6.2888    2.6882    2.1742 H   0  0  0  0  0  0  0  0  0  0  0  0
    3.8612    2.4056    2.3168 H   0  0  0  0  0  0  0  0  0  0  0  0
    2.0102    0.2583   -0.1363 H   0  0  0  0  0  0  0  0  0  0  0  0
   -0.5352    1.7893    0.7644 H   0  0  0  0  0  0  0  0  0  0  0  0
   -0.5333    0.5657    2.0419 H   0  0  0  0  0  0  0  0  0  0  0  0
   -1.0299    0.9385   -1.3504 H   0  0  0  0  0  0  0  0  0  0  0  0
   -1.0686   -0.7657   -1.6763 H   0  0  0  0  0  0  0  0  0  0  0  0
   -4.5865   -1.3574   -1.4005 H   0  0  0  0  0  0  0  0  0  0  0  0
   -6.3469   -0.2524   -2.7155 H   0  0  0  0  0  0  0  0  0  0  0  0
   -6.2918    2.2205   -3.0482 H   0  0  0  0  0  0  0  0  0  0  0  0
   -2.7278    2.4818   -0.7077 H   0  0  0  0  0  0  0  0  0  0  0  0
   -5.1844   -2.5182    2.3763 H   0  0  0  0  0  0  0  0  0  0  0  0
   -3.3966   -3.9924    3.3196 H   0  0  0  0  0  0  0  0  0  0  0  0
   -1.0541   -3.6375    2.5225 H   0  0  0  0  0  0  0  0  0  0  0  0
  1  2  1  0
  2  3  1  0
  3  4  2  0
  4  5  1  0
  5  6  2  0
  6  7  1  0
  7  8  2  0
  8  9  1  0
  9 10  1  0
 10 11  2  0
 10 12  1  0
 12 13  1  0
 13 14  1  0
 14 15  1  0
 15 16  1  0
 16 17  2  0
 17 18  1  0
 18 19  2  0
 19 20  1  0
 20 21  1  0
 20 22  2  0
 15 23  1  0
 23 24  2  0
 24 25  1  0
 25 26  2  0
 26 27  1  0
 27 28  2  0
 28 29  1  0
 29 30  2  0
 29 31  2  0
  8  3  1  0
 29 13  1  0
 22 16  1  0
 28 23  1  0
  1 32  1  0
  1 33  1  0
  1 34  1  0
  4 35  1  0
  5 36  1  0
  6 37  1  0
  7 38  1  0
  9 39  1  0
 12 40  1  0
 12 41  1  0
 14 42  1  0
 14 43  1  0
 17 44  1  0
 18 45  1  0
 19 46  1  0
 22 47  1  0
 25 48  1  0
 26 49  1  0
 27 50  1  0
M  END
$$$$
