
     RDKit          3D

 41 44  0  0  0  0  0  0  0  0999 V2000
   -1.7686   -2.3181    1.5572 O   0  0  0  0  0  0  0  0  0  0  0  0
   -1.4185   -1.3608    0.8805 C   0  0  0  0  0  0  0  0  0  0  0  0
   -2.2402   -0.3069    0.5620 N   0  0  0  0  0  0  0  0  0  0  0  0
   -3.5722   -0.2090    1.1102 C   0  0  0  0  0  0  0  0  0  0  0  0
   -4.3022    0.8713    0.4042 C   0  0  0  0  0  0  0  0  0  0  0  0
   -5.5003    0.9154   -0.2784 C   0  0  0  0  0  0  0  0  0  0  0  0
   -5.6526    2.2470   -0.7344 C   0  0  0  0  0  0  0  0  0  0  0  0
   -4.5400    2.9301   -0.3037 C   0  0  0  0  0  0  0  0  0  0  0  0
   -3.7117    2.1044    0.3861 O   0  0  0  0  0  0  0  0  0  0  0  0
   -0.0387   -1.2647    0.3467 C   0  0  0  0  0  0  0  0  0  0  0  0
    0.6800   -0.0983    0.6231 C   0  0  0  0  0  0  0  0  0  0  0  0
    1.9720    0.0168    0.1392 C   0  0  0  0  0  0  0  0  0  0  0  0
    2.8192    1.2060    0.3743 C   0  0  0  0  0  0  0  0  0  0  0  0
    4.2187    1.0819    0.4656 C   0  0  0  0  0  0  0  0  0  0  0  0
    5.0393    2.1907    0.6937 C   0  0  0  0  0  0  0  0  0  0  0  0
    4.4771    3.4554    0.8313 C   0  0  0  0  0  0  0  0  0  0  0  0
    3.0976    3.6111    0.7362 C   0  0  0  0  0  0  0  0  0  0  0  0
    2.2789    2.4992    0.5083 C   0  0  0  0  0  0  0  0  0  0  0  0
    2.5438   -0.9803   -0.5796 N   0  0  0  0  0  0  0  0  0  0  0  0
    1.8566   -2.1064   -0.8370 C   0  0  0  0  0  0  0  0  0  0  0  0
    2.4814   -3.1000   -1.5794 C   0  0  0  0  0  0  0  0  0  0  0  0
    1.8413   -4.2991   -1.8998 C   0  0  0  0  0  0  0  0  0  0  0  0
    0.5409   -4.5178   -1.4708 C   0  0  0  0  0  0  0  0  0  0  0  0
   -0.1083   -3.5357   -0.7250 C   0  0  0  0  0  0  0  0  0  0  0  0
    0.5389   -2.3175   -0.3941 C   0  0  0  0  0  0  0  0  0  0  0  0
   -1.8957    0.4827    0.0305 H   0  0  0  0  0  0  0  0  0  0  0  0
   -3.4872    0.0154    2.1785 H   0  0  0  0  0  0  0  0  0  0  0  0
   -4.0796   -1.1731    0.9995 H   0  0  0  0  0  0  0  0  0  0  0  0
   -6.1787    0.0867   -0.4281 H   0  0  0  0  0  0  0  0  0  0  0  0
   -6.4720    2.6592   -1.3063 H   0  0  0  0  0  0  0  0  0  0  0  0
   -4.2060    3.9539   -0.4007 H   0  0  0  0  0  0  0  0  0  0  0  0
    0.2426    0.6817    1.2370 H   0  0  0  0  0  0  0  0  0  0  0  0
    4.6819    0.1016    0.3597 H   0  0  0  0  0  0  0  0  0  0  0  0
    6.1163    2.0611    0.7609 H   0  0  0  0  0  0  0  0  0  0  0  0
    5.1137    4.3186    1.0065 H   0  0  0  0  0  0  0  0  0  0  0  0
    2.6556    4.5995    0.8333 H   0  0  0  0  0  0  0  0  0  0  0  0
    1.2082    2.6665    0.4189 H   0  0  0  0  0  0  0  0  0  0  0  0
    3.5013   -2.9348   -1.9206 H   0  0  0  0  0  0  0  0  0  0  0  0
    2.3626   -5.0550   -2.4812 H   0  0  0  0  0  0  0  0  0  0  0  0
    0.0315   -5.4477   -1.7099 H   0  0  0  0  0  0  0  0  0  0  0  0
   -1.1271   -3.7309   -0.3945 H   0  0  0  0  0  0  0  0  0  0  0  0
  1  2  2  0
  2  3  1  0
  3  4  1  0
  4  5  1  0
  5  6  2  0
  6  7  1  0
  7  8  2  0
  8  9  1  0
  2 10  1  0
 10 11  2  0
 11 12  1  0
 12 13  1  0
 13 14  2  0
 14 15  1  0
 15 16  2  0
 16 17  1  0
 17 18  2  0
 12 19  2  0
 19 20  1  0
 20 21  2  0
 21 22  1  0
 22 23  2  0
 23 24  1  0
 24 25  2  0
  9  5  1  0
 25 10  1  0
 18 13  1  0
 25 20  1  0
  3 26  1  0
  4 27  1  0
  4 28  1  0
  6 29  1  0
  7 30  1  0
  8 31  1  0
 11 32  1  0
 14 33  1  0
 15 34  1  0
 16 35  1  0
 17 36  1  0
 18 37  1  0
 21 38  1  0
 22 39  1  0
 23 40  1  0
 24 41  1  0
M  END
$$$$
