
     RDKit          3D

 51 53  0  0  0  0  0  0  0  0999 V2000
   -5.9831    2.6711   -1.8645 C   0  0  0  0  0  0  0  0  0  0  0  0
   -5.2683    1.3917   -1.4627 C   0  0  0  0  0  0  0  0  0  0  0  0
   -4.8259    1.4336   -0.0011 C   0  0  0  0  0  0  0  0  0  0  0  0
   -4.1321    0.2078    0.3845 N   0  0  0  0  0  0  0  0  0  0  0  0
   -2.7772    0.1865    0.1579 N   0  0  0  0  0  0  0  0  0  0  0  0
   -2.1128   -0.9024    0.4202 C   0  0  0  0  0  0  0  0  0  0  0  0
   -0.6133   -0.8381    0.1367 C   0  0  0  0  0  0  0  0  0  0  0  0
   -0.0296   -1.7656   -0.3987 O   0  0  0  0  0  0  0  0  0  0  0  0
   -0.0422    0.3565    0.5191 N   0  0  0  0  0  0  0  0  0  0  0  0
    1.3227    0.6880    0.1686 C   0  0  0  0  0  0  0  0  0  0  0  0
    2.3439   -0.0359    1.0492 C   0  0  0  0  0  0  0  0  0  0  0  0
    3.7608    0.3183    0.6674 C   0  0  0  0  0  0  0  0  0  0  0  0
    4.4291   -0.4213   -0.3201 C   0  0  0  0  0  0  0  0  0  0  0  0
    5.7358   -0.0955   -0.6860 C   0  0  0  0  0  0  0  0  0  0  0  0
    6.3714    0.9842   -0.0696 C   0  0  0  0  0  0  0  0  0  0  0  0
    8.0340    1.4031   -0.5199 S   0  0  0  0  0  6  0  0  0  0  0  0
    7.7744    2.5583   -1.7186 N   0  0  0  0  0  0  0  0  0  0  0  0
    8.6624    2.0599    0.6011 O   0  0  0  0  0  0  0  0  0  0  0  0
    8.6285    0.2715   -1.1932 O   0  0  0  0  0  0  0  0  0  0  0  0
    5.7216    1.7275    0.9190 C   0  0  0  0  0  0  0  0  0  0  0  0
    4.4154    1.3958    1.2815 C   0  0  0  0  0  0  0  0  0  0  0  0
   -2.7227   -2.1211    0.9755 C   0  0  0  0  0  0  0  0  0  0  0  0
   -1.9932   -3.2648    1.3234 C   0  0  0  0  0  0  0  0  0  0  0  0
   -2.6498   -4.3821    1.8476 C   0  0  0  0  0  0  0  0  0  0  0  0
   -4.0308   -4.3620    2.0316 C   0  0  0  0  0  0  0  0  0  0  0  0
   -4.7583   -3.2213    1.6956 C   0  0  0  0  0  0  0  0  0  0  0  0
   -4.1004   -2.1000    1.1710 C   0  0  0  0  0  0  0  0  0  0  0  0
   -4.8680   -0.8854    0.8371 C   0  0  0  0  0  0  0  0  0  0  0  0
   -6.0884   -0.8832    0.9778 O   0  0  0  0  0  0  0  0  0  0  0  0
   -5.3290    3.5404   -1.7433 H   0  0  0  0  0  0  0  0  0  0  0  0
   -6.2899    2.6205   -2.9138 H   0  0  0  0  0  0  0  0  0  0  0  0
   -6.8793    2.8273   -1.2556 H   0  0  0  0  0  0  0  0  0  0  0  0
   -5.9340    0.5367   -1.6297 H   0  0  0  0  0  0  0  0  0  0  0  0
   -4.3971    1.2439   -2.1121 H   0  0  0  0  0  0  0  0  0  0  0  0
   -4.1511    2.2799    0.1750 H   0  0  0  0  0  0  0  0  0  0  0  0
   -5.6969    1.5689    0.6506 H   0  0  0  0  0  0  0  0  0  0  0  0
   -0.6974    1.1050    0.7288 H   0  0  0  0  0  0  0  0  0  0  0  0
    1.4766    0.4416   -0.8888 H   0  0  0  0  0  0  0  0  0  0  0  0
    1.4263    1.7737    0.2757 H   0  0  0  0  0  0  0  0  0  0  0  0
    2.1723    0.2144    2.1042 H   0  0  0  0  0  0  0  0  0  0  0  0
    2.2125   -1.1232    0.9840 H   0  0  0  0  0  0  0  0  0  0  0  0
    3.9346   -1.2637   -0.8024 H   0  0  0  0  0  0  0  0  0  0  0  0
    6.2466   -0.6890   -1.4413 H   0  0  0  0  0  0  0  0  0  0  0  0
    6.7999    2.8473   -1.7927 H   0  0  0  0  0  0  0  0  0  0  0  0
    8.1341    2.1979   -2.6042 H   0  0  0  0  0  0  0  0  0  0  0  0
    6.2259    2.5560    1.4132 H   0  0  0  0  0  0  0  0  0  0  0  0
    3.9150    1.9766    2.0542 H   0  0  0  0  0  0  0  0  0  0  0  0
   -0.9153   -3.3195    1.1942 H   0  0  0  0  0  0  0  0  0  0  0  0
   -2.0804   -5.2716    2.1102 H   0  0  0  0  0  0  0  0  0  0  0  0
   -4.5409   -5.2326    2.4379 H   0  0  0  0  0  0  0  0  0  0  0  0
   -5.8364   -3.2056    1.8454 H   0  0  0  0  0  0  0  0  0  0  0  0
  1  2  1  0
  2  3  1  0
  3  4  1  0
  4  5  1  0
  5  6  2  0
  6  7  1  0
  7  8  2  0
  7  9  1  0
  9 10  1  0
 10 11  1  0
 11 12  1  0
 12 13  2  0
 13 14  1  0
 14 15  2  0
 15 16  1  0
 16 17  1  0
 16 18  2  0
 16 19  2  0
 15 20  1  0
 20 21  2  0
  6 22  1  0
 22 23  2  0
 23 24  1  0
 24 25  2  0
 25 26  1  0
 26 27  2  0
 27 28  1  0
 28 29  2  0
 28  4  1  0
 21 12  1  0
 27 22  1  0
  1 30  1  0
  1 31  1  0
  1 32  1  0
  2 33  1  0
  2 34  1  0
  3 35  1  0
  3 36  1  0
  9 37  1  0
 10 38  1  0
 10 39  1  0
 11 40  1  0
 11 41  1  0
 13 42  1  0
 14 43  1  0
 17 44  1  0
 17 45  1  0
 20 46  1  0
 21 47  1  0
 23 48  1  0
 24 49  1  0
 25 50  1  0
 26 51  1  0
M  END
$$$$
