
     RDKit          3D

 30 30  0  0  0  0  0  0  0  0999 V2000
    4.7615    1.6507   -0.0351 C   0  0  0  0  0  0  0  0  0  0  0  0
    3.7759    0.5187   -0.2725 C   0  0  0  0  0  0  0  0  0  0  0  0
    2.6901    0.4893    0.7995 C   0  0  0  0  0  0  0  0  0  0  0  0
    1.7673   -0.6080    0.5943 N   0  0  0  0  0  0  0  0  0  0  0  0
    0.7264   -0.5147   -0.2831 C   0  0  0  0  0  0  0  0  0  0  0  0
    0.4357    0.4994   -0.8943 O   0  0  0  0  0  0  0  0  0  0  0  0
    0.0259   -1.7019   -0.3892 N   0  0  0  0  0  0  0  0  0  0  0  0
   -1.2605   -1.9619   -1.4058 S   0  0  0  0  0  6  0  0  0  0  0  0
   -0.8851   -1.6287   -2.7609 O   0  0  0  0  0  0  0  0  0  0  0  0
   -1.7386   -3.2909   -1.0783 O   0  0  0  0  0  0  0  0  0  0  0  0
   -2.4879   -0.8103   -0.8375 C   0  0  0  0  0  0  0  0  0  0  0  0
   -2.6381    0.4203   -1.4846 C   0  0  0  0  0  0  0  0  0  0  0  0
   -3.6251    1.3099   -1.0549 C   0  0  0  0  0  0  0  0  0  0  0  0
   -4.4621    0.9586    0.0046 C   0  0  0  0  0  0  0  0  0  0  0  0
   -5.6779    2.0556    0.5324 Cl  0  0  0  0  0  0  0  0  0  0  0  0
   -4.3246   -0.2776    0.6384 C   0  0  0  0  0  0  0  0  0  0  0  0
   -3.3376   -1.1705    0.2147 C   0  0  0  0  0  0  0  0  0  0  0  0
    5.2580    1.5418    0.9344 H   0  0  0  0  0  0  0  0  0  0  0  0
    4.2560    2.6214   -0.0556 H   0  0  0  0  0  0  0  0  0  0  0  0
    5.5317    1.6522   -0.8128 H   0  0  0  0  0  0  0  0  0  0  0  0
    3.3241    0.6344   -1.2648 H   0  0  0  0  0  0  0  0  0  0  0  0
    4.3144   -0.4365   -0.2817 H   0  0  0  0  0  0  0  0  0  0  0  0
    3.1332    0.3528    1.7915 H   0  0  0  0  0  0  0  0  0  0  0  0
    2.1299    1.4312    0.8024 H   0  0  0  0  0  0  0  0  0  0  0  0
    2.0242   -1.5176    0.9426 H   0  0  0  0  0  0  0  0  0  0  0  0
    0.2312   -2.4957    0.2003 H   0  0  0  0  0  0  0  0  0  0  0  0
   -1.9835    0.6968   -2.3098 H   0  0  0  0  0  0  0  0  0  0  0  0
   -3.7345    2.2716   -1.5499 H   0  0  0  0  0  0  0  0  0  0  0  0
   -4.9862   -0.5517    1.4564 H   0  0  0  0  0  0  0  0  0  0  0  0
   -3.2438   -2.1387    0.7012 H   0  0  0  0  0  0  0  0  0  0  0  0
  1  2  1  0
  2  3  1  0
  3  4  1  0
  4  5  1  0
  5  6  2  0
  5  7  1  0
  7  8  1  0
  8  9  2  0
  8 10  2  0
  8 11  1  0
 11 12  2  0
 12 13  1  0
 13 14  2  0
 14 15  1  0
 14 16  1  0
 16 17  2  0
 17 11  1  0
  1 18  1  0
  1 19  1  0
  1 20  1  0
  2 21  1  0
  2 22  1  0
  3 23  1  0
  3 24  1  0
  4 25  1  0
  7 26  1  0
 12 27  1  0
 13 28  1  0
 16 29  1  0
 17 30  1  0
M  END
$$$$
