
     RDKit          3D

 66 69  0  0  0  0  0  0  0  0999 V2000
   -2.2074    4.5464    0.1853 C   0  0  0  0  0  0  0  0  0  0  0  0
   -3.1180    3.5226    0.7965 C   0  0  0  0  0  0  0  0  0  0  0  0
   -3.1666    2.2356    0.2772 C   0  0  0  0  0  0  0  0  0  0  0  0
   -4.0274    1.3111    0.8707 C   0  0  0  0  0  0  0  0  0  0  0  0
   -4.1206   -0.0899    0.3765 C   0  0  0  0  0  0  0  0  0  0  0  0
   -5.2226   -0.6216    0.3656 O   0  0  0  0  0  0  0  0  0  0  0  0
   -2.9023   -0.6450    0.0353 N   0  0  0  0  0  0  0  0  0  0  0  0
   -2.7903   -1.9017   -0.5220 C   0  0  0  0  0  0  0  0  0  0  0  0
   -3.7798   -2.6674   -0.9043 N   0  0  0  0  0  0  0  0  0  0  0  0
   -3.2286   -3.8464   -1.3066 C   0  0  0  0  0  0  0  0  0  0  0  0
   -3.8909   -4.9945   -1.7663 C   0  0  0  0  0  0  0  0  0  0  0  0
   -3.1460   -6.1274   -2.0907 C   0  0  0  0  0  0  0  0  0  0  0  0
   -1.7627   -6.1169   -1.9444 C   0  0  0  0  0  0  0  0  0  0  0  0
   -1.0820   -4.9745   -1.4935 C   0  0  0  0  0  0  0  0  0  0  0  0
    0.6198   -5.1003   -1.2853 Cl  0  0  0  0  0  0  0  0  0  0  0  0
   -1.8372   -3.8227   -1.1983 C   0  0  0  0  0  0  0  0  0  0  0  0
   -1.5720   -2.5235   -0.7851 N   0  0  0  0  0  0  0  0  0  0  0  0
   -0.2475   -1.9002   -0.6575 C   0  0  2  0  0  0  0  0  0  0  0  0
    0.1553   -1.7885    0.8244 C   0  0  0  0  0  0  0  0  0  0  0  0
    1.4453   -1.0357    1.1540 C   0  0  0  0  0  0  0  0  0  0  0  0
    2.5904   -1.1958    0.1541 C   0  0  0  0  0  0  0  0  0  0  0  0
    2.3532   -0.5954   -1.2377 C   0  0  0  0  0  0  0  0  0  0  0  0
    1.0995    0.1486   -1.3297 N   0  0  0  0  0  0  0  0  0  0  0  0
    0.9822    1.5265   -1.2426 C   0  0  0  0  0  0  0  0  0  0  0  0
   -0.0918    2.1198   -1.2869 O   0  0  0  0  0  0  0  0  0  0  0  0
    2.2204    2.3197   -1.0968 C   0  0  0  0  0  0  0  0  0  0  0  0
    2.7684    2.5000    0.1148 C   0  0  0  0  0  0  0  0  0  0  0  0
    3.9523    3.3857    0.3766 C   0  0  0  0  0  0  0  0  0  0  0  0
    5.1372    2.7199    0.9192 N   0  0  0  0  0  0  0  0  0  0  0  0
    5.7469    1.7820   -0.0152 C   0  0  0  0  0  0  0  0  0  0  0  0
    4.9240    2.1260    2.2328 C   0  0  0  0  0  0  0  0  0  0  0  0
   -0.1174   -0.6372   -1.5401 C   0  0  0  0  0  0  0  0  0  0  0  0
   -4.8416    1.7027    1.9303 C   0  0  0  0  0  0  0  0  0  0  0  0
   -4.7247    3.0022    2.3822 C   0  0  0  0  0  0  0  0  0  0  0  0
   -3.8769    3.9098    1.8488 N   0  0  0  0  0  0  0  0  0  0  0  0
   -2.3256    5.5178    0.6799 H   0  0  0  0  0  0  0  0  0  0  0  0
   -1.1639    4.2344    0.2833 H   0  0  0  0  0  0  0  0  0  0  0  0
   -2.4477    4.6799   -0.8743 H   0  0  0  0  0  0  0  0  0  0  0  0
   -2.5660    1.9812   -0.5889 H   0  0  0  0  0  0  0  0  0  0  0  0
   -2.0714   -0.1323    0.2841 H   0  0  0  0  0  0  0  0  0  0  0  0
   -4.9726   -4.9906   -1.8529 H   0  0  0  0  0  0  0  0  0  0  0  0
   -3.6535   -7.0229   -2.4399 H   0  0  0  0  0  0  0  0  0  0  0  0
   -1.2055   -7.0228   -2.1759 H   0  0  0  0  0  0  0  0  0  0  0  0
    0.4572   -2.5986   -1.1077 H   0  0  0  0  0  0  0  0  0  0  0  0
    0.2584   -2.8102    1.2149 H   0  0  0  0  0  0  0  0  0  0  0  0
   -0.6488   -1.3451    1.4212 H   0  0  0  0  0  0  0  0  0  0  0  0
    1.2112    0.0252    1.2891 H   0  0  0  0  0  0  0  0  0  0  0  0
    1.7946   -1.3760    2.1371 H   0  0  0  0  0  0  0  0  0  0  0  0
    2.8484   -2.2557    0.0497 H   0  0  0  0  0  0  0  0  0  0  0  0
    3.4799   -0.7225    0.5857 H   0  0  0  0  0  0  0  0  0  0  0  0
    3.2012    0.0386   -1.5127 H   0  0  0  0  0  0  0  0  0  0  0  0
    2.3279   -1.3908   -1.9934 H   0  0  0  0  0  0  0  0  0  0  0  0
    2.5838    2.8149   -1.9908 H   0  0  0  0  0  0  0  0  0  0  0  0
    2.3136    2.0349    0.9850 H   0  0  0  0  0  0  0  0  0  0  0  0
    4.2331    3.9288   -0.5357 H   0  0  0  0  0  0  0  0  0  0  0  0
    3.6378    4.1688    1.0801 H   0  0  0  0  0  0  0  0  0  0  0  0
    5.9286    2.2639   -0.9837 H   0  0  0  0  0  0  0  0  0  0  0  0
    6.7260    1.4518    0.3561 H   0  0  0  0  0  0  0  0  0  0  0  0
    5.1311    0.8935   -0.1813 H   0  0  0  0  0  0  0  0  0  0  0  0
    4.4970    2.8607    2.9232 H   0  0  0  0  0  0  0  0  0  0  0  0
    4.2592    1.2560    2.1984 H   0  0  0  0  0  0  0  0  0  0  0  0
    5.8765    1.8059    2.6674 H   0  0  0  0  0  0  0  0  0  0  0  0
   -0.0998   -0.9498   -2.5939 H   0  0  0  0  0  0  0  0  0  0  0  0
   -0.9904    0.0123   -1.4620 H   0  0  0  0  0  0  0  0  0  0  0  0
   -5.5354    1.0117    2.3939 H   0  0  0  0  0  0  0  0  0  0  0  0
   -5.3254    3.3628    3.2117 H   0  0  0  0  0  0  0  0  0  0  0  0
  1  2  1  0
  2  3  2  0
  3  4  1  0
  4  5  1  0
  5  6  2  0
  5  7  1  0
  7  8  1  0
  8  9  2  0
  9 10  1  0
 10 11  2  0
 11 12  1  0
 12 13  2  0
 13 14  1  0
 14 15  1  0
 14 16  2  0
 16 17  1  0
 17 18  1  0
 18 19  1  0
 19 20  1  0
 20 21  1  0
 21 22  1  0
 22 23  1  0
 23 24  1  0
 24 25  2  0
 24 26  1  0
 26 27  2  0
 27 28  1  0
 28 29  1  0
 29 30  1  0
 29 31  1  0
 23 32  1  0
  4 33  2  0
 33 34  1  0
 34 35  2  0
 35  2  1  0
 17  8  1  0
 32 18  1  0
 16 10  1  0
  1 36  1  0
  1 37  1  0
  1 38  1  0
  3 39  1  0
  7 40  1  0
 11 41  1  0
 12 42  1  0
 13 43  1  0
 18 44  1  6
 19 45  1  0
 19 46  1  0
 20 47  1  0
 20 48  1  0
 21 49  1  0
 21 50  1  0
 22 51  1  0
 22 52  1  0
 26 53  1  0
 27 54  1  0
 28 55  1  0
 28 56  1  0
 30 57  1  0
 30 58  1  0
 30 59  1  0
 31 60  1  0
 31 61  1  0
 31 62  1  0
 32 63  1  0
 32 64  1  0
 33 65  1  0
 34 66  1  0
M  END
$$$$
