
     RDKit          3D

 56 61  0  0  0  0  0  0  0  0999 V2000
    8.8000    1.7313   -3.0967 O   0  0  0  0  0  0  0  0  0  0  0  0
    8.1184    0.8598   -2.5894 C   0  0  0  0  0  0  0  0  0  0  0  0
    8.5334   -0.4189   -2.5566 O   0  0  0  0  0  0  0  0  0  0  0  0
    6.7908    1.0529   -1.9581 C   0  0  0  0  0  0  0  0  0  0  0  0
    6.2515    2.3421   -1.9334 C   0  0  0  0  0  0  0  0  0  0  0  0
    5.0036    2.5689   -1.3483 C   0  0  0  0  0  0  0  0  0  0  0  0
    4.2762    1.5118   -0.7789 C   0  0  0  0  0  0  0  0  0  0  0  0
    3.0191    1.7248   -0.1860 C   0  0  0  0  0  0  0  0  0  0  0  0
    2.2838    0.6714    0.3836 C   0  0  0  0  0  0  0  0  0  0  0  0
    0.9693    0.9122    1.0006 C   0  0  0  0  0  0  0  0  0  0  0  0
    0.8220    1.8385    2.0369 C   0  0  0  0  0  0  0  0  0  0  0  0
   -0.4247    2.0573    2.6170 C   0  0  0  0  0  0  0  0  0  0  0  0
   -1.5430    1.3505    2.1651 C   0  0  0  0  0  0  0  0  0  0  0  0
   -2.7456    1.5995    2.7670 O   0  0  0  0  0  0  0  0  0  0  0  0
   -1.4570    0.4069    1.1243 C   0  0  0  0  0  0  0  0  0  0  0  0
   -2.6854   -0.3799    0.6125 C   0  0  0  0  0  0  0  0  0  0  0  0
   -2.3497   -1.3730   -0.5522 C   0  0  0  0  0  0  0  0  0  0  0  0
   -3.5932   -2.1388   -1.0358 C   0  0  0  0  0  0  0  0  0  0  0  0
   -4.6385   -1.1361   -1.5410 C   0  0  0  0  0  0  0  0  0  0  0  0
   -5.0226   -0.1747   -0.4090 C   0  0  0  0  0  0  0  0  0  0  0  0
   -5.5966   -0.9779    0.7697 C   0  0  0  0  0  0  0  0  0  0  0  0
   -4.5583   -1.9929    1.2751 C   0  0  0  0  0  0  0  0  0  0  0  0
   -4.1770   -2.9430    0.1327 C   0  0  0  0  0  0  0  0  0  0  0  0
   -3.3039   -1.2411    1.7552 C   0  0  0  0  0  0  0  0  0  0  0  0
   -3.7717    0.5909    0.0584 C   0  0  0  0  0  0  0  0  0  0  0  0
   -0.1748    0.2135    0.5626 C   0  0  0  0  0  0  0  0  0  0  0  0
    2.8380   -0.6155    0.3478 C   0  0  0  0  0  0  0  0  0  0  0  0
    4.0872   -0.8460   -0.2362 C   0  0  0  0  0  0  0  0  0  0  0  0
    4.8179    0.2071   -0.8034 C   0  0  0  0  0  0  0  0  0  0  0  0
    6.0741   -0.0101   -1.3942 C   0  0  0  0  0  0  0  0  0  0  0  0
    9.4065   -0.3926   -3.0015 H   0  0  0  0  0  0  0  0  0  0  0  0
    6.7991    3.1756   -2.3693 H   0  0  0  0  0  0  0  0  0  0  0  0
    4.6029    3.5805   -1.3412 H   0  0  0  0  0  0  0  0  0  0  0  0
    2.5963    2.7285   -0.1771 H   0  0  0  0  0  0  0  0  0  0  0  0
    1.6839    2.3884    2.4084 H   0  0  0  0  0  0  0  0  0  0  0  0
   -0.5052    2.7806    3.4229 H   0  0  0  0  0  0  0  0  0  0  0  0
   -2.6257    2.2692    3.4589 H   0  0  0  0  0  0  0  0  0  0  0  0
   -1.9229   -0.8295   -1.4058 H   0  0  0  0  0  0  0  0  0  0  0  0
   -1.5969   -2.1031   -0.2259 H   0  0  0  0  0  0  0  0  0  0  0  0
   -3.3139   -2.8196   -1.8479 H   0  0  0  0  0  0  0  0  0  0  0  0
   -4.2389   -0.5730   -2.3933 H   0  0  0  0  0  0  0  0  0  0  0  0
   -5.5276   -1.6686   -1.9003 H   0  0  0  0  0  0  0  0  0  0  0  0
   -5.7739    0.5365   -0.7707 H   0  0  0  0  0  0  0  0  0  0  0  0
   -5.8844   -0.2991    1.5819 H   0  0  0  0  0  0  0  0  0  0  0  0
   -6.5078   -1.5017    0.4554 H   0  0  0  0  0  0  0  0  0  0  0  0
   -4.9808   -2.5692    2.1061 H   0  0  0  0  0  0  0  0  0  0  0  0
   -5.0589   -3.5040   -0.2002 H   0  0  0  0  0  0  0  0  0  0  0  0
   -3.4453   -3.6803    0.4851 H   0  0  0  0  0  0  0  0  0  0  0  0
   -3.5877   -0.6289    2.6172 H   0  0  0  0  0  0  0  0  0  0  0  0
   -2.5605   -1.9595    2.1264 H   0  0  0  0  0  0  0  0  0  0  0  0
   -4.0858    1.3213    0.8110 H   0  0  0  0  0  0  0  0  0  0  0  0
   -3.3609    1.1747   -0.7765 H   0  0  0  0  0  0  0  0  0  0  0  0
   -0.0327   -0.4905   -0.2536 H   0  0  0  0  0  0  0  0  0  0  0  0
    2.3009   -1.4537    0.7882 H   0  0  0  0  0  0  0  0  0  0  0  0
    4.4841   -1.8590   -0.2409 H   0  0  0  0  0  0  0  0  0  0  0  0
    6.4928   -1.0141   -1.4136 H   0  0  0  0  0  0  0  0  0  0  0  0
  1  2  2  0
  2  3  1  0
  2  4  1  0
  4  5  2  0
  5  6  1  0
  6  7  2  0
  7  8  1  0
  8  9  2  0
  9 10  1  0
 10 11  2  0
 11 12  1  0
 12 13  2  0
 13 14  1  0
 13 15  1  0
 15 16  1  0
 16 17  1  0
 17 18  1  0
 18 19  1  0
 19 20  1  0
 20 21  1  0
 21 22  1  0
 22 23  1  0
 22 24  1  0
 20 25  1  0
 15 26  2  0
  9 27  1  0
 27 28  2  0
 28 29  1  0
 29 30  2  0
 30  4  1  0
 29  7  1  0
 26 10  1  0
 24 16  1  0
 25 16  1  0
 23 18  1  0
  3 31  1  0
  5 32  1  0
  6 33  1  0
  8 34  1  0
 11 35  1  0
 12 36  1  0
 14 37  1  0
 17 38  1  0
 17 39  1  0
 18 40  1  0
 19 41  1  0
 19 42  1  0
 20 43  1  0
 21 44  1  0
 21 45  1  0
 22 46  1  0
 23 47  1  0
 23 48  1  0
 24 49  1  0
 24 50  1  0
 25 51  1  0
 25 52  1  0
 26 53  1  0
 27 54  1  0
 28 55  1  0
 30 56  1  0
M  END
$$$$
