
     RDKit          3D

 37 39  0  0  0  0  0  0  0  0999 V2000
    6.2035    0.4616   -0.2830 C   0  0  0  0  0  0  0  0  0  0  0  0
    5.4198   -0.5369    0.5512 C   0  0  0  0  0  0  0  0  0  0  0  0
    4.2734    0.0768    1.1382 O   0  0  0  0  0  0  0  0  0  0  0  0
    3.1105    0.1336    0.4231 C   0  0  0  0  0  0  0  0  0  0  0  0
    2.9103   -0.3403   -0.8746 C   0  0  0  0  0  0  0  0  0  0  0  0
    1.6568   -0.2145   -1.4845 C   0  0  0  0  0  0  0  0  0  0  0  0
    0.5968    0.3747   -0.7905 C   0  0  0  0  0  0  0  0  0  0  0  0
   -0.7138    0.5185   -1.4644 C   0  0  0  0  0  0  0  0  0  0  0  0
   -0.7248    0.9965   -2.5960 O   0  0  0  0  0  0  0  0  0  0  0  0
   -1.8667    0.1356   -0.7810 N   0  0  0  0  0  0  0  0  0  0  0  0
   -1.8796   -0.9720    0.2085 C   0  0  0  0  0  0  0  0  0  0  0  0
   -2.9012   -0.7448    1.3479 C   0  0  0  0  0  0  0  0  0  0  0  0
   -4.1628   -0.2625    0.7459 C   0  0  0  0  0  0  0  0  0  0  0  0
   -5.4141   -0.2341    1.2831 N   0  0  0  0  0  0  0  0  0  0  0  0
   -6.2374    0.3051    0.3288 C   0  0  0  0  0  0  0  0  0  0  0  0
   -5.5814    0.6160   -0.7697 N   0  0  0  0  0  0  0  0  0  0  0  0
   -4.2791    0.2736   -0.5166 C   0  0  0  0  0  0  0  0  0  0  0  0
   -3.1446    0.4220   -1.4747 C   0  0  0  0  0  0  0  0  0  0  0  0
    0.7972    0.8788    0.4969 C   0  0  0  0  0  0  0  0  0  0  0  0
    2.0496    0.7468    1.1000 C   0  0  0  0  0  0  0  0  0  0  0  0
    6.4694    1.3368    0.3191 H   0  0  0  0  0  0  0  0  0  0  0  0
    5.6151    0.8266   -1.1297 H   0  0  0  0  0  0  0  0  0  0  0  0
    7.1213    0.0077   -0.6677 H   0  0  0  0  0  0  0  0  0  0  0  0
    6.0544   -0.8625    1.3835 H   0  0  0  0  0  0  0  0  0  0  0  0
    5.1707   -1.4456   -0.0069 H   0  0  0  0  0  0  0  0  0  0  0  0
    3.7068   -0.8009   -1.4492 H   0  0  0  0  0  0  0  0  0  0  0  0
    1.5098   -0.5691   -2.5023 H   0  0  0  0  0  0  0  0  0  0  0  0
   -2.1409   -1.8788   -0.3535 H   0  0  0  0  0  0  0  0  0  0  0  0
   -0.8905   -1.1543    0.6337 H   0  0  0  0  0  0  0  0  0  0  0  0
   -3.0502   -1.6712    1.9112 H   0  0  0  0  0  0  0  0  0  0  0  0
   -2.5168    0.0174    2.0352 H   0  0  0  0  0  0  0  0  0  0  0  0
   -5.6962   -0.5476    2.2021 H   0  0  0  0  0  0  0  0  0  0  0  0
   -7.2979    0.4433    0.4919 H   0  0  0  0  0  0  0  0  0  0  0  0
   -3.2482   -0.2898   -2.3010 H   0  0  0  0  0  0  0  0  0  0  0  0
   -3.1171    1.4377   -1.8836 H   0  0  0  0  0  0  0  0  0  0  0  0
   -0.0093    1.3799    1.0256 H   0  0  0  0  0  0  0  0  0  0  0  0
    2.2072    1.1358    2.1034 H   0  0  0  0  0  0  0  0  0  0  0  0
  1  2  1  0
  2  3  1  0
  3  4  1  0
  4  5  2  0
  5  6  1  0
  6  7  2  0
  7  8  1  0
  8  9  2  0
  8 10  1  0
 10 11  1  0
 11 12  1  0
 12 13  1  0
 13 14  1  0
 14 15  1  0
 15 16  2  0
 16 17  1  0
 17 18  1  0
  7 19  1  0
 19 20  2  0
 20  4  1  0
 18 10  1  0
 17 13  2  0
  1 21  1  0
  1 22  1  0
  1 23  1  0
  2 24  1  0
  2 25  1  0
  5 26  1  0
  6 27  1  0
 11 28  1  0
 11 29  1  0
 12 30  1  0
 12 31  1  0
 14 32  1  0
 15 33  1  0
 18 34  1  0
 18 35  1  0
 19 36  1  0
 20 37  1  0
M  END
$$$$
