
     RDKit          3D

 47 50  0  0  0  0  0  0  0  0999 V2000
    4.6944    0.1585   -2.5911 C   0  0  0  0  0  0  0  0  0  0  0  0
    4.6232    1.4410   -1.9795 O   0  0  0  0  0  0  0  0  0  0  0  0
    4.1763    1.4893   -0.6881 C   0  0  0  0  0  0  0  0  0  0  0  0
    4.2445    2.7535   -0.0930 C   0  0  0  0  0  0  0  0  0  0  0  0
    3.8366    2.9480    1.2286 C   0  0  0  0  0  0  0  0  0  0  0  0
    3.3372    1.8764    1.9635 C   0  0  0  0  0  0  0  0  0  0  0  0
    3.2334    0.6203    1.3585 C   0  0  0  0  0  0  0  0  0  0  0  0
    2.6054   -0.7560    2.2965 S   0  0  0  0  0  6  0  0  0  0  0  0
    2.8200   -0.4649    3.6970 O   0  0  0  0  0  0  0  0  0  0  0  0
    3.1152   -1.9677    1.6898 O   0  0  0  0  0  0  0  0  0  0  0  0
    0.9463   -0.7092    2.0085 N   0  0  0  0  0  0  0  0  0  0  0  0
    0.1328    0.3786    2.5848 C   0  0  0  0  0  0  0  0  0  0  0  0
   -1.2212    0.1922    1.9052 C   0  0  1  0  0  0  0  0  0  0  0  0
   -2.0714    1.4465    1.9678 C   0  0  0  0  0  0  0  0  0  0  0  0
   -2.3052    1.7391    3.2753 F   0  0  0  0  0  0  0  0  0  0  0  0
   -0.8205   -0.2012    0.4836 C   0  0  2  0  0  0  0  0  0  0  0  0
   -1.9159   -0.8600   -0.2744 C   0  0  0  0  0  0  0  0  0  0  0  0
   -2.5404   -0.3730   -1.3244 N   0  0  0  0  0  0  0  0  0  0  0  0
   -3.4613   -1.3409   -1.6274 C   0  0  0  0  0  0  0  0  0  0  0  0
   -4.4380   -1.1910   -2.8275 C   0  0  0  0  0  0  0  0  0  0  0  0
   -5.5450   -2.1908   -3.0542 C   0  0  0  0  0  0  0  0  0  0  0  0
   -5.8731   -0.8126   -2.5513 C   0  0  0  0  0  0  0  0  0  0  0  0
   -3.4429   -2.4012   -0.8133 N   0  0  0  0  0  0  0  0  0  0  0  0
   -2.4660   -2.0734    0.0413 N   0  0  0  0  0  0  0  0  0  0  0  0
    0.4200   -1.0822    0.6781 C   0  0  0  0  0  0  0  0  0  0  0  0
    3.6749    0.4149    0.0444 C   0  0  0  0  0  0  0  0  0  0  0  0
    5.1150    0.2886   -3.5930 H   0  0  0  0  0  0  0  0  0  0  0  0
    3.6969   -0.2792   -2.7025 H   0  0  0  0  0  0  0  0  0  0  0  0
    5.3596   -0.5094   -2.0338 H   0  0  0  0  0  0  0  0  0  0  0  0
    4.6366    3.5935   -0.6631 H   0  0  0  0  0  0  0  0  0  0  0  0
    3.9189    3.9329    1.6822 H   0  0  0  0  0  0  0  0  0  0  0  0
    3.0371    2.0249    2.9989 H   0  0  0  0  0  0  0  0  0  0  0  0
    0.5601    1.3561    2.3433 H   0  0  0  0  0  0  0  0  0  0  0  0
    0.0494    0.2730    3.6702 H   0  0  0  0  0  0  0  0  0  0  0  0
   -1.7529   -0.6268    2.4089 H   0  0  0  0  0  0  0  0  0  0  0  0
   -1.5742    2.3094    1.5143 H   0  0  0  0  0  0  0  0  0  0  0  0
   -3.0393    1.3023    1.4790 H   0  0  0  0  0  0  0  0  0  0  0  0
   -0.5113    0.6996   -0.0661 H   0  0  0  0  0  0  0  0  0  0  0  0
   -3.9729   -0.7612   -3.7084 H   0  0  0  0  0  0  0  0  0  0  0  0
   -5.7995   -2.4363   -4.0784 H   0  0  0  0  0  0  0  0  0  0  0  0
   -5.6457   -3.0212   -2.3632 H   0  0  0  0  0  0  0  0  0  0  0  0
   -6.1922   -0.7144   -1.5192 H   0  0  0  0  0  0  0  0  0  0  0  0
   -6.3508   -0.1192   -3.2331 H   0  0  0  0  0  0  0  0  0  0  0  0
   -2.2384   -2.7097    0.7986 H   0  0  0  0  0  0  0  0  0  0  0  0
    1.1372   -0.9031   -0.1267 H   0  0  0  0  0  0  0  0  0  0  0  0
    0.1869   -2.1521    0.6919 H   0  0  0  0  0  0  0  0  0  0  0  0
    3.6200   -0.5819   -0.3814 H   0  0  0  0  0  0  0  0  0  0  0  0
  1  2  1  0
  2  3  1  0
  3  4  2  0
  4  5  1  0
  5  6  2  0
  6  7  1  0
  7  8  1  0
  8  9  2  0
  8 10  2  0
  8 11  1  0
 11 12  1  0
 12 13  1  0
 13 14  1  0
 14 15  1  0
 13 16  1  0
 16 17  1  0
 17 18  2  0
 18 19  1  0
 19 20  1  0
 20 21  1  0
 21 22  1  0
 19 23  2  0
 23 24  1  0
 16 25  1  0
  7 26  2  0
 26  3  1  0
 25 11  1  0
 24 17  1  0
 22 20  1  0
  1 27  1  0
  1 28  1  0
  1 29  1  0
  4 30  1  0
  5 31  1  0
  6 32  1  0
 12 33  1  0
 12 34  1  0
 13 35  1  1
 14 36  1  0
 14 37  1  0
 16 38  1  6
 20 39  1  0
 21 40  1  0
 21 41  1  0
 22 42  1  0
 22 43  1  0
 24 44  1  0
 25 45  1  0
 25 46  1  0
 26 47  1  0
M  END
$$$$
