
     RDKit          3D

 75 79  0  0  0  0  0  0  0  0999 V2000
    3.2064   -3.3712    0.1763 C   0  0  0  0  0  0  0  0  0  0  0  0
    2.1337   -2.4370   -0.3518 C   0  0  0  0  0  0  0  0  0  0  0  0
    2.1768   -1.2351    0.4142 O   0  0  0  0  0  0  0  0  0  0  0  0
    1.1682   -0.3011    0.0272 C   0  0  1  0  0  0  0  0  0  0  0  0
   -0.2285   -0.6403    0.5712 C   0  0  0  0  0  0  0  0  0  0  0  0
   -0.8019    0.6161    1.0703 N   0  0  0  0  0  0  0  0  0  0  0  0
   -2.2335    0.8403    0.8442 C   0  0  1  0  0  0  0  0  0  0  0  0
   -2.6280    0.9978   -0.6424 C   0  0  0  0  0  0  0  0  0  0  0  0
   -4.0288    0.4575   -0.9640 C   0  0  0  0  0  0  0  0  0  0  0  0
   -5.0384    0.7270    0.1674 C   0  0  1  0  0  0  0  0  0  0  0  0
   -5.0156    2.1511    0.3706 O   0  0  0  0  0  0  0  0  0  0  0  0
   -6.4776    0.3142   -0.1525 C   0  0  0  0  0  0  0  0  0  0  0  0
   -7.5630    0.9846    0.4776 C   0  0  0  0  0  0  0  0  0  0  0  0
   -8.8932    0.6260    0.2294 C   0  0  0  0  0  0  0  0  0  0  0  0
   -9.1216   -0.4187   -0.6369 C   0  0  0  0  0  0  0  0  0  0  0  0
   -8.0882   -1.0932   -1.2398 C   0  0  0  0  0  0  0  0  0  0  0  0
   -6.7668   -0.7571   -1.0193 C   0  0  0  0  0  0  0  0  0  0  0  0
   -8.5238   -2.0987   -2.0456 O   0  0  0  0  0  0  0  0  0  0  0  0
   -9.9520   -1.9904   -1.8664 C   0  0  0  0  0  0  0  0  0  0  0  0
  -10.3390   -0.9112   -0.9901 O   0  0  0  0  0  0  0  0  0  0  0  0
   -4.5805    0.0563    1.4811 C   0  0  0  0  0  0  0  0  0  0  0  0
   -3.0746   -0.2449    1.5345 C   0  0  0  0  0  0  0  0  0  0  0  0
    0.0771    1.7141    0.6475 C   0  0  0  0  0  0  0  0  0  0  0  0
    1.4669    1.0710    0.6410 C   0  0  2  0  0  0  0  0  0  0  0  0
    2.4663    1.8005   -0.1274 N   0  0  0  0  0  0  0  0  0  0  0  0
    2.9760    3.0005    0.3218 C   0  0  0  0  0  0  0  0  0  0  0  0
    2.5086    3.6317    1.2656 O   0  0  0  0  0  0  0  0  0  0  0  0
    4.2156    3.4668   -0.4452 C   0  0  0  0  0  0  0  0  0  0  0  0
    5.3796    2.6775   -0.0691 N   0  0  0  0  0  0  0  0  0  0  0  0
    5.6125    1.4459   -0.6431 C   0  0  0  0  0  0  0  0  0  0  0  0
    4.8637    0.9621   -1.4874 O   0  0  0  0  0  0  0  0  0  0  0  0
    6.7860    0.6755   -0.1444 C   0  0  0  0  0  0  0  0  0  0  0  0
    7.8886    1.2983    0.4518 C   0  0  0  0  0  0  0  0  0  0  0  0
    8.9680    0.5332    0.8975 C   0  0  0  0  0  0  0  0  0  0  0  0
    8.9556   -0.8543    0.7427 C   0  0  0  0  0  0  0  0  0  0  0  0
    7.8636   -1.4959    0.1389 C   0  0  0  0  0  0  0  0  0  0  0  0
    7.8562   -2.9912   -0.0663 C   0  0  0  0  0  0  0  0  0  0  0  0
    8.7547   -3.6471    0.7197 F   0  0  0  0  0  0  0  0  0  0  0  0
    8.1567   -3.3380   -1.3488 F   0  0  0  0  0  0  0  0  0  0  0  0
    6.6470   -3.5578    0.2014 F   0  0  0  0  0  0  0  0  0  0  0  0
    6.7844   -0.7174   -0.3096 C   0  0  0  0  0  0  0  0  0  0  0  0
    4.1870   -2.8847    0.1474 H   0  0  0  0  0  0  0  0  0  0  0  0
    3.0052   -3.6305    1.2226 H   0  0  0  0  0  0  0  0  0  0  0  0
    3.2489   -4.2937   -0.4120 H   0  0  0  0  0  0  0  0  0  0  0  0
    2.3287   -2.2060   -1.4059 H   0  0  0  0  0  0  0  0  0  0  0  0
    1.1500   -2.9129   -0.2602 H   0  0  0  0  0  0  0  0  0  0  0  0
    1.1372   -0.2140   -1.0676 H   0  0  0  0  0  0  0  0  0  0  0  0
   -0.8199   -1.1111   -0.2213 H   0  0  0  0  0  0  0  0  0  0  0  0
   -0.1632   -1.3596    1.3956 H   0  0  0  0  0  0  0  0  0  0  0  0
   -2.4837    1.7842    1.3497 H   0  0  0  0  0  0  0  0  0  0  0  0
   -1.9175    0.5003   -1.3132 H   0  0  0  0  0  0  0  0  0  0  0  0
   -2.5764    2.0628   -0.9086 H   0  0  0  0  0  0  0  0  0  0  0  0
   -4.3669    0.9195   -1.9008 H   0  0  0  0  0  0  0  0  0  0  0  0
   -3.9416   -0.6188   -1.1568 H   0  0  0  0  0  0  0  0  0  0  0  0
   -5.5109    2.5509   -0.3662 H   0  0  0  0  0  0  0  0  0  0  0  0
   -7.3675    1.7989    1.1798 H   0  0  0  0  0  0  0  0  0  0  0  0
   -9.7151    1.1480    0.7087 H   0  0  0  0  0  0  0  0  0  0  0  0
   -5.9920   -1.3370   -1.5072 H   0  0  0  0  0  0  0  0  0  0  0  0
  -10.4190   -1.8349   -2.8474 H   0  0  0  0  0  0  0  0  0  0  0  0
  -10.3236   -2.9316   -1.4448 H   0  0  0  0  0  0  0  0  0  0  0  0
   -5.1029   -0.8953    1.6421 H   0  0  0  0  0  0  0  0  0  0  0  0
   -4.8403    0.6998    2.3321 H   0  0  0  0  0  0  0  0  0  0  0  0
   -2.7740   -0.3586    2.5841 H   0  0  0  0  0  0  0  0  0  0  0  0
   -2.8993   -1.2189    1.0565 H   0  0  0  0  0  0  0  0  0  0  0  0
    0.0218    2.5560    1.3438 H   0  0  0  0  0  0  0  0  0  0  0  0
   -0.1699    2.0799   -0.3565 H   0  0  0  0  0  0  0  0  0  0  0  0
    1.8535    0.9612    1.6641 H   0  0  0  0  0  0  0  0  0  0  0  0
    3.1150    1.2369   -0.6814 H   0  0  0  0  0  0  0  0  0  0  0  0
    4.0341    3.3859   -1.5223 H   0  0  0  0  0  0  0  0  0  0  0  0
    4.4197    4.5137   -0.1997 H   0  0  0  0  0  0  0  0  0  0  0  0
    5.8171    2.9005    0.8163 H   0  0  0  0  0  0  0  0  0  0  0  0
    7.9384    2.3783    0.5543 H   0  0  0  0  0  0  0  0  0  0  0  0
    9.8267    1.0185    1.3569 H   0  0  0  0  0  0  0  0  0  0  0  0
    9.8100   -1.4351    1.0885 H   0  0  0  0  0  0  0  0  0  0  0  0
    5.9333   -1.1997   -0.7889 H   0  0  0  0  0  0  0  0  0  0  0  0
  1  2  1  0
  2  3  1  0
  3  4  1  0
  4  5  1  0
  5  6  1  0
  6  7  1  0
  7  8  1  0
  8  9  1  0
  9 10  1  0
 10 11  1  1
 10 12  1  0
 12 13  2  0
 13 14  1  0
 14 15  2  0
 15 16  1  0
 16 17  2  0
 16 18  1  0
 18 19  1  0
 19 20  1  0
 10 21  1  0
 21 22  1  0
  6 23  1  0
 23 24  1  0
 24 25  1  0
 25 26  1  0
 26 27  2  0
 26 28  1  0
 28 29  1  0
 29 30  1  0
 30 31  2  0
 30 32  1  0
 32 33  2  0
 33 34  1  0
 34 35  2  0
 35 36  1  0
 36 37  1  0
 37 38  1  0
 37 39  1  0
 37 40  1  0
 36 41  2  0
 24  4  1  0
 41 32  1  0
 22  7  1  0
 17 12  1  0
 20 15  1  0
  1 42  1  0
  1 43  1  0
  1 44  1  0
  2 45  1  0
  2 46  1  0
  4 47  1  6
  5 48  1  0
  5 49  1  0
  7 50  1  1
  8 51  1  0
  8 52  1  0
  9 53  1  0
  9 54  1  0
 11 55  1  0
 13 56  1  0
 14 57  1  0
 17 58  1  0
 19 59  1  0
 19 60  1  0
 21 61  1  0
 21 62  1  0
 22 63  1  0
 22 64  1  0
 23 65  1  0
 23 66  1  0
 24 67  1  1
 25 68  1  0
 28 69  1  0
 28 70  1  0
 29 71  1  0
 33 72  1  0
 34 73  1  0
 35 74  1  0
 41 75  1  0
M  END
$$$$
