
     RDKit          3D

 60 63  0  0  0  0  0  0  0  0999 V2000
    5.9314    0.3063    2.3644 C   0  0  0  0  0  0  0  0  0  0  0  0
    5.1696   -0.2472    1.2208 C   0  0  0  0  0  0  0  0  0  0  0  0
    4.8519   -1.5962    0.9557 C   0  0  0  0  0  0  0  0  0  0  0  0
    4.1443   -1.5833   -0.2278 C   0  0  0  0  0  0  0  0  0  0  0  0
    3.5613   -2.7007   -1.0117 C   0  0  0  0  0  0  0  0  0  0  0  0
    4.0584   -0.2616   -0.5887 N   0  0  0  0  0  0  0  0  0  0  0  0
    3.4454    0.3174   -1.7703 C   0  0  0  0  0  0  0  0  0  0  0  0
    1.9633    0.0348   -1.8754 C   0  0  0  0  0  0  0  0  0  0  0  0
    1.5482   -0.6673   -2.8043 O   0  0  0  0  0  0  0  0  0  0  0  0
    1.0879    0.5974   -0.9520 N   0  0  0  0  0  0  0  0  0  0  0  0
    1.5060    1.4828    0.1376 C   0  0  0  0  0  0  0  0  0  0  0  0
    0.3370    2.2257    0.7745 C   0  0  0  0  0  0  0  0  0  0  0  0
   -0.7127    1.2504    1.3023 C   0  0  0  0  0  0  0  0  0  0  0  0
   -1.0176    0.1086    0.3119 C   0  0  0  0  0  0  0  0  0  0  0  0
   -2.4646   -0.2429    0.2700 N   0  0  0  0  0  0  0  0  0  0  0  0
   -2.9550   -1.4411    0.8227 C   0  0  0  0  0  0  0  0  0  0  0  0
   -4.1074   -1.8313    0.6750 O   0  0  0  0  0  0  0  0  0  0  0  0
   -2.0221   -2.2908    1.6163 C   0  0  0  0  0  0  0  0  0  0  0  0
   -1.6055   -1.8865    3.0134 C   0  0  0  0  0  0  0  0  0  0  0  0
   -2.5359   -3.0456    2.8270 C   0  0  0  0  0  0  0  0  0  0  0  0
   -3.4465    0.5352   -0.5362 C   0  0  0  0  0  0  0  0  0  0  0  0
   -3.5642   -0.0120   -1.9717 C   0  0  0  0  0  0  0  0  0  0  0  0
   -3.9270    1.0775   -2.9708 C   0  0  0  0  0  0  0  0  0  0  0  0
   -4.9012    1.9409   -2.4042 O   0  0  0  0  0  0  0  0  0  0  0  0
   -4.3955    2.7360   -1.3351 C   0  0  0  0  0  0  0  0  0  0  0  0
   -3.2959    2.0576   -0.5166 C   0  0  0  0  0  0  0  0  0  0  0  0
   -0.3435    0.2920   -1.0647 C   0  0  0  0  0  0  0  0  0  0  0  0
    4.6836    0.5643    0.2784 N   0  0  0  0  0  0  0  0  0  0  0  0
    5.2624    0.8511    3.0385 H   0  0  0  0  0  0  0  0  0  0  0  0
    6.4170   -0.4896    2.9373 H   0  0  0  0  0  0  0  0  0  0  0  0
    6.7093    0.9952    2.0170 H   0  0  0  0  0  0  0  0  0  0  0  0
    5.1149   -2.4613    1.5441 H   0  0  0  0  0  0  0  0  0  0  0  0
    2.4720   -2.7082   -0.9172 H   0  0  0  0  0  0  0  0  0  0  0  0
    3.8250   -2.6197   -2.0712 H   0  0  0  0  0  0  0  0  0  0  0  0
    3.9339   -3.6653   -0.6488 H   0  0  0  0  0  0  0  0  0  0  0  0
    3.6258    1.3978   -1.7846 H   0  0  0  0  0  0  0  0  0  0  0  0
    3.9616   -0.1118   -2.6365 H   0  0  0  0  0  0  0  0  0  0  0  0
    2.2380    2.2014   -0.2383 H   0  0  0  0  0  0  0  0  0  0  0  0
    1.9916    0.8588    0.8926 H   0  0  0  0  0  0  0  0  0  0  0  0
    0.6972    2.8600    1.5930 H   0  0  0  0  0  0  0  0  0  0  0  0
   -0.1203    2.8927    0.0341 H   0  0  0  0  0  0  0  0  0  0  0  0
   -0.3393    0.8075    2.2347 H   0  0  0  0  0  0  0  0  0  0  0  0
   -1.6088    1.7999    1.5978 H   0  0  0  0  0  0  0  0  0  0  0  0
   -0.4857   -0.7527    0.7299 H   0  0  0  0  0  0  0  0  0  0  0  0
   -1.3186   -2.8469    1.0054 H   0  0  0  0  0  0  0  0  0  0  0  0
   -0.5862   -2.0955    3.3137 H   0  0  0  0  0  0  0  0  0  0  0  0
   -2.0199   -0.9741    3.4357 H   0  0  0  0  0  0  0  0  0  0  0  0
   -2.1540   -4.0455    2.9936 H   0  0  0  0  0  0  0  0  0  0  0  0
   -3.5747   -2.9155    3.1118 H   0  0  0  0  0  0  0  0  0  0  0  0
   -4.4255    0.3564   -0.0667 H   0  0  0  0  0  0  0  0  0  0  0  0
   -2.6576   -0.5218   -2.3077 H   0  0  0  0  0  0  0  0  0  0  0  0
   -4.3511   -0.7783   -1.9765 H   0  0  0  0  0  0  0  0  0  0  0  0
   -4.3486    0.6315   -3.8775 H   0  0  0  0  0  0  0  0  0  0  0  0
   -3.0464    1.6594   -3.2733 H   0  0  0  0  0  0  0  0  0  0  0  0
   -5.2468    2.9771   -0.6889 H   0  0  0  0  0  0  0  0  0  0  0  0
   -4.0292    3.6833   -1.7465 H   0  0  0  0  0  0  0  0  0  0  0  0
   -2.3305    2.3575   -0.9310 H   0  0  0  0  0  0  0  0  0  0  0  0
   -3.3284    2.4497    0.5057 H   0  0  0  0  0  0  0  0  0  0  0  0
   -0.7871    1.1079   -1.6416 H   0  0  0  0  0  0  0  0  0  0  0  0
   -0.4836   -0.6214   -1.6533 H   0  0  0  0  0  0  0  0  0  0  0  0
  1  2  1  0
  2  3  1  0
  3  4  2  0
  4  5  1  0
  4  6  1  0
  6  7  1  0
  7  8  1  0
  8  9  2  0
  8 10  1  0
 10 11  1  0
 11 12  1  0
 12 13  1  0
 13 14  1  0
 14 15  1  0
 15 16  1  0
 16 17  2  0
 16 18  1  0
 18 19  1  0
 19 20  1  0
 15 21  1  0
 21 22  1  0
 22 23  1  0
 23 24  1  0
 24 25  1  0
 25 26  1  0
 14 27  1  0
  6 28  1  0
 28  2  2  0
 27 10  1  0
 20 18  1  0
 26 21  1  0
  1 29  1  0
  1 30  1  0
  1 31  1  0
  3 32  1  0
  5 33  1  0
  5 34  1  0
  5 35  1  0
  7 36  1  0
  7 37  1  0
 11 38  1  0
 11 39  1  0
 12 40  1  0
 12 41  1  0
 13 42  1  0
 13 43  1  0
 14 44  1  0
 18 45  1  0
 19 46  1  0
 19 47  1  0
 20 48  1  0
 20 49  1  0
 21 50  1  0
 22 51  1  0
 22 52  1  0
 23 53  1  0
 23 54  1  0
 25 55  1  0
 25 56  1  0
 26 57  1  0
 26 58  1  0
 27 59  1  0
 27 60  1  0
M  END
$$$$
