
     RDKit          3D

 43 46  0  0  0  0  0  0  0  0999 V2000
   -8.0303    0.2877   -0.4609 C   0  0  0  0  0  0  0  0  0  0  0  0
   -6.9713   -0.4363    0.3506 C   0  0  0  0  0  0  0  0  0  0  0  0
   -5.6537    0.1427    0.1698 N   0  0  0  0  0  0  0  0  0  0  0  0
   -4.6801   -0.2937   -0.6808 C   0  0  0  0  0  0  0  0  0  0  0  0
   -3.6271    0.5772   -0.5097 C   0  0  0  0  0  0  0  0  0  0  0  0
   -2.0981    0.5889   -1.2707 S   0  0  0  0  0  6  0  0  0  0  0  0
   -2.0189    1.8887   -1.8980 O   0  0  0  0  0  0  0  0  0  0  0  0
   -2.0456   -0.6382   -2.0354 O   0  0  0  0  0  0  0  0  0  0  0  0
   -0.9120    0.5101   -0.0649 N   0  0  0  0  0  0  0  0  0  0  0  0
   -0.8834   -0.7181    0.7754 C   0  0  0  0  0  0  0  0  0  0  0  0
    0.5415   -1.2476    0.6800 C   0  0  0  0  0  0  0  0  0  0  0  0
    1.3609    0.0136    0.4452 C   0  0  0  0  0  0  0  0  0  0  0  0
    2.7390   -0.2301   -0.0383 C   0  0  0  0  0  0  0  0  0  0  0  0
    3.0187   -0.8474   -1.1932 N   0  0  0  0  0  0  0  0  0  0  0  0
    4.4131   -0.8556   -1.2225 O   0  0  0  0  0  0  0  0  0  0  0  0
    4.8382   -0.2419   -0.0741 C   0  0  0  0  0  0  0  0  0  0  0  0
    6.2791   -0.1374    0.1109 C   0  0  0  0  0  0  0  0  0  0  0  0
    7.1969   -0.6196   -0.8170 C   0  0  0  0  0  0  0  0  0  0  0  0
    8.5413   -0.5242   -0.6478 N   0  0  0  0  0  0  0  0  0  0  0  0
    8.9382    0.0784    0.4948 C   0  0  0  0  0  0  0  0  0  0  0  0
    8.0360    0.5623    1.4256 C   0  0  0  0  0  0  0  0  0  0  0  0
    6.6966    0.4661    1.2574 N   0  0  0  0  0  0  0  0  0  0  0  0
    3.8364    0.1571    0.6843 N   0  0  0  0  0  0  0  0  0  0  0  0
    0.4783    0.7770   -0.5381 C   0  0  0  0  0  0  0  0  0  0  0  0
   -4.0532    1.4917    0.4619 C   0  0  0  0  0  0  0  0  0  0  0  0
   -5.2875    1.2173    0.8993 N   0  0  0  0  0  0  0  0  0  0  0  0
   -7.7981    0.2542   -1.5307 H   0  0  0  0  0  0  0  0  0  0  0  0
   -9.0094   -0.1765   -0.3085 H   0  0  0  0  0  0  0  0  0  0  0  0
   -8.1020    1.3406   -0.1681 H   0  0  0  0  0  0  0  0  0  0  0  0
   -6.9158   -1.4896    0.0552 H   0  0  0  0  0  0  0  0  0  0  0  0
   -7.2057   -0.3991    1.4201 H   0  0  0  0  0  0  0  0  0  0  0  0
   -4.8092   -1.1518   -1.3262 H   0  0  0  0  0  0  0  0  0  0  0  0
   -1.6052   -1.4776    0.4628 H   0  0  0  0  0  0  0  0  0  0  0  0
   -1.1215   -0.4272    1.8046 H   0  0  0  0  0  0  0  0  0  0  0  0
    0.8424   -1.7888    1.5827 H   0  0  0  0  0  0  0  0  0  0  0  0
    0.6233   -1.9417   -0.1662 H   0  0  0  0  0  0  0  0  0  0  0  0
    1.4087    0.5783    1.3871 H   0  0  0  0  0  0  0  0  0  0  0  0
    6.8889   -1.1040   -1.7381 H   0  0  0  0  0  0  0  0  0  0  0  0
   10.0089    0.1629    0.6436 H   0  0  0  0  0  0  0  0  0  0  0  0
    8.3666    1.0442    2.3390 H   0  0  0  0  0  0  0  0  0  0  0  0
    0.6087    0.4170   -1.5656 H   0  0  0  0  0  0  0  0  0  0  0  0
    0.6863    1.8513   -0.5124 H   0  0  0  0  0  0  0  0  0  0  0  0
   -3.5199    2.3390    0.8749 H   0  0  0  0  0  0  0  0  0  0  0  0
  1  2  1  0
  2  3  1  0
  3  4  1  0
  4  5  2  0
  5  6  1  0
  6  7  2  0
  6  8  2  0
  6  9  1  0
  9 10  1  0
 10 11  1  0
 11 12  1  0
 12 13  1  0
 13 14  2  0
 14 15  1  0
 15 16  1  0
 16 17  1  0
 17 18  2  0
 18 19  1  0
 19 20  2  0
 20 21  1  0
 21 22  2  0
 16 23  2  0
 12 24  1  0
  5 25  1  0
 25 26  2  0
 26  3  1  0
 24  9  1  0
 23 13  1  0
 22 17  1  0
  1 27  1  0
  1 28  1  0
  1 29  1  0
  2 30  1  0
  2 31  1  0
  4 32  1  0
 10 33  1  0
 10 34  1  0
 11 35  1  0
 11 36  1  0
 12 37  1  0
 18 38  1  0
 20 39  1  0
 21 40  1  0
 24 41  1  0
 24 42  1  0
 25 43  1  0
M  END
$$$$
