
     RDKit          3D

 67 69  0  0  0  0  0  0  0  0999 V2000
   -9.9224   -0.7115   -0.3461 O   0  0  0  0  0  0  0  0  0  0  0  0
   -9.2432   -0.3926    0.6398 N   0  0  0  0  0  4  0  0  0  0  0  0
   -9.6508   -0.4114    1.8091 O   0  0  0  0  0  1  0  0  0  0  0  0
   -7.8596    0.0363    0.4052 C   0  0  0  0  0  0  0  0  0  0  0  0
   -7.0327    0.3440    1.4933 C   0  0  0  0  0  0  0  0  0  0  0  0
   -5.7160    0.7533    1.2656 C   0  0  0  0  0  0  0  0  0  0  0  0
   -5.2185    0.8553   -0.0425 C   0  0  0  0  0  0  0  0  0  0  0  0
   -3.7962    1.3147   -0.2956 C   0  0  0  0  0  0  0  0  0  0  0  0
   -2.9843    0.3261   -1.0108 N   0  0  0  0  0  0  0  0  0  0  0  0
   -2.7410   -0.9291   -0.2829 C   0  0  0  0  0  0  0  0  0  0  0  0
   -1.8513   -0.8735    0.9704 C   0  0  0  0  0  0  0  0  0  0  0  0
   -1.6991   -2.1604    1.5806 O   0  0  0  0  0  0  0  0  0  0  0  0
   -0.6994   -2.9788    0.9631 C   0  0  0  0  0  0  0  0  0  0  0  0
    0.7124   -2.6355    1.4530 C   0  0  0  0  0  0  0  0  0  0  0  0
    1.7114   -3.1695    0.5792 O   0  0  0  0  0  0  0  0  0  0  0  0
    1.9820   -2.3261   -0.5473 C   0  0  0  0  0  0  0  0  0  0  0  0
    3.0763   -1.2907   -0.2184 C   0  0  0  0  0  0  0  0  0  0  0  0
    2.9917   -0.1007   -1.0748 N   0  0  0  0  0  0  0  0  0  0  0  0
    4.2777    0.5548   -1.3509 C   0  0  0  0  0  0  0  0  0  0  0  0
    5.3022    0.6587   -0.2329 C   0  0  0  0  0  0  0  0  0  0  0  0
    4.9890    1.1404    1.0496 C   0  0  0  0  0  0  0  0  0  0  0  0
    5.9761    1.2546    2.0364 C   0  0  0  0  0  0  0  0  0  0  0  0
    7.2995    0.9079    1.7354 C   0  0  0  0  0  0  0  0  0  0  0  0
    8.3411    1.0378    2.7611 N   0  0  0  0  0  4  0  0  0  0  0  0
    7.9888    1.3808    3.8993 O   0  0  0  0  0  0  0  0  0  0  0  0
    9.5130    0.7980    2.4306 O   0  0  0  0  0  1  0  0  0  0  0  0
    7.6398    0.4480    0.4587 C   0  0  0  0  0  0  0  0  0  0  0  0
    6.6429    0.3269   -0.5140 C   0  0  0  0  0  0  0  0  0  0  0  0
    1.9185    0.8293   -0.7020 C   0  0  0  0  0  0  0  0  0  0  0  0
    1.2195    1.4279   -1.9374 C   0  0  0  0  0  0  0  0  0  0  0  0
    0.2036    2.3828   -1.6186 O   0  0  0  0  0  0  0  0  0  0  0  0
   -0.9310    1.9061   -0.8903 C   0  0  0  0  0  0  0  0  0  0  0  0
   -1.7951    0.8903   -1.6723 C   0  0  0  0  0  0  0  0  0  0  0  0
   -6.0616    0.5426   -1.1221 C   0  0  0  0  0  0  0  0  0  0  0  0
   -7.3783    0.1323   -0.9047 C   0  0  0  0  0  0  0  0  0  0  0  0
   -7.3997    0.2688    2.5157 H   0  0  0  0  0  0  0  0  0  0  0  0
   -5.0784    0.9873    2.1160 H   0  0  0  0  0  0  0  0  0  0  0  0
   -3.8804    2.2286   -0.8979 H   0  0  0  0  0  0  0  0  0  0  0  0
   -3.3180    1.6138    0.6437 H   0  0  0  0  0  0  0  0  0  0  0  0
   -2.3215   -1.6519   -0.9935 H   0  0  0  0  0  0  0  0  0  0  0  0
   -3.6963   -1.3890   -0.0028 H   0  0  0  0  0  0  0  0  0  0  0  0
   -0.8685   -0.4673    0.7391 H   0  0  0  0  0  0  0  0  0  0  0  0
   -2.3089   -0.2228    1.7205 H   0  0  0  0  0  0  0  0  0  0  0  0
   -0.9172   -4.0203    1.2298 H   0  0  0  0  0  0  0  0  0  0  0  0
   -0.7765   -2.9323   -0.1291 H   0  0  0  0  0  0  0  0  0  0  0  0
    0.8608   -3.0882    2.4387 H   0  0  0  0  0  0  0  0  0  0  0  0
    0.8574   -1.5604    1.5937 H   0  0  0  0  0  0  0  0  0  0  0  0
    2.3321   -2.9696   -1.3613 H   0  0  0  0  0  0  0  0  0  0  0  0
    1.0555   -1.8553   -0.8972 H   0  0  0  0  0  0  0  0  0  0  0  0
    4.0376   -1.8058   -0.3613 H   0  0  0  0  0  0  0  0  0  0  0  0
    3.0405   -1.0111    0.8418 H   0  0  0  0  0  0  0  0  0  0  0  0
    4.7256   -0.0161   -2.1731 H   0  0  0  0  0  0  0  0  0  0  0  0
    4.1289    1.5625   -1.7585 H   0  0  0  0  0  0  0  0  0  0  0  0
    3.9697    1.4246    1.3035 H   0  0  0  0  0  0  0  0  0  0  0  0
    5.6969    1.6173    3.0243 H   0  0  0  0  0  0  0  0  0  0  0  0
    8.6673    0.1870    0.2009 H   0  0  0  0  0  0  0  0  0  0  0  0
    6.9244   -0.0274   -1.5063 H   0  0  0  0  0  0  0  0  0  0  0  0
    2.2736    1.6403   -0.0551 H   0  0  0  0  0  0  0  0  0  0  0  0
    1.1647    0.3072   -0.1075 H   0  0  0  0  0  0  0  0  0  0  0  0
    1.9551    1.9691   -2.5392 H   0  0  0  0  0  0  0  0  0  0  0  0
    0.8124    0.6462   -2.5842 H   0  0  0  0  0  0  0  0  0  0  0  0
   -1.5335    2.7950   -0.6798 H   0  0  0  0  0  0  0  0  0  0  0  0
   -0.6097    1.5296    0.0810 H   0  0  0  0  0  0  0  0  0  0  0  0
   -2.1336    1.3966   -2.5887 H   0  0  0  0  0  0  0  0  0  0  0  0
   -1.1731    0.0679   -2.0475 H   0  0  0  0  0  0  0  0  0  0  0  0
   -5.6848    0.6133   -2.1411 H   0  0  0  0  0  0  0  0  0  0  0  0
   -8.0073   -0.1067   -1.7569 H   0  0  0  0  0  0  0  0  0  0  0  0
  1  2  2  0
  2  3  1  0
  2  4  1  0
  4  5  2  0
  5  6  1  0
  6  7  2  0
  7  8  1  0
  8  9  1  0
  9 10  1  0
 10 11  1  0
 11 12  1  0
 12 13  1  0
 13 14  1  0
 14 15  1  0
 15 16  1  0
 16 17  1  0
 17 18  1  0
 18 19  1  0
 19 20  1  0
 20 21  2  0
 21 22  1  0
 22 23  2  0
 23 24  1  0
 24 25  2  0
 24 26  1  0
 23 27  1  0
 27 28  2  0
 18 29  1  0
 29 30  1  0
 30 31  1  0
 31 32  1  0
 32 33  1  0
  7 34  1  0
 34 35  2  0
 35  4  1  0
 33  9  1  0
 28 20  1  0
  5 36  1  0
  6 37  1  0
  8 38  1  0
  8 39  1  0
 10 40  1  0
 10 41  1  0
 11 42  1  0
 11 43  1  0
 13 44  1  0
 13 45  1  0
 14 46  1  0
 14 47  1  0
 16 48  1  0
 16 49  1  0
 17 50  1  0
 17 51  1  0
 19 52  1  0
 19 53  1  0
 21 54  1  0
 22 55  1  0
 27 56  1  0
 28 57  1  0
 29 58  1  0
 29 59  1  0
 30 60  1  0
 30 61  1  0
 32 62  1  0
 32 63  1  0
 33 64  1  0
 33 65  1  0
 34 66  1  0
 35 67  1  0
M  CHG  4   2   1   3  -1  24   1  26  -1
M  END
$$$$
