
     RDKit          3D

 63 65  0  0  0  0  0  0  0  0999 V2000
    5.0371   -0.3440    2.5948 C   0  0  0  0  0  0  0  0  0  0  0  0
    4.2266    0.4594    1.8896 C   0  0  0  0  0  0  0  0  0  0  0  0
    3.4828    0.1464    0.5952 C   0  0  1  0  0  0  0  0  0  0  0  0
    4.3504    0.7208   -0.5335 C   0  0  0  0  0  0  0  0  0  0  0  0
    3.2541   -1.3633    0.4200 C   0  0  0  0  0  0  0  0  0  0  0  0
    1.9990   -1.6566   -0.3645 C   0  0  0  0  0  0  0  0  0  0  0  0
    2.0054   -2.5189   -1.2416 O   0  0  0  0  0  0  0  0  0  0  0  0
    0.7479   -0.8658    0.0586 C   0  0  1  0  0  0  0  0  0  0  0  0
    0.6668   -1.1192    1.5000 O   0  0  0  0  0  0  0  0  0  0  0  0
    1.1092    0.6316   -0.1118 C   0  0  2  0  0  0  0  0  0  0  0  0
    1.4403    1.1038   -1.5378 C   0  0  0  0  0  0  0  0  0  0  0  0
    2.2585    0.8890    0.7554 O   0  0  0  0  0  0  0  0  0  0  0  0
   -0.0458    1.4891    0.5019 C   0  0  1  0  0  0  0  0  0  0  0  0
    0.2406    2.8928    0.2578 O   0  0  0  0  0  0  0  0  0  0  0  0
   -0.3452    3.7861    1.0953 C   0  0  0  0  0  0  0  0  0  0  0  0
    0.0738    5.1777    0.7355 C   0  0  0  0  0  0  0  0  0  0  0  0
   -1.1027    3.5067    2.0135 O   0  0  0  0  0  0  0  0  0  0  0  0
   -1.4619    1.1249   -0.0163 C   0  0  1  0  0  0  0  0  0  0  0  0
   -1.6278    1.6059   -1.3444 O   0  0  0  0  0  0  0  0  0  0  0  0
   -1.7668   -0.3983    0.0876 C   0  0  1  0  0  0  0  0  0  0  0  0
   -3.2594   -0.8172   -0.2321 C   0  0  0  0  0  0  0  0  0  0  0  0
   -3.7503   -0.5399   -1.6661 C   0  0  0  0  0  0  0  0  0  0  0  0
   -4.2277   -0.0536    0.7104 C   0  0  0  0  0  0  0  0  0  0  0  0
   -3.4406   -2.3267    0.0785 C   0  0  0  0  0  0  0  0  0  0  0  0
   -2.3995   -3.2251   -0.5850 C   0  0  0  0  0  0  0  0  0  0  0  0
   -0.9717   -2.8122   -0.2028 C   0  0  2  0  0  0  0  0  0  0  0  0
   -0.8731   -3.0880    1.1991 O   0  0  0  0  0  0  0  0  0  0  0  0
   -0.6391   -1.3141   -0.5684 C   0  0  2  0  0  0  0  0  0  0  0  0
   -0.5989   -1.2118   -2.1179 C   0  0  0  0  0  0  0  0  0  0  0  0
    5.5056    0.0149    3.5075 H   0  0  0  0  0  0  0  0  0  0  0  0
    5.2803   -1.3553    2.2877 H   0  0  0  0  0  0  0  0  0  0  0  0
    4.0796    1.4710    2.2695 H   0  0  0  0  0  0  0  0  0  0  0  0
    4.3164    1.8165   -0.5434 H   0  0  0  0  0  0  0  0  0  0  0  0
    5.3984    0.4124   -0.4324 H   0  0  0  0  0  0  0  0  0  0  0  0
    4.0313    0.3755   -1.5183 H   0  0  0  0  0  0  0  0  0  0  0  0
    4.1124   -1.8390   -0.0700 H   0  0  0  0  0  0  0  0  0  0  0  0
    3.1168   -1.8702    1.3833 H   0  0  0  0  0  0  0  0  0  0  0  0
    1.2779   -0.4974    1.9493 H   0  0  0  0  0  0  0  0  0  0  0  0
    0.5623    1.2995   -2.1492 H   0  0  0  0  0  0  0  0  0  0  0  0
    2.0217    2.0320   -1.5170 H   0  0  0  0  0  0  0  0  0  0  0  0
    2.0310    0.3674   -2.0852 H   0  0  0  0  0  0  0  0  0  0  0  0
   -0.0279    1.3358    1.5903 H   0  0  0  0  0  0  0  0  0  0  0  0
   -0.4689    5.8905    1.3622 H   0  0  0  0  0  0  0  0  0  0  0  0
    1.1451    5.2986    0.9112 H   0  0  0  0  0  0  0  0  0  0  0  0
   -0.1722    5.3820   -0.3097 H   0  0  0  0  0  0  0  0  0  0  0  0
   -2.1790    1.6776    0.5988 H   0  0  0  0  0  0  0  0  0  0  0  0
   -2.4403    2.1400   -1.3678 H   0  0  0  0  0  0  0  0  0  0  0  0
   -1.6858   -0.5905    1.1697 H   0  0  0  0  0  0  0  0  0  0  0  0
   -3.7529    0.5247   -1.9081 H   0  0  0  0  0  0  0  0  0  0  0  0
   -3.1749   -1.0598   -2.4301 H   0  0  0  0  0  0  0  0  0  0  0  0
   -4.7870   -0.8795   -1.7852 H   0  0  0  0  0  0  0  0  0  0  0  0
   -4.2671    1.0161    0.4765 H   0  0  0  0  0  0  0  0  0  0  0  0
   -5.2506   -0.4385    0.6209 H   0  0  0  0  0  0  0  0  0  0  0  0
   -3.9272   -0.1612    1.7601 H   0  0  0  0  0  0  0  0  0  0  0  0
   -3.3886   -2.4794    1.1660 H   0  0  0  0  0  0  0  0  0  0  0  0
   -4.4434   -2.6625   -0.2198 H   0  0  0  0  0  0  0  0  0  0  0  0
   -2.5791   -4.2525   -0.2440 H   0  0  0  0  0  0  0  0  0  0  0  0
   -2.5464   -3.2374   -1.6680 H   0  0  0  0  0  0  0  0  0  0  0  0
   -0.2701   -3.4870   -0.7052 H   0  0  0  0  0  0  0  0  0  0  0  0
   -0.1571   -2.5350    1.5684 H   0  0  0  0  0  0  0  0  0  0  0  0
   -1.2387   -1.9437   -2.6124 H   0  0  0  0  0  0  0  0  0  0  0  0
    0.3948   -1.4067   -2.5248 H   0  0  0  0  0  0  0  0  0  0  0  0
   -0.8982   -0.2380   -2.5018 H   0  0  0  0  0  0  0  0  0  0  0  0
  1  2  2  3
  2  3  1  0
  3  4  1  6
  3  5  1  0
  5  6  1  0
  6  7  2  0
  6  8  1  0
  8  9  1  1
  8 10  1  0
 10 11  1  6
 10 12  1  0
 10 13  1  0
 13 14  1  0
 14 15  1  0
 15 16  1  0
 15 17  2  0
 13 18  1  0
 18 19  1  0
 18 20  1  0
 20 21  1  0
 21 22  1  0
 21 23  1  0
 21 24  1  0
 24 25  1  0
 25 26  1  0
 26 27  1  0
 26 28  1  0
 28 29  1  6
 12  3  1  0
 28 20  1  0
 28  8  1  0
  1 30  1  0
  1 31  1  0
  2 32  1  0
  4 33  1  0
  4 34  1  0
  4 35  1  0
  5 36  1  0
  5 37  1  0
  9 38  1  0
 11 39  1  0
 11 40  1  0
 11 41  1  0
 13 42  1  1
 16 43  1  0
 16 44  1  0
 16 45  1  0
 18 46  1  1
 19 47  1  0
 20 48  1  1
 22 49  1  0
 22 50  1  0
 22 51  1  0
 23 52  1  0
 23 53  1  0
 23 54  1  0
 24 55  1  0
 24 56  1  0
 25 57  1  0
 25 58  1  0
 26 59  1  6
 27 60  1  0
 29 61  1  0
 29 62  1  0
 29 63  1  0
M  END
$$$$
