
     RDKit          3D

 56 59  0  0  0  0  0  0  0  0999 V2000
    1.3520   -0.5946    3.0713 C   0  0  0  0  0  0  0  0  0  0  0  0
    1.1904   -1.2449    2.0729 C   0  0  0  0  0  0  0  0  0  0  0  0
    1.0147   -2.0345    0.8427 C   0  0  0  0  0  0  0  0  0  0  0  0
    1.0095   -1.1505   -0.3414 N   0  0  0  0  0  0  0  0  0  0  0  0
    1.8080   -1.6356   -1.4825 C   0  0  0  0  0  0  0  0  0  0  0  0
    3.3025   -1.4627   -1.2552 C   0  0  0  0  0  0  0  0  0  0  0  0
    3.7793   -0.4035   -0.4570 C   0  0  0  0  0  0  0  0  0  0  0  0
    5.1520   -0.2213   -0.2589 C   0  0  0  0  0  0  0  0  0  0  0  0
    5.6670    0.8597    0.6000 C   0  0  0  0  0  0  0  0  0  0  0  0
    4.9307    1.6441    1.1878 O   0  0  0  0  0  0  0  0  0  0  0  0
    7.0334    0.9275    0.7084 N   0  0  0  0  0  0  0  0  0  0  0  0
    7.8792    0.0555    0.0802 C   0  0  0  0  0  0  0  0  0  0  0  0
    9.3460    0.2729    0.3113 C   0  0  0  0  0  0  0  0  0  0  0  0
    7.4729   -0.9027   -0.6866 N   0  0  0  0  0  0  0  0  0  0  0  0
    6.0875   -1.0588   -0.8653 C   0  0  0  0  0  0  0  0  0  0  0  0
    5.6275   -2.0887   -1.6842 C   0  0  0  0  0  0  0  0  0  0  0  0
    4.2545   -2.2879   -1.8844 C   0  0  0  0  0  0  0  0  0  0  0  0
    3.7638   -3.7047   -3.0542 Br  0  0  0  0  0  0  0  0  0  0  0  0
   -0.3019   -0.7535   -0.6793 C   0  0  0  0  0  0  0  0  0  0  0  0
   -0.8094    0.4258   -0.1152 C   0  0  0  0  0  0  0  0  0  0  0  0
   -2.1095    0.8628   -0.3920 C   0  0  0  0  0  0  0  0  0  0  0  0
   -2.9319    0.1097   -1.2343 C   0  0  0  0  0  0  0  0  0  0  0  0
   -4.3299    0.5104   -1.5526 C   0  0  0  0  0  0  0  0  0  0  0  0
   -4.8398    0.1673   -2.6134 O   0  0  0  0  0  0  0  0  0  0  0  0
   -4.9999    1.2256   -0.5843 N   0  0  0  0  0  0  0  0  0  0  0  0
   -6.3719    1.6419   -0.7606 C   0  0  0  0  0  0  0  0  0  0  0  0
   -7.1279    1.5334    0.5279 C   0  0  0  0  0  0  0  0  0  0  0  0
   -7.4060    2.6489    1.3224 C   0  0  0  0  0  0  0  0  0  0  0  0
   -8.0968    2.4857    2.5206 C   0  0  0  0  0  0  0  0  0  0  0  0
   -8.4875    1.2085    2.8870 C   0  0  0  0  0  0  0  0  0  0  0  0
   -8.2359    0.1074    2.1482 N   0  0  0  0  0  0  0  0  0  0  0  0
   -7.5599    0.2934    0.9899 C   0  0  0  0  0  0  0  0  0  0  0  0
   -2.4321   -1.0616   -1.8153 C   0  0  0  0  0  0  0  0  0  0  0  0
   -1.1310   -1.4911   -1.5357 C   0  0  0  0  0  0  0  0  0  0  0  0
    1.5107   -0.0095    3.9459 H   0  0  0  0  0  0  0  0  0  0  0  0
    1.8446   -2.7495    0.7816 H   0  0  0  0  0  0  0  0  0  0  0  0
    0.1035   -2.6433    0.9018 H   0  0  0  0  0  0  0  0  0  0  0  0
    1.5680   -1.0682   -2.3925 H   0  0  0  0  0  0  0  0  0  0  0  0
    1.5588   -2.6884   -1.6558 H   0  0  0  0  0  0  0  0  0  0  0  0
    3.0800    0.2813    0.0213 H   0  0  0  0  0  0  0  0  0  0  0  0
    7.3857    1.6647    1.3017 H   0  0  0  0  0  0  0  0  0  0  0  0
    9.5251    0.8992    1.1889 H   0  0  0  0  0  0  0  0  0  0  0  0
    9.8368   -0.6928    0.4547 H   0  0  0  0  0  0  0  0  0  0  0  0
    9.7766    0.7592   -0.5687 H   0  0  0  0  0  0  0  0  0  0  0  0
    6.3576   -2.7348   -2.1682 H   0  0  0  0  0  0  0  0  0  0  0  0
   -0.1739    1.0210    0.5379 H   0  0  0  0  0  0  0  0  0  0  0  0
   -2.4433    1.8013    0.0392 H   0  0  0  0  0  0  0  0  0  0  0  0
   -4.5579    1.4253    0.3025 H   0  0  0  0  0  0  0  0  0  0  0  0
   -6.3506    2.6798   -1.1073 H   0  0  0  0  0  0  0  0  0  0  0  0
   -6.8670    1.0552   -1.5430 H   0  0  0  0  0  0  0  0  0  0  0  0
   -7.0910    3.6432    1.0152 H   0  0  0  0  0  0  0  0  0  0  0  0
   -8.3219    3.3343    3.1571 H   0  0  0  0  0  0  0  0  0  0  0  0
   -9.0268    1.0312    3.8131 H   0  0  0  0  0  0  0  0  0  0  0  0
   -7.3676   -0.6148    0.4225 H   0  0  0  0  0  0  0  0  0  0  0  0
   -3.0596   -1.6512   -2.4808 H   0  0  0  0  0  0  0  0  0  0  0  0
   -0.7877   -2.4187   -1.9851 H   0  0  0  0  0  0  0  0  0  0  0  0
  1  2  3  0
  2  3  1  0
  3  4  1  0
  4  5  1  0
  5  6  1  0
  6  7  2  0
  7  8  1  0
  8  9  1  0
  9 10  2  0
  9 11  1  0
 11 12  1  0
 12 13  1  0
 12 14  2  0
 14 15  1  0
 15 16  1  0
 16 17  2  0
 17 18  1  0
  4 19  1  0
 19 20  2  0
 20 21  1  0
 21 22  2  0
 22 23  1  0
 23 24  2  0
 23 25  1  0
 25 26  1  0
 26 27  1  0
 27 28  2  0
 28 29  1  0
 29 30  2  0
 30 31  1  0
 31 32  2  0
 22 33  1  0
 33 34  2  0
 17  6  1  0
 34 19  1  0
 15  8  2  0
 32 27  1  0
  1 35  1  0
  3 36  1  0
  3 37  1  0
  5 38  1  0
  5 39  1  0
  7 40  1  0
 11 41  1  0
 13 42  1  0
 13 43  1  0
 13 44  1  0
 16 45  1  0
 20 46  1  0
 21 47  1  0
 25 48  1  0
 26 49  1  0
 26 50  1  0
 28 51  1  0
 29 52  1  0
 30 53  1  0
 32 54  1  0
 33 55  1  0
 34 56  1  0
M  END
$$$$
