
     RDKit          3D

 51 53  0  0  0  0  0  0  0  0999 V2000
   -2.4760    1.3504   -0.5885 C   0  0  0  0  0  0  0  0  0  0  0  0
   -2.8478    0.4526    0.5030 N   0  0  0  0  0  0  0  0  0  0  0  0
   -1.9182   -0.4065    1.1063 C   0  0  0  0  0  0  0  0  0  0  0  0
   -2.2590   -1.3182    1.8617 O   0  0  0  0  0  0  0  0  0  0  0  0
   -0.4476   -0.1542    0.8046 C   0  0  0  0  0  0  0  0  0  0  0  0
    0.4669   -1.1598    1.5098 C   0  0  0  0  0  0  0  0  0  0  0  0
    1.9441   -0.8487    1.2851 C   0  0  0  0  0  0  0  0  0  0  0  0
    2.2212   -0.9074   -0.1138 O   0  0  0  0  0  0  0  0  0  0  0  0
    3.5045   -0.6505   -0.5109 C   0  0  0  0  0  0  0  0  0  0  0  0
    3.7065   -0.7191   -1.8939 C   0  0  0  0  0  0  0  0  0  0  0  0
    4.9657   -0.4785   -2.4464 C   0  0  0  0  0  0  0  0  0  0  0  0
    6.0294   -0.1672   -1.6050 C   0  0  0  0  0  0  0  0  0  0  0  0
    7.2989    0.0778   -2.1441 N   0  0  0  0  0  0  0  0  0  0  0  0
    8.3941    0.3893   -1.3851 C   0  0  0  0  0  0  0  0  0  0  0  0
    9.4967    0.6016   -1.8771 O   0  0  0  0  0  0  0  0  0  0  0  0
    8.1908    0.4617    0.0826 C   0  0  0  0  0  0  0  0  0  0  0  0
    6.9908    0.2334    0.6330 C   0  0  0  0  0  0  0  0  0  0  0  0
    5.8446   -0.0957   -0.2171 C   0  0  0  0  0  0  0  0  0  0  0  0
    4.5776   -0.3389    0.3279 C   0  0  0  0  0  0  0  0  0  0  0  0
   -4.2797    0.1185    0.6832 C   0  0  0  0  0  0  0  0  0  0  0  0
   -5.2138    1.3464    0.7478 C   0  0  0  0  0  0  0  0  0  0  0  0
   -6.0020    1.5539   -0.5419 C   0  0  0  0  0  0  0  0  0  0  0  0
   -6.8632    0.3383   -0.8892 C   0  0  0  0  0  0  0  0  0  0  0  0
   -6.2580   -0.9924   -0.4399 C   0  0  0  0  0  0  0  0  0  0  0  0
   -4.7385   -0.9273   -0.3536 C   0  0  0  0  0  0  0  0  0  0  0  0
   -1.4525    1.7142   -0.4837 H   0  0  0  0  0  0  0  0  0  0  0  0
   -3.1256    2.2269   -0.6045 H   0  0  0  0  0  0  0  0  0  0  0  0
   -2.5582    0.8098   -1.5352 H   0  0  0  0  0  0  0  0  0  0  0  0
   -0.2966   -0.2258   -0.2779 H   0  0  0  0  0  0  0  0  0  0  0  0
   -0.1962    0.8577    1.1415 H   0  0  0  0  0  0  0  0  0  0  0  0
    0.2452   -2.1654    1.1307 H   0  0  0  0  0  0  0  0  0  0  0  0
    0.2630   -1.1654    2.5871 H   0  0  0  0  0  0  0  0  0  0  0  0
    2.1683    0.1516    1.6749 H   0  0  0  0  0  0  0  0  0  0  0  0
    2.5448   -1.5962    1.8169 H   0  0  0  0  0  0  0  0  0  0  0  0
    2.8716   -0.9649   -2.5465 H   0  0  0  0  0  0  0  0  0  0  0  0
    5.0985   -0.5383   -3.5223 H   0  0  0  0  0  0  0  0  0  0  0  0
    7.4507    0.0299   -3.1420 H   0  0  0  0  0  0  0  0  0  0  0  0
    9.0636    0.7074    0.6741 H   0  0  0  0  0  0  0  0  0  0  0  0
    6.8517    0.2877    1.7066 H   0  0  0  0  0  0  0  0  0  0  0  0
    4.4517   -0.2817    1.4036 H   0  0  0  0  0  0  0  0  0  0  0  0
   -4.3682   -0.3543    1.6708 H   0  0  0  0  0  0  0  0  0  0  0  0
   -4.6653    2.2554    1.0184 H   0  0  0  0  0  0  0  0  0  0  0  0
   -5.9389    1.1873    1.5579 H   0  0  0  0  0  0  0  0  0  0  0  0
   -6.6406    2.4403   -0.4544 H   0  0  0  0  0  0  0  0  0  0  0  0
   -5.3107    1.7523   -1.3692 H   0  0  0  0  0  0  0  0  0  0  0  0
   -7.8555    0.4441   -0.4340 H   0  0  0  0  0  0  0  0  0  0  0  0
   -7.0268    0.3237   -1.9737 H   0  0  0  0  0  0  0  0  0  0  0  0
   -6.5658   -1.7872   -1.1288 H   0  0  0  0  0  0  0  0  0  0  0  0
   -6.6621   -1.2609    0.5445 H   0  0  0  0  0  0  0  0  0  0  0  0
   -4.3366   -0.6957   -1.3474 H   0  0  0  0  0  0  0  0  0  0  0  0
   -4.3377   -1.9121   -0.0852 H   0  0  0  0  0  0  0  0  0  0  0  0
  1  2  1  0
  2  3  1  0
  3  4  2  0
  3  5  1  0
  5  6  1  0
  6  7  1  0
  7  8  1  0
  8  9  1  0
  9 10  2  0
 10 11  1  0
 11 12  2  0
 12 13  1  0
 13 14  1  0
 14 15  2  0
 14 16  1  0
 16 17  2  0
 17 18  1  0
 18 19  2  0
  2 20  1  0
 20 21  1  0
 21 22  1  0
 22 23  1  0
 23 24  1  0
 24 25  1  0
 19  9  1  0
 25 20  1  0
 18 12  1  0
  1 26  1  0
  1 27  1  0
  1 28  1  0
  5 29  1  0
  5 30  1  0
  6 31  1  0
  6 32  1  0
  7 33  1  0
  7 34  1  0
 10 35  1  0
 11 36  1  0
 13 37  1  0
 16 38  1  0
 17 39  1  0
 19 40  1  0
 20 41  1  0
 21 42  1  0
 21 43  1  0
 22 44  1  0
 22 45  1  0
 23 46  1  0
 23 47  1  0
 24 48  1  0
 24 49  1  0
 25 50  1  0
 25 51  1  0
M  END
$$$$
