
     RDKit          3D

 80 82  0  0  0  0  0  0  0  0999 V2000
   -8.4983    1.4557    2.5937 C   0  0  0  0  0  0  0  0  0  0  0  0
   -8.0123    0.1462    2.3240 O   0  0  0  0  0  0  0  0  0  0  0  0
   -6.8028    0.1161    1.5471 C   0  0  2  0  0  0  0  0  0  0  0  0
   -7.0773    0.4320    0.0584 C   0  0  1  0  0  0  0  0  0  0  0  0
   -6.9366    1.8713   -0.0858 O   0  0  0  0  0  0  0  0  0  0  0  0
   -7.7803    2.4663   -0.9551 C   0  0  0  0  0  0  0  0  0  0  0  0
   -7.4996    3.7861   -1.0270 N   0  0  0  0  0  0  0  0  0  0  0  0
   -8.6777    1.9381   -1.5887 O   0  0  0  0  0  0  0  0  0  0  0  0
   -6.0970   -0.2890   -0.8920 C   0  0  1  0  0  0  0  0  0  0  0  0
   -5.8835    0.4585   -2.1006 O   0  0  0  0  0  0  0  0  0  0  0  0
   -4.7613   -0.5918   -0.1862 C   0  0  2  0  0  0  0  0  0  0  0  0
   -3.9525   -1.3221   -1.1266 O   0  0  0  0  0  0  0  0  0  0  0  0
   -2.6688   -0.8953   -1.3373 C   0  0  0  0  0  0  0  0  0  0  0  0
   -2.3034   -0.8890   -2.6933 C   0  0  0  0  0  0  0  0  0  0  0  0
   -1.0112   -0.5464   -3.0954 C   0  0  0  0  0  0  0  0  0  0  0  0
   -0.0539   -0.2032   -2.1417 C   0  0  0  0  0  0  0  0  0  0  0  0
    1.3491    0.0618   -2.4570 C   0  0  0  0  0  0  0  0  0  0  0  0
    1.8234   -0.3375   -3.6981 O   0  0  0  0  0  0  0  0  0  0  0  0
    2.1932    0.5279   -1.5211 C   0  0  0  0  0  0  0  0  0  0  0  0
    3.5447    0.6024   -1.8083 N   0  0  0  0  0  0  0  0  0  0  0  0
    4.5547    0.4186   -0.8742 C   0  0  0  0  0  0  0  0  0  0  0  0
    4.3441    0.1287    0.2980 O   0  0  0  0  0  0  0  0  0  0  0  0
    5.9474    0.4220   -1.4093 C   0  0  0  0  0  0  0  0  0  0  0  0
    6.2830    0.9796   -2.6392 C   0  0  0  0  0  0  0  0  0  0  0  0
    7.5980    0.8783   -3.1108 C   0  0  0  0  0  0  0  0  0  0  0  0
    8.6431    0.2443   -2.4052 C   0  0  0  0  0  0  0  0  0  0  0  0
    9.8150    0.1731   -2.9072 O   0  0  0  0  0  1  0  0  0  0  0  0
    8.2769   -0.2785   -1.1352 C   0  0  0  0  0  0  0  0  0  0  0  0
    9.3008   -0.9506   -0.2259 C   0  0  0  0  0  0  0  0  0  0  0  0
    9.7518   -0.0316    0.8857 C   0  0  0  0  0  0  0  0  0  0  0  0
    9.6259   -0.1777    2.2200 C   0  0  0  0  0  0  0  0  0  0  0  0
   10.1517    0.8788    3.1541 C   0  0  0  0  0  0  0  0  0  0  0  0
    8.9657   -1.3407    2.9034 C   0  0  0  0  0  0  0  0  0  0  0  0
    6.9510   -0.1845   -0.6520 C   0  0  0  0  0  0  0  0  0  0  0  0
    1.6458    0.9486   -0.1974 C   0  0  0  0  0  0  0  0  0  0  0  0
    2.1256    1.8413    0.4949 O   0  0  0  0  0  0  0  0  0  0  0  0
    0.4676    0.3042    0.1791 O   0  0  0  0  0  0  0  0  0  0  0  0
   -0.4381   -0.1797   -0.7968 C   0  0  0  0  0  0  0  0  0  0  0  0
   -1.7159   -0.5836   -0.3561 C   0  0  0  0  0  0  0  0  0  0  0  0
   -1.9765   -0.6989    1.1209 C   0  0  0  0  0  0  0  0  0  0  0  0
   -4.9263   -1.4027    0.9741 O   0  0  0  0  0  0  0  0  0  0  0  0
   -6.1288   -1.2637    1.7373 C   0  0  0  0  0  0  0  0  0  0  0  0
   -5.6958   -1.4303    3.2053 C   0  0  0  0  0  0  0  0  0  0  0  0
   -7.0580   -2.4425    1.4001 C   0  0  0  0  0  0  0  0  0  0  0  0
    0.0000    0.0000    0.0000 Na  0  0  0  0  0 15  0  0  0  0  0  0
   -8.8954    1.9160    1.6863 H   0  0  0  0  0  0  0  0  0  0  0  0
   -7.7178    2.0816    3.0344 H   0  0  0  0  0  0  0  0  0  0  0  0
   -9.3130    1.3701    3.3178 H   0  0  0  0  0  0  0  0  0  0  0  0
   -6.1173    0.8798    1.9460 H   0  0  0  0  0  0  0  0  0  0  0  0
   -8.1048    0.1363   -0.1908 H   0  0  0  0  0  0  0  0  0  0  0  0
   -6.6208    4.1034   -0.6422 H   0  0  0  0  0  0  0  0  0  0  0  0
   -7.9335    4.3076   -1.7736 H   0  0  0  0  0  0  0  0  0  0  0  0
   -6.5461   -1.2391   -1.2054 H   0  0  0  0  0  0  0  0  0  0  0  0
   -5.2177   -0.0367   -2.6122 H   0  0  0  0  0  0  0  0  0  0  0  0
   -4.2912    0.3608    0.0843 H   0  0  0  0  0  0  0  0  0  0  0  0
   -3.0341   -1.1728   -3.4491 H   0  0  0  0  0  0  0  0  0  0  0  0
   -0.7680   -0.5586   -4.1564 H   0  0  0  0  0  0  0  0  0  0  0  0
    1.3913   -1.1825   -3.9197 H   0  0  0  0  0  0  0  0  0  0  0  0
    3.7883    0.4168   -2.7761 H   0  0  0  0  0  0  0  0  0  0  0  0
    5.5657    1.5106   -3.2539 H   0  0  0  0  0  0  0  0  0  0  0  0
    7.8401    1.3209   -4.0785 H   0  0  0  0  0  0  0  0  0  0  0  0
    8.8640   -1.8817    0.1499 H   0  0  0  0  0  0  0  0  0  0  0  0
   10.1867   -1.2712   -0.7868 H   0  0  0  0  0  0  0  0  0  0  0  0
   10.2365    0.8642    0.4944 H   0  0  0  0  0  0  0  0  0  0  0  0
   10.9005    0.4534    3.8305 H   0  0  0  0  0  0  0  0  0  0  0  0
    9.3339    1.2960    3.7514 H   0  0  0  0  0  0  0  0  0  0  0  0
   10.6258    1.7094    2.6209 H   0  0  0  0  0  0  0  0  0  0  0  0
    8.1848   -0.9774    3.5802 H   0  0  0  0  0  0  0  0  0  0  0  0
    9.7024   -1.8938    3.4952 H   0  0  0  0  0  0  0  0  0  0  0  0
    8.4951   -2.0445    2.2121 H   0  0  0  0  0  0  0  0  0  0  0  0
    6.7150   -0.6010    0.3217 H   0  0  0  0  0  0  0  0  0  0  0  0
   -2.4889   -1.6393    1.3538 H   0  0  0  0  0  0  0  0  0  0  0  0
   -1.0490   -0.7282    1.7027 H   0  0  0  0  0  0  0  0  0  0  0  0
   -2.5609    0.1560    1.4795 H   0  0  0  0  0  0  0  0  0  0  0  0
   -6.5461   -1.3993    3.8964 H   0  0  0  0  0  0  0  0  0  0  0  0
   -4.9891   -0.6429    3.4923 H   0  0  0  0  0  0  0  0  0  0  0  0
   -5.1686   -2.3821    3.3508 H   0  0  0  0  0  0  0  0  0  0  0  0
   -6.5051   -3.3915    1.4355 H   0  0  0  0  0  0  0  0  0  0  0  0
   -7.4634   -2.3734    0.3861 H   0  0  0  0  0  0  0  0  0  0  0  0
   -7.9022   -2.5077    2.0958 H   0  0  0  0  0  0  0  0  0  0  0  0
  1  2  1  0
  2  3  1  0
  3  4  1  0
  4  5  1  0
  5  6  1  0
  6  7  1  0
  6  8  2  0
  4  9  1  0
  9 10  1  0
  9 11  1  0
 11 12  1  0
 12 13  1  0
 13 14  2  0
 14 15  1  0
 15 16  2  0
 16 17  1  0
 17 18  1  0
 17 19  2  0
 19 20  1  0
 20 21  1  0
 21 22  2  0
 21 23  1  0
 23 24  2  0
 24 25  1  0
 25 26  2  0
 26 27  1  0
 26 28  1  0
 28 29  1  0
 29 30  1  0
 30 31  2  3
 31 32  1  0
 31 33  1  0
 28 34  2  0
 19 35  1  0
 35 36  2  0
 35 37  1  0
 37 38  1  0
 38 39  2  0
 39 40  1  0
 11 41  1  0
 41 42  1  0
 42 43  1  0
 42 44  1  0
 42  3  1  0
 39 13  1  0
 38 16  1  0
 34 23  1  0
  1 46  1  0
  1 47  1  0
  1 48  1  0
  3 49  1  1
  4 50  1  6
  7 51  1  0
  7 52  1  0
  9 53  1  6
 10 54  1  0
 11 55  1  1
 14 56  1  0
 15 57  1  0
 18 58  1  0
 20 59  1  0
 24 60  1  0
 25 61  1  0
 29 62  1  0
 29 63  1  0
 30 64  1  0
 32 65  1  0
 32 66  1  0
 32 67  1  0
 33 68  1  0
 33 69  1  0
 33 70  1  0
 34 71  1  0
 40 72  1  0
 40 73  1  0
 40 74  1  0
 43 75  1  0
 43 76  1  0
 43 77  1  0
 44 78  1  0
 44 79  1  0
 44 80  1  0
M  CHG  2  27  -1  45   1
M  END
$$$$
