
     RDKit          3D

 56 60  0  0  0  0  0  0  0  0999 V2000
   -6.9471   -0.1092   -0.1685 C   0  0  0  0  0  0  0  0  0  0  0  0
   -5.8229   -0.0300   -1.0320 O   0  0  0  0  0  0  0  0  0  0  0  0
   -4.5923    0.2080   -0.4700 C   0  0  0  0  0  0  0  0  0  0  0  0
   -4.3581    0.3191    0.9063 C   0  0  0  0  0  0  0  0  0  0  0  0
   -3.0689    0.5578    1.4003 C   0  0  0  0  0  0  0  0  0  0  0  0
   -2.7644    0.6805    2.7315 O   0  0  0  0  0  0  0  0  0  0  0  0
   -3.8344    0.6431    3.6676 C   0  0  0  0  0  0  0  0  0  0  0  0
   -1.9854    0.6785    0.5087 C   0  0  0  0  0  0  0  0  0  0  0  0
   -0.5773    0.9473    1.0241 C   0  0  0  0  0  0  0  0  0  0  0  0
   -0.0650    2.3311    0.5825 C   0  0  0  0  0  0  0  0  0  0  0  0
    1.4540    2.4741    0.5786 C   0  0  0  0  0  0  0  0  0  0  0  0
    2.0001    3.5595    0.7716 O   0  0  0  0  0  0  0  0  0  0  0  0
    2.1982    1.3738    0.2294 N   0  0  0  0  0  0  0  0  0  0  0  0
    1.6167    0.1301    0.1825 C   0  0  0  0  0  0  0  0  0  0  0  0
    0.3186   -0.1420    0.5299 C   0  0  0  0  0  0  0  0  0  0  0  0
    0.2145   -1.5501    0.4179 C   0  0  0  0  0  0  0  0  0  0  0  0
   -0.9415   -2.4266    0.7409 C   0  0  0  0  0  0  0  0  0  0  0  0
    1.3533   -2.0986   -0.0329 N   0  0  0  0  0  0  0  0  0  0  0  0
    2.2304   -1.0607   -0.1507 N   0  0  0  0  0  0  0  0  0  0  0  0
    3.5711   -1.2654   -0.5534 C   0  0  0  0  0  0  0  0  0  0  0  0
    3.9212   -2.6883   -0.8592 C   0  0  0  0  0  0  0  0  0  0  0  0
    5.1787   -2.9404   -1.2473 C   0  0  0  0  0  0  0  0  0  0  0  0
    6.0954   -1.8750   -1.3465 C   0  0  0  0  0  0  0  0  0  0  0  0
    7.3621   -1.8188   -1.6922 N   0  0  0  0  0  0  0  0  0  0  0  0
    7.7613   -0.5027   -1.6094 N   0  0  0  0  0  0  0  0  0  0  0  0
    6.7277    0.2152   -1.2145 C   0  0  0  0  0  0  0  0  0  0  0  0
    6.6839    1.6740   -0.9871 C   0  0  0  0  0  0  0  0  0  0  0  0
    5.6434   -0.6096   -1.0337 N   0  0  0  0  0  0  0  0  0  0  0  0
    4.3854   -0.2486   -0.6298 N   0  0  0  0  0  0  0  0  0  0  0  0
   -2.2363    0.5773   -0.8779 C   0  0  0  0  0  0  0  0  0  0  0  0
   -3.5217    0.3369   -1.3710 C   0  0  0  0  0  0  0  0  0  0  0  0
   -3.8331    0.2151   -2.7019 O   0  0  0  0  0  0  0  0  0  0  0  0
   -2.7706    0.2891   -3.6414 C   0  0  0  0  0  0  0  0  0  0  0  0
   -6.8604   -0.9609    0.5139 H   0  0  0  0  0  0  0  0  0  0  0  0
   -7.8345   -0.2699   -0.7884 H   0  0  0  0  0  0  0  0  0  0  0  0
   -7.0912    0.8268    0.3811 H   0  0  0  0  0  0  0  0  0  0  0  0
   -5.1855    0.2152    1.5952 H   0  0  0  0  0  0  0  0  0  0  0  0
   -3.4106    0.7974    4.6645 H   0  0  0  0  0  0  0  0  0  0  0  0
   -4.3260   -0.3351    3.6634 H   0  0  0  0  0  0  0  0  0  0  0  0
   -4.5510    1.4499    3.4823 H   0  0  0  0  0  0  0  0  0  0  0  0
   -0.5323    0.9069    2.1194 H   0  0  0  0  0  0  0  0  0  0  0  0
   -0.3879    2.5806   -0.4363 H   0  0  0  0  0  0  0  0  0  0  0  0
   -0.4864    3.0979    1.2442 H   0  0  0  0  0  0  0  0  0  0  0  0
    3.2020    1.4801    0.1017 H   0  0  0  0  0  0  0  0  0  0  0  0
   -1.6851   -2.3917   -0.0609 H   0  0  0  0  0  0  0  0  0  0  0  0
   -1.4161   -2.1154    1.6766 H   0  0  0  0  0  0  0  0  0  0  0  0
   -0.6270   -3.4687    0.8630 H   0  0  0  0  0  0  0  0  0  0  0  0
    3.1844   -3.4774   -0.7695 H   0  0  0  0  0  0  0  0  0  0  0  0
    5.5119   -3.9439   -1.4874 H   0  0  0  0  0  0  0  0  0  0  0  0
    6.4139    1.8972    0.0498 H   0  0  0  0  0  0  0  0  0  0  0  0
    5.9516    2.1476   -1.6483 H   0  0  0  0  0  0  0  0  0  0  0  0
    7.6613    2.1239   -1.1867 H   0  0  0  0  0  0  0  0  0  0  0  0
   -1.3989    0.6822   -1.5614 H   0  0  0  0  0  0  0  0  0  0  0  0
   -2.2943    1.2748   -3.6210 H   0  0  0  0  0  0  0  0  0  0  0  0
   -2.0390   -0.5087   -3.4755 H   0  0  0  0  0  0  0  0  0  0  0  0
   -3.1959    0.1469   -4.6395 H   0  0  0  0  0  0  0  0  0  0  0  0
  1  2  1  0
  2  3  1  0
  3  4  2  0
  4  5  1  0
  5  6  1  0
  6  7  1  0
  5  8  2  0
  8  9  1  0
  9 10  1  0
 10 11  1  0
 11 12  2  0
 11 13  1  0
 13 14  1  0
 14 15  2  0
 15 16  1  0
 16 17  1  0
 16 18  2  0
 18 19  1  0
 19 20  1  0
 20 21  1  0
 21 22  2  0
 22 23  1  0
 23 24  2  0
 24 25  1  0
 25 26  2  0
 26 27  1  0
 26 28  1  0
 28 29  1  0
  8 30  1  0
 30 31  2  0
 31 32  1  0
 32 33  1  0
 31  3  1  0
 15  9  1  0
 29 20  2  0
 19 14  1  0
 28 23  1  0
  1 34  1  0
  1 35  1  0
  1 36  1  0
  4 37  1  0
  7 38  1  0
  7 39  1  0
  7 40  1  0
  9 41  1  0
 10 42  1  0
 10 43  1  0
 13 44  1  0
 17 45  1  0
 17 46  1  0
 17 47  1  0
 21 48  1  0
 22 49  1  0
 27 50  1  0
 27 51  1  0
 27 52  1  0
 30 53  1  0
 33 54  1  0
 33 55  1  0
 33 56  1  0
M  END
$$$$
