
     RDKit          3D

 53 55  0  0  0  0  0  0  0  0999 V2000
   -2.4442   -4.3443    2.1447 C   0  0  0  0  0  0  0  0  0  0  0  0
   -1.8180   -3.3787    1.1377 C   0  0  1  0  0  0  0  0  0  0  0  0
   -1.5813   -2.1501    1.8550 O   0  0  0  0  0  0  0  0  0  0  0  0
   -1.5187   -1.0149    1.0828 C   0  0  0  0  0  0  0  0  0  0  0  0
   -1.2795    0.1547    1.7597 C   0  0  0  0  0  0  0  0  0  0  0  0
   -1.2209    1.2689    0.9665 C   0  0  0  0  0  0  0  0  0  0  0  0
   -0.9325    2.5544    1.4978 N   0  0  0  0  0  0  0  0  0  0  0  0
    0.6945    2.7345    1.8921 S   0  0  0  0  0  6  0  0  0  0  0  0
    0.8191    2.2703    3.2554 O   0  0  0  0  0  0  0  0  0  0  0  0
    1.5254    2.2257    0.8301 O   0  0  0  0  0  0  0  0  0  0  0  0
    0.8046    4.3937    1.9007 N   0  0  0  0  0  0  0  0  0  0  0  0
    0.1173    5.3559    2.7927 C   0  0  0  0  0  0  0  0  0  0  0  0
    0.3021    6.4529    1.7272 C   0  0  0  0  0  0  0  0  0  0  0  0
    0.5853    5.2991    0.7470 C   0  0  0  0  0  0  0  0  0  0  0  0
   -1.3897    1.2603   -0.3597 N   0  0  0  0  0  0  0  0  0  0  0  0
   -1.5919    0.0619   -0.9140 C   0  0  0  0  0  0  0  0  0  0  0  0
   -1.7687   -0.0010   -2.6763 S   0  0  0  0  0  0  0  0  0  0  0  0
   -0.3431   -1.0640   -3.0565 C   0  0  0  0  0  0  0  0  0  0  0  0
    0.9836   -0.3849   -2.8516 C   0  0  0  0  0  0  0  0  0  0  0  0
    1.6991   -0.5531   -1.6556 C   0  0  0  0  0  0  0  0  0  0  0  0
    2.9125    0.1137   -1.4494 C   0  0  0  0  0  0  0  0  0  0  0  0
    3.4245    0.9558   -2.4324 C   0  0  0  0  0  0  0  0  0  0  0  0
    2.7236    1.1174   -3.6214 C   0  0  0  0  0  0  0  0  0  0  0  0
    3.2297    1.9195   -4.5675 F   0  0  0  0  0  0  0  0  0  0  0  0
    1.5180    0.4573   -3.8326 C   0  0  0  0  0  0  0  0  0  0  0  0
    0.8662    0.6251   -4.9926 F   0  0  0  0  0  0  0  0  0  0  0  0
   -1.6681   -1.0986   -0.2449 N   0  0  0  0  0  0  0  0  0  0  0  0
   -0.5025   -3.9157    0.5413 C   0  0  1  0  0  0  0  0  0  0  0  0
    0.3488   -4.4608    1.5667 O   0  0  0  0  0  0  0  0  0  0  0  0
   -0.7444   -4.9995   -0.5158 C   0  0  0  0  0  0  0  0  0  0  0  0
    0.5190   -5.3763   -1.0708 O   0  0  0  0  0  0  0  0  0  0  0  0
   -3.4143   -3.9614    2.4818 H   0  0  0  0  0  0  0  0  0  0  0  0
   -1.8316   -4.4509    3.0418 H   0  0  0  0  0  0  0  0  0  0  0  0
   -2.6082   -5.3351    1.7111 H   0  0  0  0  0  0  0  0  0  0  0  0
   -2.5600   -3.2189    0.3439 H   0  0  0  0  0  0  0  0  0  0  0  0
   -1.1308    0.1752    2.8284 H   0  0  0  0  0  0  0  0  0  0  0  0
   -1.4468    2.7245    2.3568 H   0  0  0  0  0  0  0  0  0  0  0  0
   -0.9292    5.0842    2.9882 H   0  0  0  0  0  0  0  0  0  0  0  0
    0.6375    5.5246    3.7430 H   0  0  0  0  0  0  0  0  0  0  0  0
    1.1583    7.1092    1.9002 H   0  0  0  0  0  0  0  0  0  0  0  0
   -0.5860    7.0585    1.5179 H   0  0  0  0  0  0  0  0  0  0  0  0
    1.4757    5.4113    0.1244 H   0  0  0  0  0  0  0  0  0  0  0  0
   -0.2669    5.0073    0.1264 H   0  0  0  0  0  0  0  0  0  0  0  0
   -0.3892   -1.9875   -2.4661 H   0  0  0  0  0  0  0  0  0  0  0  0
   -0.4336   -1.3828   -4.1007 H   0  0  0  0  0  0  0  0  0  0  0  0
    1.3171   -1.1918   -0.8617 H   0  0  0  0  0  0  0  0  0  0  0  0
    3.4398   -0.0106   -0.5065 H   0  0  0  0  0  0  0  0  0  0  0  0
    4.3509    1.4974   -2.2779 H   0  0  0  0  0  0  0  0  0  0  0  0
    0.0736   -3.1028    0.0884 H   0  0  0  0  0  0  0  0  0  0  0  0
    1.0958   -4.8656    1.0853 H   0  0  0  0  0  0  0  0  0  0  0  0
   -1.1898   -5.8983   -0.0772 H   0  0  0  0  0  0  0  0  0  0  0  0
   -1.3784   -4.6212   -1.3222 H   0  0  0  0  0  0  0  0  0  0  0  0
    0.3461   -6.0448   -1.7571 H   0  0  0  0  0  0  0  0  0  0  0  0
  1  2  1  0
  2  3  1  0
  3  4  1  0
  4  5  2  0
  5  6  1  0
  6  7  1  0
  7  8  1  0
  8  9  2  0
  8 10  2  0
  8 11  1  0
 11 12  1  0
 12 13  1  0
 13 14  1  0
  6 15  2  0
 15 16  1  0
 16 17  1  0
 17 18  1  0
 18 19  1  0
 19 20  2  0
 20 21  1  0
 21 22  2  0
 22 23  1  0
 23 24  1  0
 23 25  2  0
 25 26  1  0
 16 27  2  0
  2 28  1  0
 28 29  1  0
 28 30  1  0
 30 31  1  0
 27  4  1  0
 14 11  1  0
 25 19  1  0
  1 32  1  0
  1 33  1  0
  1 34  1  0
  2 35  1  6
  5 36  1  0
  7 37  1  0
 12 38  1  0
 12 39  1  0
 13 40  1  0
 13 41  1  0
 14 42  1  0
 14 43  1  0
 18 44  1  0
 18 45  1  0
 20 46  1  0
 21 47  1  0
 22 48  1  0
 28 49  1  6
 29 50  1  0
 30 51  1  0
 30 52  1  0
 31 53  1  0
M  END
$$$$
