
     RDKit          3D

 59 59  0  0  0  0  0  0  0  0999 V2000
    0.6876    0.0000    0.0000 Cl  0  0  0  0  0  0  0  0  0  0  0  0
    0.6887    0.0000    0.0000 Cl  0  0  0  0  0  0  0  0  0  0  0  0
    0.6881    0.0000    0.0000 Cl  0  0  0  0  0  0  0  0  0  0  0  0
   -2.6353    5.1395   -0.2057 N   0  0  0  0  0  0  0  0  0  0  0  0
   -1.8609    4.2781    0.6885 C   0  0  0  0  0  0  0  0  0  0  0  0
   -0.4434    4.1032    0.1604 C   0  0  0  0  0  0  0  0  0  0  0  0
   -0.4851    3.4786   -1.2179 C   0  0  0  0  0  0  0  0  0  0  0  0
   -1.1251    2.1399   -1.2737 C   0  0  0  0  0  0  0  0  0  0  0  0
   -0.4419    1.1256   -0.4319 N   0  0  0  0  0  0  0  0  0  0  0  0
    0.8128    0.8823   -1.0629 C   0  0  0  0  0  0  0  0  0  0  0  0
    1.6902   -0.1016   -0.4488 C   0  0  0  0  0  0  0  0  0  0  0  0
    1.6488   -0.7934    0.6880 N   0  0  0  0  0  0  0  0  0  0  0  0
    2.7072   -1.6054    0.8334 C   0  0  0  0  0  0  0  0  0  0  0  0
    3.1275   -2.5002    1.7943 C   0  0  0  0  0  0  0  0  0  0  0  0
    4.3134   -3.2050    1.6330 C   0  0  0  0  0  0  0  0  0  0  0  0
    5.0996   -3.0313    0.5139 C   0  0  0  0  0  0  0  0  0  0  0  0
    4.6655   -2.1341   -0.4353 C   0  0  0  0  0  0  0  0  0  0  0  0
    3.4855   -1.4164   -0.3006 C   0  0  0  0  0  0  0  0  0  0  0  0
    2.8610   -0.5191   -1.0464 N   0  0  0  0  0  0  0  0  0  0  0  0
   -1.3764    0.0053   -0.4506 C   0  0  1  0  0  0  0  0  0  0  0  0
   -1.4826   -0.6364   -1.7872 C   0  0  0  0  0  0  0  0  0  0  0  0
   -2.3901   -1.8455   -1.7075 C   0  0  0  0  0  0  0  0  0  0  0  0
   -1.8054   -2.8887   -0.7686 C   0  0  0  0  0  0  0  0  0  0  0  0
   -1.5133   -2.2463    0.5495 C   0  0  0  0  0  0  0  0  0  0  0  0
   -1.4733   -3.0785    1.6497 C   0  0  0  0  0  0  0  0  0  0  0  0
   -1.2470   -2.5804    2.9233 C   0  0  0  0  0  0  0  0  0  0  0  0
   -1.0670   -1.2049    3.0034 C   0  0  0  0  0  0  0  0  0  0  0  0
   -1.1102   -0.4244    1.9205 N   0  0  0  0  0  0  0  0  0  0  0  0
   -1.3306   -0.8943    0.6626 C   0  0  0  0  0  0  0  0  0  0  0  0
   -0.6876    0.0000    0.0000 H   0  0  0  0  0  0  0  0  0  0  0  0
   -0.6887    0.0000    0.0000 H   0  0  0  0  0  0  0  0  0  0  0  0
   -0.6881    0.0000    0.0000 H   0  0  0  0  0  0  0  0  0  0  0  0
   -2.7583    6.0490    0.3126 H   0  0  0  0  0  0  0  0  0  0  0  0
   -3.5889    4.7464   -0.3051 H   0  0  0  0  0  0  0  0  0  0  0  0
   -2.3394    3.2810    0.6908 H   0  0  0  0  0  0  0  0  0  0  0  0
   -1.8630    4.6518    1.7123 H   0  0  0  0  0  0  0  0  0  0  0  0
    0.0738    3.4666    0.9081 H   0  0  0  0  0  0  0  0  0  0  0  0
    0.1001    5.0650    0.0784 H   0  0  0  0  0  0  0  0  0  0  0  0
   -1.1561    4.1576   -1.8212 H   0  0  0  0  0  0  0  0  0  0  0  0
    0.4951    3.5514   -1.7323 H   0  0  0  0  0  0  0  0  0  0  0  0
   -1.0176    1.7703   -2.3095 H   0  0  0  0  0  0  0  0  0  0  0  0
   -2.1716    2.1921   -1.0114 H   0  0  0  0  0  0  0  0  0  0  0  0
    1.3727    1.8721   -0.9893 H   0  0  0  0  0  0  0  0  0  0  0  0
    0.7333    0.6721   -2.1535 H   0  0  0  0  0  0  0  0  0  0  0  0
    2.4977   -2.6286    2.6716 H   0  0  0  0  0  0  0  0  0  0  0  0
    4.6271   -3.9044    2.4003 H   0  0  0  0  0  0  0  0  0  0  0  0
    6.0183   -3.5932    0.4149 H   0  0  0  0  0  0  0  0  0  0  0  0
    5.2863   -2.0022   -1.3098 H   0  0  0  0  0  0  0  0  0  0  0  0
    3.2339   -0.1818   -1.9775 H   0  0  0  0  0  0  0  0  0  0  0  0
   -2.4351    0.5162   -0.3395 H   0  0  0  0  0  0  0  0  0  0  0  0
   -0.4906   -0.9174   -2.2148 H   0  0  0  0  0  0  0  0  0  0  0  0
   -2.0244    0.0586   -2.4988 H   0  0  0  0  0  0  0  0  0  0  0  0
   -3.3402   -1.4801   -1.2486 H   0  0  0  0  0  0  0  0  0  0  0  0
   -2.6379   -2.2788   -2.6787 H   0  0  0  0  0  0  0  0  0  0  0  0
   -0.9462   -3.3447   -1.2517 H   0  0  0  0  0  0  0  0  0  0  0  0
   -2.5829   -3.6545   -0.6095 H   0  0  0  0  0  0  0  0  0  0  0  0
   -1.6156   -4.1476    1.5697 H   0  0  0  0  0  0  0  0  0  0  0  0
   -1.2064   -3.1849    3.8178 H   0  0  0  0  0  0  0  0  0  0  0  0
   -0.8874   -0.7787    3.9911 H   0  0  0  0  0  0  0  0  0  0  0  0
  4  5  1  0
  5  6  1  0
  6  7  1  0
  7  8  1  0
  8  9  1  0
  9 10  1  0
 10 11  1  0
 11 12  2  0
 12 13  1  0
 13 14  2  0
 14 15  1  0
 15 16  2  0
 16 17  1  0
 17 18  2  0
 18 19  1  0
  9 20  1  0
 20 21  1  0
 21 22  1  0
 22 23  1  0
 23 24  1  0
 24 25  2  0
 25 26  1  0
 26 27  2  0
 27 28  1  0
 28 29  2  0
 19 11  1  0
 29 20  1  0
 18 13  1  0
 29 24  1  0
  1 30  1  0
  2 31  1  0
  3 32  1  0
  4 33  1  0
  4 34  1  0
  5 35  1  0
  5 36  1  0
  6 37  1  0
  6 38  1  0
  7 39  1  0
  7 40  1  0
  8 41  1  0
  8 42  1  0
 10 43  1  0
 10 44  1  0
 14 45  1  0
 15 46  1  0
 16 47  1  0
 17 48  1  0
 19 49  1  0
 20 50  1  1
 21 51  1  0
 21 52  1  0
 22 53  1  0
 22 54  1  0
 23 55  1  0
 23 56  1  0
 25 57  1  0
 26 58  1  0
 27 59  1  0
M  END
$$$$
