
     RDKit          3D

 40 42  0  0  0  0  0  0  0  0999 V2000
    8.2298   -1.0575    0.6496 C   0  0  0  0  0  0  0  0  0  0  0  0
    6.7315   -1.0052    0.4871 C   0  0  0  0  0  0  0  0  0  0  0  0
    6.0410   -1.9919    0.7265 O   0  0  0  0  0  0  0  0  0  0  0  0
    6.2814    0.2164    0.0442 N   0  0  0  0  0  0  0  0  0  0  0  0
    4.9740    0.5411   -0.1982 C   0  0  0  0  0  0  0  0  0  0  0  0
    3.8353   -0.2131   -0.0747 C   0  0  0  0  0  0  0  0  0  0  0  0
    2.7905    0.6037   -0.4476 N   0  0  0  0  0  0  0  0  0  0  0  0
    1.4026    0.2753   -0.4830 C   0  0  0  0  0  0  0  0  0  0  0  0
    0.4504    1.2291   -0.8775 C   0  0  0  0  0  0  0  0  0  0  0  0
   -0.9121    0.9035   -0.9085 C   0  0  0  0  0  0  0  0  0  0  0  0
   -1.3384   -0.3764   -0.5392 C   0  0  0  0  0  0  0  0  0  0  0  0
   -2.7771   -0.7635   -0.5660 C   0  0  0  0  0  0  0  0  0  0  0  0
   -3.0605   -1.9058   -0.9043 O   0  0  0  0  0  0  0  0  0  0  0  0
   -3.6507    0.2286   -0.1597 N   0  0  0  0  0  0  0  0  0  0  0  0
   -5.0598    0.1651   -0.1232 C   0  0  0  0  0  0  0  0  0  0  0  0
   -5.7368    1.2701    0.4107 C   0  0  0  0  0  0  0  0  0  0  0  0
   -7.1326    1.2886    0.4772 C   0  0  0  0  0  0  0  0  0  0  0  0
   -7.8657    0.2026    0.0077 C   0  0  0  0  0  0  0  0  0  0  0  0
   -7.2022   -0.8984   -0.5280 C   0  0  0  0  0  0  0  0  0  0  0  0
   -5.8050   -0.9169   -0.5944 C   0  0  0  0  0  0  0  0  0  0  0  0
   -0.3930   -1.3351   -0.1655 C   0  0  0  0  0  0  0  0  0  0  0  0
    0.9683   -1.0117   -0.1305 C   0  0  0  0  0  0  0  0  0  0  0  0
    3.3771    1.8096   -0.7754 C   0  0  0  0  0  0  0  0  0  0  0  0
    4.6853    1.7971   -0.6330 N   0  0  0  0  0  0  0  0  0  0  0  0
    8.6765   -0.0594    0.6400 H   0  0  0  0  0  0  0  0  0  0  0  0
    8.6571   -1.6461   -0.1665 H   0  0  0  0  0  0  0  0  0  0  0  0
    8.4688   -1.5274    1.6078 H   0  0  0  0  0  0  0  0  0  0  0  0
    6.9259    0.9731   -0.1371 H   0  0  0  0  0  0  0  0  0  0  0  0
    3.7038   -1.2362    0.2420 H   0  0  0  0  0  0  0  0  0  0  0  0
    0.7265    2.2352   -1.1794 H   0  0  0  0  0  0  0  0  0  0  0  0
   -1.6228    1.6502   -1.2545 H   0  0  0  0  0  0  0  0  0  0  0  0
   -3.2439    1.0725    0.2204 H   0  0  0  0  0  0  0  0  0  0  0  0
   -5.1901    2.1310    0.7855 H   0  0  0  0  0  0  0  0  0  0  0  0
   -7.6463    2.1500    0.8959 H   0  0  0  0  0  0  0  0  0  0  0  0
   -8.9513    0.2123    0.0579 H   0  0  0  0  0  0  0  0  0  0  0  0
   -7.7687   -1.7495   -0.8977 H   0  0  0  0  0  0  0  0  0  0  0  0
   -5.3298   -1.7930   -1.0243 H   0  0  0  0  0  0  0  0  0  0  0  0
   -0.7139   -2.3412    0.1014 H   0  0  0  0  0  0  0  0  0  0  0  0
    1.6574   -1.7962    0.1707 H   0  0  0  0  0  0  0  0  0  0  0  0
    2.8174    2.6694   -1.1134 H   0  0  0  0  0  0  0  0  0  0  0  0
  1  2  1  0
  2  3  2  0
  2  4  1  0
  4  5  1  0
  5  6  2  0
  6  7  1  0
  7  8  1  0
  8  9  2  0
  9 10  1  0
 10 11  2  0
 11 12  1  0
 12 13  2  0
 12 14  1  0
 14 15  1  0
 15 16  2  0
 16 17  1  0
 17 18  2  0
 18 19  1  0
 19 20  2  0
 11 21  1  0
 21 22  2  0
  7 23  1  0
 23 24  2  0
 24  5  1  0
 22  8  1  0
 20 15  1  0
  1 25  1  0
  1 26  1  0
  1 27  1  0
  4 28  1  0
  6 29  1  0
  9 30  1  0
 10 31  1  0
 14 32  1  0
 16 33  1  0
 17 34  1  0
 18 35  1  0
 19 36  1  0
 20 37  1  0
 21 38  1  0
 22 39  1  0
 23 40  1  0
M  END
$$$$
