
     RDKit          3D

 26 28  0  0  0  0  0  0  0  0999 V2000
   -1.4845    2.8693   -1.8275 O   0  0  0  0  0  0  0  0  0  0  0  0
   -0.9816    1.9275   -1.2299 C   0  0  0  0  0  0  0  0  0  0  0  0
    0.5140    1.7070   -1.2857 C   0  0  0  0  0  0  0  0  0  0  0  0
    1.2255    2.4676   -1.9271 O   0  0  0  0  0  0  0  0  0  0  0  0
    1.0948    0.5634   -0.5558 C   0  0  0  0  0  0  0  0  0  0  0  0
    2.4899    0.3831   -0.6260 C   0  0  0  0  0  0  0  0  0  0  0  0
    3.0808   -0.6844    0.0485 C   0  0  0  0  0  0  0  0  0  0  0  0
    4.5339   -0.8846   -0.0157 N   0  0  0  0  0  4  0  0  0  0  0  0
    5.1979   -0.0799   -0.6818 O   0  0  0  0  0  0  0  0  0  0  0  0
    5.0068   -1.8489    0.6021 O   0  0  0  0  0  1  0  0  0  0  0  0
    2.2899   -1.5650    0.7864 C   0  0  0  0  0  0  0  0  0  0  0  0
    0.9022   -1.3718    0.8463 C   0  0  0  0  0  0  0  0  0  0  0  0
    0.2627   -0.3046    0.1791 C   0  0  0  0  0  0  0  0  0  0  0  0
   -1.2062   -0.0884    0.2342 C   0  0  0  0  0  0  0  0  0  0  0  0
   -2.0770   -0.9311    0.9566 C   0  0  0  0  0  0  0  0  0  0  0  0
   -3.4604   -0.7118    0.9973 C   0  0  0  0  0  0  0  0  0  0  0  0
   -4.0196    0.3596    0.3156 C   0  0  0  0  0  0  0  0  0  0  0  0
   -3.1937    1.2114   -0.4068 C   0  0  0  0  0  0  0  0  0  0  0  0
   -1.8057    0.9886   -0.4457 C   0  0  0  0  0  0  0  0  0  0  0  0
    3.0961    1.0792   -1.2066 H   0  0  0  0  0  0  0  0  0  0  0  0
    2.7293   -2.4061    1.3215 H   0  0  0  0  0  0  0  0  0  0  0  0
    0.3410   -2.0917    1.4375 H   0  0  0  0  0  0  0  0  0  0  0  0
   -1.7115   -1.7890    1.5141 H   0  0  0  0  0  0  0  0  0  0  0  0
   -4.0994   -1.3845    1.5661 H   0  0  0  0  0  0  0  0  0  0  0  0
   -5.0927    0.5323    0.3454 H   0  0  0  0  0  0  0  0  0  0  0  0
   -3.6326    2.0527   -0.9422 H   0  0  0  0  0  0  0  0  0  0  0  0
  1  2  2  0
  2  3  1  0
  3  4  2  0
  3  5  1  0
  5  6  2  0
  6  7  1  0
  7  8  1  0
  8  9  2  0
  8 10  1  0
  7 11  2  0
 11 12  1  0
 12 13  2  0
 13 14  1  0
 14 15  2  0
 15 16  1  0
 16 17  2  0
 17 18  1  0
 18 19  2  0
 19  2  1  0
 13  5  1  0
 19 14  1  0
  6 20  1  0
 11 21  1  0
 12 22  1  0
 15 23  1  0
 16 24  1  0
 17 25  1  0
 18 26  1  0
M  CHG  2   8   1  10  -1
M  END
$$$$
