
     RDKit          3D

 50 51  0  0  0  0  0  0  0  0999 V2000
   -0.7517    3.3213    0.9321 C   0  0  0  0  0  0  0  0  0  0  0  0
   -1.8770    2.3646    0.9260 C   0  0  0  0  0  0  0  0  0  0  0  0
   -2.9013    2.6656    1.7664 O   0  0  0  0  0  0  0  0  0  0  0  0
   -3.9055    1.7326    1.6321 N   0  0  0  0  0  0  0  0  0  0  0  0
   -3.4708    0.8474    0.7217 C   0  0  0  0  0  0  0  0  0  0  0  0
   -4.2919   -0.2985    0.3541 C   0  0  0  0  0  0  0  0  0  0  0  0
   -5.5015   -0.0701   -0.3223 C   0  0  0  0  0  0  0  0  0  0  0  0
   -6.3111   -1.1397   -0.7105 C   0  0  0  0  0  0  0  0  0  0  0  0
   -5.9227   -2.4466   -0.4240 C   0  0  0  0  0  0  0  0  0  0  0  0
   -4.7287   -2.6851    0.2580 C   0  0  0  0  0  0  0  0  0  0  0  0
   -3.9150   -1.6169    0.6513 C   0  0  0  0  0  0  0  0  0  0  0  0
   -2.4768   -1.9933    1.5372 Cl  0  0  0  0  0  0  0  0  0  0  0  0
   -2.1804    1.2109    0.2292 C   0  0  0  0  0  0  0  0  0  0  0  0
   -1.4101    0.5476   -0.8040 C   0  0  0  0  0  0  0  0  0  0  0  0
   -1.9460   -0.0734   -1.7153 O   0  0  0  0  0  0  0  0  0  0  0  0
   -0.0480    0.6749   -0.6918 N   0  0  0  0  0  0  0  0  0  0  0  0
    0.8978   -0.0199   -1.6138 C   0  0  2  0  0  0  0  0  0  0  0  0
    1.5221   -1.3408   -1.0789 C   0  0  0  0  0  0  0  0  0  0  0  0
    1.1218   -2.3382   -0.5244 O   0  0  0  0  0  0  0  0  0  0  0  0
    2.7783   -0.8916   -1.3496 N   0  0  0  0  0  0  0  0  0  0  0  0
    3.9481   -1.0728   -0.4743 C   0  0  1  0  0  0  0  0  0  0  0  0
    5.3014   -0.9668   -1.2351 C   0  0  0  0  0  0  0  0  0  0  0  0
    5.3361   -0.1436   -2.1962 O   0  0  0  0  0  0  0  0  0  0  0  0
    6.2207   -1.7112   -0.7852 O   0  0  0  0  0  1  0  0  0  0  0  0
    3.8412   -0.0030    0.6427 C   0  0  0  0  0  0  0  0  0  0  0  0
    5.1710    0.5726    1.1484 C   0  0  0  0  0  0  0  0  0  0  0  0
    3.0686   -0.5572    1.8549 C   0  0  0  0  0  0  0  0  0  0  0  0
    2.8267    1.4122   -0.0375 S   0  0  0  0  0  0  0  0  0  0  0  0
    2.3649    0.4928   -1.5780 C   0  0  2  0  0  0  0  0  0  0  0  0
   -0.0112    0.3977    0.0000 O   0  0  0  0  0  0  0  0  0  0  0  0
    0.0000    0.0000    0.0000 Na  0  0  0  0  0 15  0  0  0  0  0  0
   -0.3631    3.4770   -0.0788 H   0  0  0  0  0  0  0  0  0  0  0  0
   -1.0654    4.2961    1.3191 H   0  0  0  0  0  0  0  0  0  0  0  0
    0.0593    2.9509    1.5662 H   0  0  0  0  0  0  0  0  0  0  0  0
   -5.8118    0.9465   -0.5560 H   0  0  0  0  0  0  0  0  0  0  0  0
   -7.2406   -0.9511   -1.2416 H   0  0  0  0  0  0  0  0  0  0  0  0
   -6.5477   -3.2812   -0.7311 H   0  0  0  0  0  0  0  0  0  0  0  0
   -4.4334   -3.7075    0.4811 H   0  0  0  0  0  0  0  0  0  0  0  0
    0.3400    1.0277    0.1766 H   0  0  0  0  0  0  0  0  0  0  0  0
    0.4939   -0.1180   -2.6283 H   0  0  0  0  0  0  0  0  0  0  0  0
    3.8844   -2.0823   -0.0476 H   0  0  0  0  0  0  0  0  0  0  0  0
    5.8104   -0.2219    1.5497 H   0  0  0  0  0  0  0  0  0  0  0  0
    5.7306    1.0913    0.3623 H   0  0  0  0  0  0  0  0  0  0  0  0
    5.0143    1.2942    1.9597 H   0  0  0  0  0  0  0  0  0  0  0  0
    2.0658   -0.9090    1.5937 H   0  0  0  0  0  0  0  0  0  0  0  0
    2.9560    0.1969    2.6433 H   0  0  0  0  0  0  0  0  0  0  0  0
    3.6062   -1.4054    2.2950 H   0  0  0  0  0  0  0  0  0  0  0  0
    2.7407    0.9223   -2.5102 H   0  0  0  0  0  0  0  0  0  0  0  0
    0.7688   -0.1773    0.0000 H   0  0  0  0  0  0  0  0  0  0  0  0
   -0.7576   -0.2204    0.0000 H   0  0  0  0  0  0  0  0  0  0  0  0
  1  2  1  0
  2  3  1  0
  3  4  1  0
  4  5  2  0
  5  6  1  0
  6  7  2  0
  7  8  1  0
  8  9  2  0
  9 10  1  0
 10 11  2  0
 11 12  1  0
  5 13  1  0
 13 14  1  0
 14 15  2  0
 14 16  1  0
 16 17  1  0
 17 18  1  0
 18 19  2  0
 18 20  1  0
 20 21  1  0
 21 22  1  0
 22 23  2  0
 22 24  1  0
 21 25  1  0
 25 26  1  0
 25 27  1  0
 25 28  1  0
 28 29  1  0
 13  2  2  0
 29 17  1  0
 11  6  1  0
 29 20  1  0
  1 32  1  0
  1 33  1  0
  1 34  1  0
  7 35  1  0
  8 36  1  0
  9 37  1  0
 10 38  1  0
 16 39  1  0
 17 40  1  6
 21 41  1  1
 26 42  1  0
 26 43  1  0
 26 44  1  0
 27 45  1  0
 27 46  1  0
 27 47  1  0
 29 48  1  6
 30 49  1  0
 30 50  1  0
M  CHG  2  24  -1  31   1
M  END
$$$$
