
     RDKit          3D

 34 31  0  0  0  0  0  0  0  0999 V2000
    0.6887    0.0000    0.0000 Cl  0  0  0  0  0  0  0  0  0  0  0  0
    0.6894    0.0000    0.0000 Cl  0  0  0  0  0  0  0  0  0  0  0  0
    4.6430    1.0966   -0.0547 N   0  0  0  0  0  0  0  0  0  0  0  0
    3.4609    0.2348   -0.0608 C   0  0  0  0  0  0  0  0  0  0  0  0
    2.2693    1.1161   -0.2606 C   0  0  0  0  0  0  0  0  0  0  0  0
    0.9619    0.3093   -0.3039 C   0  0  0  0  0  0  0  0  0  0  0  0
    0.6840   -0.4384    0.9381 C   0  0  0  0  0  0  0  0  0  0  0  0
   -0.4680   -1.3253    0.9977 C   0  0  0  0  0  0  0  0  0  0  0  0
   -1.8613   -0.9215    0.7904 C   0  0  0  0  0  0  0  0  0  0  0  0
   -2.2024   -0.4788   -0.5748 C   0  0  0  0  0  0  0  0  0  0  0  0
   -3.6994   -0.1135   -0.6817 C   0  0  0  0  0  0  0  0  0  0  0  0
   -3.9815    0.9511    0.2412 N   0  0  0  0  0  0  0  0  0  0  0  0
   -0.6887    0.0000    0.0000 H   0  0  0  0  0  0  0  0  0  0  0  0
   -0.6894    0.0000    0.0000 H   0  0  0  0  0  0  0  0  0  0  0  0
    5.5164    0.5411    0.0561 H   0  0  0  0  0  0  0  0  0  0  0  0
    4.5576    1.8867    0.5999 H   0  0  0  0  0  0  0  0  0  0  0  0
    3.6116   -0.4547   -0.9258 H   0  0  0  0  0  0  0  0  0  0  0  0
    3.4275   -0.3899    0.8420 H   0  0  0  0  0  0  0  0  0  0  0  0
    2.2027    1.9260    0.4641 H   0  0  0  0  0  0  0  0  0  0  0  0
    2.3497    1.5838   -1.2780 H   0  0  0  0  0  0  0  0  0  0  0  0
    0.9286   -0.2952   -1.1963 H   0  0  0  0  0  0  0  0  0  0  0  0
    0.1480    1.1124   -0.3661 H   0  0  0  0  0  0  0  0  0  0  0  0
    1.6254   -0.9828    1.2512 H   0  0  0  0  0  0  0  0  0  0  0  0
    0.5578    0.3078    1.8142 H   0  0  0  0  0  0  0  0  0  0  0  0
   -0.2946   -2.1727    0.2134 H   0  0  0  0  0  0  0  0  0  0  0  0
   -0.4267   -1.9692    1.9623 H   0  0  0  0  0  0  0  0  0  0  0  0
   -2.4979   -1.8595    0.9816 H   0  0  0  0  0  0  0  0  0  0  0  0
   -2.2201   -0.1922    1.5824 H   0  0  0  0  0  0  0  0  0  0  0  0
   -1.6791    0.3655   -0.9810 H   0  0  0  0  0  0  0  0  0  0  0  0
   -2.1401   -1.3918   -1.2493 H   0  0  0  0  0  0  0  0  0  0  0  0
   -3.8433    0.2835   -1.7114 H   0  0  0  0  0  0  0  0  0  0  0  0
   -4.3158   -0.9904   -0.4548 H   0  0  0  0  0  0  0  0  0  0  0  0
   -3.2410    1.6860    0.2460 H   0  0  0  0  0  0  0  0  0  0  0  0
   -4.0734    0.5753    1.2104 H   0  0  0  0  0  0  0  0  0  0  0  0
  3  4  1  0
  4  5  1  0
  5  6  1  0
  6  7  1  0
  7  8  1  0
  8  9  1  0
  9 10  1  0
 10 11  1  0
 11 12  1  0
  1 13  1  0
  2 14  1  0
  3 15  1  0
  3 16  1  0
  4 17  1  0
  4 18  1  0
  5 19  1  0
  5 20  1  0
  6 21  1  0
  6 22  1  0
  7 23  1  0
  7 24  1  0
  8 25  1  0
  8 26  1  0
  9 27  1  0
  9 28  1  0
 10 29  1  0
 10 30  1  0
 11 31  1  0
 11 32  1  0
 12 33  1  0
 12 34  1  0
M  END
$$$$
