
     RDKit          3D

 51 54  0  0  0  0  0  0  0  0999 V2000
   -1.8807   -5.5784    0.1389 C   0  0  0  0  0  0  0  0  0  0  0  0
   -1.1363   -4.2784    0.1143 C   0  0  0  0  0  0  0  0  0  0  0  0
   -1.8063   -3.1080    0.6322 C   0  0  0  0  0  0  0  0  0  0  0  0
   -1.2207   -1.8965    0.6479 C   0  0  0  0  0  0  0  0  0  0  0  0
   -1.8339   -0.6215    1.2101 C   0  0  0  0  0  0  0  0  0  0  0  0
   -2.8860   -0.8722    2.3004 C   0  0  0  0  0  0  0  0  0  0  0  0
   -2.4768    0.1070    0.1054 N   0  0  0  0  0  0  0  0  0  0  0  0
   -2.3032    1.4943   -0.0129 C   0  0  0  0  0  0  0  0  0  0  0  0
   -2.0662    2.3500    1.0690 C   0  0  0  0  0  0  0  0  0  0  0  0
   -1.9538    3.7341    0.8902 C   0  0  0  0  0  0  0  0  0  0  0  0
   -2.1101    4.2917   -0.3746 C   0  0  0  0  0  0  0  0  0  0  0  0
   -2.3950    3.4664   -1.4564 C   0  0  0  0  0  0  0  0  0  0  0  0
   -2.5050    2.0848   -1.2705 C   0  0  0  0  0  0  0  0  0  0  0  0
    0.1817   -1.7819    0.0978 C   0  0  0  0  0  0  0  0  0  0  0  0
    0.7645   -0.6257    0.0810 N   0  0  0  0  0  0  0  0  0  0  0  0
    2.0278   -0.4826   -0.4293 C   0  0  0  0  0  0  0  0  0  0  0  0
    2.5911    0.7973   -0.4668 N   0  0  0  0  0  0  0  0  0  0  0  0
    4.0094    1.0978   -0.7300 C   0  0  0  0  0  0  0  0  0  0  0  0
    4.4149    2.4270   -0.0736 C   0  0  0  0  0  0  0  0  0  0  0  0
    3.6665    3.5557   -0.5431 O   0  0  0  0  0  0  0  0  0  0  0  0
    2.3217    3.2212   -0.9180 C   0  0  0  0  0  0  0  0  0  0  0  0
    1.7570    1.9910   -0.1944 C   0  0  0  0  0  0  0  0  0  0  0  0
    2.6891   -1.5533   -0.8934 C   0  0  0  0  0  0  0  0  0  0  0  0
    2.0646   -2.8830   -0.8744 C   0  0  0  0  0  0  0  0  0  0  0  0
    2.7089   -3.8414   -1.3022 O   0  0  0  0  0  0  0  0  0  0  0  0
    0.7774   -2.9407   -0.3730 N   0  0  0  0  0  0  0  0  0  0  0  0
    0.1121   -4.1576   -0.3563 C   0  0  0  0  0  0  0  0  0  0  0  0
   -2.7982   -5.5076   -0.4550 H   0  0  0  0  0  0  0  0  0  0  0  0
   -2.1513   -5.8478    1.1655 H   0  0  0  0  0  0  0  0  0  0  0  0
   -1.2822   -6.3985   -0.2722 H   0  0  0  0  0  0  0  0  0  0  0  0
   -2.8148   -3.2458    1.0114 H   0  0  0  0  0  0  0  0  0  0  0  0
   -1.0302   -0.0391    1.6765 H   0  0  0  0  0  0  0  0  0  0  0  0
   -3.7825   -1.3603    1.9015 H   0  0  0  0  0  0  0  0  0  0  0  0
   -2.4797   -1.4949    3.1048 H   0  0  0  0  0  0  0  0  0  0  0  0
   -3.2174    0.0704    2.7488 H   0  0  0  0  0  0  0  0  0  0  0  0
   -2.3066   -0.3384   -0.7937 H   0  0  0  0  0  0  0  0  0  0  0  0
   -1.9631    1.9637    2.0775 H   0  0  0  0  0  0  0  0  0  0  0  0
   -1.7561    4.3743    1.7459 H   0  0  0  0  0  0  0  0  0  0  0  0
   -2.0291    5.3664   -0.5125 H   0  0  0  0  0  0  0  0  0  0  0  0
   -2.5423    3.8930   -2.4448 H   0  0  0  0  0  0  0  0  0  0  0  0
   -2.7463    1.4638   -2.1298 H   0  0  0  0  0  0  0  0  0  0  0  0
    4.6560    0.3104   -0.3276 H   0  0  0  0  0  0  0  0  0  0  0  0
    4.1599    1.1547   -1.8142 H   0  0  0  0  0  0  0  0  0  0  0  0
    4.2870    2.3705    1.0139 H   0  0  0  0  0  0  0  0  0  0  0  0
    5.4728    2.6329   -0.2660 H   0  0  0  0  0  0  0  0  0  0  0  0
    1.6971    4.0973   -0.7159 H   0  0  0  0  0  0  0  0  0  0  0  0
    2.3143    3.0586   -2.0023 H   0  0  0  0  0  0  0  0  0  0  0  0
    1.7351    2.1646    0.8877 H   0  0  0  0  0  0  0  0  0  0  0  0
    0.7309    1.8367   -0.5433 H   0  0  0  0  0  0  0  0  0  0  0  0
    3.6781   -1.5084   -1.3236 H   0  0  0  0  0  0  0  0  0  0  0  0
    0.6556   -5.0133   -0.7508 H   0  0  0  0  0  0  0  0  0  0  0  0
  1  2  1  0
  2  3  1  0
  3  4  2  0
  4  5  1  0
  5  6  1  0
  5  7  1  0
  7  8  1  0
  8  9  2  0
  9 10  1  0
 10 11  2  0
 11 12  1  0
 12 13  2  0
  4 14  1  0
 14 15  2  0
 15 16  1  0
 16 17  1  0
 17 18  1  0
 18 19  1  0
 19 20  1  0
 20 21  1  0
 21 22  1  0
 16 23  2  0
 23 24  1  0
 24 25  2  0
 24 26  1  0
 26 27  1  0
 27  2  2  0
 13  8  1  0
 26 14  1  0
 22 17  1  0
  1 28  1  0
  1 29  1  0
  1 30  1  0
  3 31  1  0
  5 32  1  0
  6 33  1  0
  6 34  1  0
  6 35  1  0
  7 36  1  0
  9 37  1  0
 10 38  1  0
 11 39  1  0
 12 40  1  0
 13 41  1  0
 18 42  1  0
 18 43  1  0
 19 44  1  0
 19 45  1  0
 21 46  1  0
 21 47  1  0
 22 48  1  0
 22 49  1  0
 23 50  1  0
 27 51  1  0
M  END
$$$$
