
     RDKit          3D

 51 52  0  0  0  0  0  0  0  0999 V2000
   -6.4768   -2.2000   -0.4126 C   0  0  0  0  0  0  0  0  0  0  0  0
   -5.7257   -0.9444   -0.8289 C   0  0  0  0  0  0  0  0  0  0  0  0
   -4.2986   -1.2206   -1.3090 C   0  0  0  0  0  0  0  0  0  0  0  0
   -3.3366   -1.7303   -0.2310 C   0  0  0  0  0  0  0  0  0  0  0  0
   -3.0744   -0.7599    0.8352 N   0  0  0  0  0  0  0  0  0  0  0  0
   -3.6614   -1.0551    2.1352 C   0  0  0  0  0  0  0  0  0  0  0  0
   -2.1302    0.2696    0.7661 C   0  0  0  0  0  0  0  0  0  0  0  0
   -1.8553    0.9505    1.7591 O   0  0  0  0  0  0  0  0  0  0  0  0
   -1.5085    0.5887   -0.6078 C   0  0  0  0  0  0  0  0  0  0  0  0
   -0.2726    1.3671   -0.4881 N   0  0  0  0  0  0  0  0  0  0  0  0
   -0.2728    2.7651   -0.4772 C   0  0  0  0  0  0  0  0  0  0  0  0
   -1.5631    3.5238   -0.6264 C   0  0  0  0  0  0  0  0  0  0  0  0
    0.8866    3.4261   -0.3195 C   0  0  0  0  0  0  0  0  0  0  0  0
    2.1355    2.7287   -0.1519 C   0  0  0  0  0  0  0  0  0  0  0  0
    2.1860    1.3916   -0.1207 C   0  0  0  0  0  0  0  0  0  0  0  0
    3.3133    0.6105    0.0468 N   0  0  0  0  0  0  0  0  0  0  0  0
    4.6163    1.0141    0.2482 C   0  0  0  0  0  0  0  0  0  0  0  0
    5.0015    2.1736    0.3488 O   0  0  0  0  0  0  0  0  0  0  0  0
    5.6137   -0.0875    0.3782 C   0  0  0  0  0  0  0  0  0  0  0  0
    5.4758   -1.3030   -0.3064 C   0  0  0  0  0  0  0  0  0  0  0  0
    6.4388   -2.3036   -0.1534 C   0  0  0  0  0  0  0  0  0  0  0  0
    7.5428   -2.0928    0.6728 C   0  0  0  0  0  0  0  0  0  0  0  0
    7.6935   -0.8791    1.3423 C   0  0  0  0  0  0  0  0  0  0  0  0
    6.7343    0.1238    1.1922 C   0  0  0  0  0  0  0  0  0  0  0  0
    0.8955    0.6254   -0.2918 C   0  0  0  0  0  0  0  0  0  0  0  0
    0.9367   -0.6087   -0.2696 O   0  0  0  0  0  0  0  0  0  0  0  0
   -7.5104   -1.9497   -0.1527 H   0  0  0  0  0  0  0  0  0  0  0  0
   -6.0211   -2.6749    0.4604 H   0  0  0  0  0  0  0  0  0  0  0  0
   -6.5013   -2.9300   -1.2278 H   0  0  0  0  0  0  0  0  0  0  0  0
   -5.7203   -0.2237   -0.0041 H   0  0  0  0  0  0  0  0  0  0  0  0
   -6.2787   -0.4720   -1.6500 H   0  0  0  0  0  0  0  0  0  0  0  0
   -4.3344   -1.9593   -2.1194 H   0  0  0  0  0  0  0  0  0  0  0  0
   -3.9071   -0.2995   -1.7521 H   0  0  0  0  0  0  0  0  0  0  0  0
   -3.7170   -2.6552    0.2171 H   0  0  0  0  0  0  0  0  0  0  0  0
   -2.3839   -2.0021   -0.6958 H   0  0  0  0  0  0  0  0  0  0  0  0
   -4.7236   -1.2812    2.0134 H   0  0  0  0  0  0  0  0  0  0  0  0
   -3.5664   -0.2174    2.8309 H   0  0  0  0  0  0  0  0  0  0  0  0
   -3.1486   -1.9247    2.5572 H   0  0  0  0  0  0  0  0  0  0  0  0
   -2.2415    1.1312   -1.2099 H   0  0  0  0  0  0  0  0  0  0  0  0
   -1.2717   -0.3330   -1.1434 H   0  0  0  0  0  0  0  0  0  0  0  0
   -1.4133    4.6053   -0.5324 H   0  0  0  0  0  0  0  0  0  0  0  0
   -2.0042    3.3456   -1.6124 H   0  0  0  0  0  0  0  0  0  0  0  0
   -2.2825    3.2333    0.1453 H   0  0  0  0  0  0  0  0  0  0  0  0
    0.9242    4.5116   -0.2980 H   0  0  0  0  0  0  0  0  0  0  0  0
    3.0214    3.3435   -0.0379 H   0  0  0  0  0  0  0  0  0  0  0  0
    3.0990   -0.3836    0.0801 H   0  0  0  0  0  0  0  0  0  0  0  0
    4.6436   -1.4802   -0.9821 H   0  0  0  0  0  0  0  0  0  0  0  0
    6.3332   -3.2458   -0.6860 H   0  0  0  0  0  0  0  0  0  0  0  0
    8.2921   -2.8723    0.7881 H   0  0  0  0  0  0  0  0  0  0  0  0
    8.5587   -0.7108    1.9788 H   0  0  0  0  0  0  0  0  0  0  0  0
    6.8598    1.0711    1.7133 H   0  0  0  0  0  0  0  0  0  0  0  0
  1  2  1  0
  2  3  1  0
  3  4  1  0
  4  5  1  0
  5  6  1  0
  5  7  1  0
  7  8  2  0
  7  9  1  0
  9 10  1  0
 10 11  1  0
 11 12  1  0
 11 13  2  0
 13 14  1  0
 14 15  2  0
 15 16  1  0
 16 17  1  0
 17 18  2  0
 17 19  1  0
 19 20  2  0
 20 21  1  0
 21 22  2  0
 22 23  1  0
 23 24  2  0
 15 25  1  0
 25 26  2  0
 25 10  1  0
 24 19  1  0
  1 27  1  0
  1 28  1  0
  1 29  1  0
  2 30  1  0
  2 31  1  0
  3 32  1  0
  3 33  1  0
  4 34  1  0
  4 35  1  0
  6 36  1  0
  6 37  1  0
  6 38  1  0
  9 39  1  0
  9 40  1  0
 12 41  1  0
 12 42  1  0
 12 43  1  0
 13 44  1  0
 14 45  1  0
 16 46  1  0
 20 47  1  0
 21 48  1  0
 22 49  1  0
 23 50  1  0
 24 51  1  0
M  END
$$$$
