
     RDKit          3D

 31 32  0  0  0  0  0  0  0  0999 V2000
   -3.9585    0.3006   -0.1459 C   0  0  0  0  0  0  0  0  0  0  0  0
   -2.5738    0.0763    0.4032 C   0  0  0  0  0  0  0  0  0  0  0  0
   -2.4240   -0.0183    1.7952 C   0  0  0  0  0  0  0  0  0  0  0  0
   -1.1732   -0.2205    2.3644 C   0  0  0  0  0  0  0  0  0  0  0  0
   -0.0512   -0.3239    1.5495 C   0  0  0  0  0  0  0  0  0  0  0  0
   -0.1537   -0.2269    0.1473 C   0  0  0  0  0  0  0  0  0  0  0  0
    1.1166   -0.3529   -0.7000 C   0  0  0  0  0  0  0  0  0  0  0  0
    1.5070   -1.8289   -0.8399 C   0  0  0  0  0  0  0  0  0  0  0  0
    2.2420    0.5182   -0.2063 C   0  0  0  0  0  0  0  0  0  0  0  0
    2.3884    1.8917   -0.2230 C   0  0  0  0  0  0  0  0  0  0  0  0
    3.5874    2.2689    0.3228 N   0  0  0  0  0  0  0  0  0  0  0  0
    4.1710    1.1500    0.6800 C   0  0  0  0  0  0  0  0  0  0  0  0
    3.3982    0.0643    0.3834 N   0  0  0  0  0  0  0  0  0  0  0  0
   -1.4384   -0.0498   -0.4364 C   0  0  0  0  0  0  0  0  0  0  0  0
   -1.5847    0.0355   -1.9374 C   0  0  0  0  0  0  0  0  0  0  0  0
   -4.6885    0.4645    0.6542 H   0  0  0  0  0  0  0  0  0  0  0  0
   -3.9773    1.1901   -0.7839 H   0  0  0  0  0  0  0  0  0  0  0  0
   -4.2861   -0.5740   -0.7167 H   0  0  0  0  0  0  0  0  0  0  0  0
   -3.2888    0.0693    2.4494 H   0  0  0  0  0  0  0  0  0  0  0  0
   -1.0704   -0.2884    3.4439 H   0  0  0  0  0  0  0  0  0  0  0  0
    0.9165   -0.4711    2.0233 H   0  0  0  0  0  0  0  0  0  0  0  0
    0.9142    0.0146   -1.7131 H   0  0  0  0  0  0  0  0  0  0  0  0
    0.6897   -2.4095   -1.2828 H   0  0  0  0  0  0  0  0  0  0  0  0
    1.7438   -2.2855    0.1283 H   0  0  0  0  0  0  0  0  0  0  0  0
    2.3842   -1.9441   -1.4867 H   0  0  0  0  0  0  0  0  0  0  0  0
    1.6881    2.6263   -0.6007 H   0  0  0  0  0  0  0  0  0  0  0  0
    5.1406    1.0633    1.1517 H   0  0  0  0  0  0  0  0  0  0  0  0
    3.6452   -0.8978    0.5684 H   0  0  0  0  0  0  0  0  0  0  0  0
   -2.6230   -0.0266   -2.2721 H   0  0  0  0  0  0  0  0  0  0  0  0
   -1.0667   -0.7991   -2.4211 H   0  0  0  0  0  0  0  0  0  0  0  0
   -1.1744    0.9838   -2.2988 H   0  0  0  0  0  0  0  0  0  0  0  0
  1  2  1  0
  2  3  2  0
  3  4  1  0
  4  5  2  0
  5  6  1  0
  6  7  1  0
  7  8  1  0
  7  9  1  0
  9 10  2  0
 10 11  1  0
 11 12  2  0
 12 13  1  0
  6 14  2  0
 14 15  1  0
 14  2  1  0
 13  9  1  0
  1 16  1  0
  1 17  1  0
  1 18  1  0
  3 19  1  0
  4 20  1  0
  5 21  1  0
  7 22  1  0
  8 23  1  0
  8 24  1  0
  8 25  1  0
 10 26  1  0
 12 27  1  0
 13 28  1  0
 15 29  1  0
 15 30  1  0
 15 31  1  0
M  END
$$$$
