
     RDKit          3D

 50 51  0  0  0  0  0  0  0  0999 V2000
    8.7783    1.0462    1.4452 O   0  0  0  0  0  0  0  0  0  0  0  0
    8.1030    1.4953    0.4742 C   0  0  0  0  0  0  0  0  0  0  0  0
    8.3985    2.4196   -0.3386 O   0  0  0  0  0  1  0  0  0  0  0  0
    6.7236    0.8135    0.2507 C   0  0  0  0  0  0  0  0  0  0  0  0
    5.9135    1.2437   -0.7270 C   0  0  0  0  0  0  0  0  0  0  0  0
    4.6086    0.5935   -0.9406 C   0  0  0  0  0  0  0  0  0  0  0  0
    3.8648    0.9907   -1.8298 O   0  0  0  0  0  0  0  0  0  0  0  0
    4.2757   -0.5298   -0.0315 C   0  0  0  0  0  0  0  0  0  0  0  0
    3.0726   -1.2499   -0.1137 C   0  0  0  0  0  0  0  0  0  0  0  0
    2.1742   -0.9651   -1.1095 O   0  0  0  0  0  0  0  0  0  0  0  0
    0.8241   -0.7854   -0.6471 C   0  0  0  0  0  0  0  0  0  0  0  0
    0.0064   -0.2011   -1.8055 C   0  0  0  0  0  0  0  0  0  0  0  0
    0.1836   -1.0379   -2.9640 O   0  0  0  0  0  0  0  0  0  0  0  0
   -1.4840   -0.1281   -1.4602 C   0  0  0  0  0  0  0  0  0  0  0  0
   -1.6819    0.7368   -0.3329 O   0  0  0  0  0  0  0  0  0  0  0  0
   -2.8089    0.3839    0.3662 C   0  0  0  0  0  0  0  0  0  0  0  0
   -2.5883   -0.3755    1.5246 C   0  0  0  0  0  0  0  0  0  0  0  0
   -3.6620   -0.7844    2.3127 C   0  0  0  0  0  0  0  0  0  0  0  0
   -4.9583   -0.4350    1.9465 C   0  0  0  0  0  0  0  0  0  0  0  0
   -5.1784    0.3464    0.8065 C   0  0  0  0  0  0  0  0  0  0  0  0
   -6.4885    0.6474    0.5431 O   0  0  0  0  0  0  0  0  0  0  0  0
   -6.7732    1.4456   -0.5530 C   0  0  0  0  0  0  0  0  0  0  0  0
   -8.2774    1.7278   -0.8223 C   0  0  0  0  0  0  0  0  0  0  0  0
   -9.0868    1.1004   -0.0795 O   0  0  0  0  0  0  0  0  0  0  0  0
   -8.5248    2.5468   -1.7555 O   0  0  0  0  0  1  0  0  0  0  0  0
   -5.8419    1.9615   -1.3662 C   0  0  0  0  0  0  0  0  0  0  0  0
   -4.4184    1.6716   -1.1227 C   0  0  0  0  0  0  0  0  0  0  0  0
   -3.5641    2.1621   -1.8482 O   0  0  0  0  0  0  0  0  0  0  0  0
   -4.1090    0.7818    0.0180 C   0  0  0  0  0  0  0  0  0  0  0  0
    2.8423   -2.3197    0.7664 C   0  0  0  0  0  0  0  0  0  0  0  0
    3.7785   -2.6451    1.7469 C   0  0  0  0  0  0  0  0  0  0  0  0
    4.9604   -1.9166    1.8417 C   0  0  0  0  0  0  0  0  0  0  0  0
    5.2099   -0.8690    0.9511 C   0  0  0  0  0  0  0  0  0  0  0  0
    6.4103   -0.2267    1.1104 O   0  0  0  0  0  0  0  0  0  0  0  0
    0.0000    0.0000    0.0000 Na  0  0  0  0  0 15  0  0  0  0  0  0
    0.0000    0.0000    0.0000 Na  0  0  0  0  0 15  0  0  0  0  0  0
    6.1745    2.0664   -1.3835 H   0  0  0  0  0  0  0  0  0  0  0  0
    0.4057   -1.7620   -0.3731 H   0  0  0  0  0  0  0  0  0  0  0  0
    0.8036   -0.1133    0.2213 H   0  0  0  0  0  0  0  0  0  0  0  0
    0.3870    0.7949   -2.0586 H   0  0  0  0  0  0  0  0  0  0  0  0
    1.1497   -1.0263   -3.1252 H   0  0  0  0  0  0  0  0  0  0  0  0
   -2.0342    0.2554   -2.3259 H   0  0  0  0  0  0  0  0  0  0  0  0
   -1.8570   -1.1439   -1.2668 H   0  0  0  0  0  0  0  0  0  0  0  0
   -1.5750   -0.6409    1.8097 H   0  0  0  0  0  0  0  0  0  0  0  0
   -3.4826   -1.3554    3.2177 H   0  0  0  0  0  0  0  0  0  0  0  0
   -5.8055   -0.7508    2.5512 H   0  0  0  0  0  0  0  0  0  0  0  0
   -6.0877    2.5904   -2.2159 H   0  0  0  0  0  0  0  0  0  0  0  0
    1.9461   -2.9265    0.6799 H   0  0  0  0  0  0  0  0  0  0  0  0
    3.5931   -3.4710    2.4281 H   0  0  0  0  0  0  0  0  0  0  0  0
    5.7001   -2.1623    2.6008 H   0  0  0  0  0  0  0  0  0  0  0  0
  1  2  2  0
  2  3  1  0
  2  4  1  0
  4  5  2  0
  5  6  1  0
  6  7  2  0
  6  8  1  0
  8  9  2  0
  9 10  1  0
 10 11  1  0
 11 12  1  0
 12 13  1  0
 12 14  1  0
 14 15  1  0
 15 16  1  0
 16 17  2  0
 17 18  1  0
 18 19  2  0
 19 20  1  0
 20 21  1  0
 21 22  1  0
 22 23  1  0
 23 24  2  0
 23 25  1  0
 22 26  2  0
 26 27  1  0
 27 28  2  0
 27 29  1  0
  9 30  1  0
 30 31  2  0
 31 32  1  0
 32 33  2  0
 33 34  1  0
 34  4  1  0
 33  8  1  0
 29 16  1  0
 29 20  2  0
  5 37  1  0
 11 38  1  0
 11 39  1  0
 12 40  1  0
 13 41  1  0
 14 42  1  0
 14 43  1  0
 17 44  1  0
 18 45  1  0
 19 46  1  0
 26 47  1  0
 30 48  1  0
 31 49  1  0
 32 50  1  0
M  CHG  4   3  -1  25  -1  35   1  36   1
M  END
$$$$
