
     RDKit          3D

 63 67  0  0  0  0  0  0  0  0999 V2000
    2.3956    0.0928   -3.5913 C   0  0  0  0  0  0  0  0  0  0  0  0
    3.3038   -0.2037   -2.4025 C   0  0  0  0  0  0  0  0  0  0  0  0
    4.7419    0.1773   -2.7412 C   0  0  0  0  0  0  0  0  0  0  0  0
    3.2511   -1.6015   -2.0988 O   0  0  0  0  0  0  0  0  0  0  0  0
    2.6270   -1.7240   -0.8252 C   0  0  2  0  0  0  0  0  0  0  0  0
    1.1134   -2.0143   -0.9440 C   0  0  0  0  0  0  0  0  0  0  0  0
    0.4418   -0.7261   -0.4679 C   0  0  1  0  0  0  0  0  0  0  0  0
   -1.0179   -0.7725    0.0083 C   0  0  2  0  0  0  0  0  0  0  0  0
   -1.9208   -1.3673   -1.0851 C   0  0  0  0  0  0  0  0  0  0  0  0
   -3.3856   -1.3695   -0.6699 C   0  0  0  0  0  0  0  0  0  0  0  0
   -3.8647   -0.0006   -0.2505 C   0  0  0  0  0  0  0  0  0  0  0  0
   -5.0080    0.4920   -0.7600 C   0  0  0  0  0  0  0  0  0  0  0  0
   -5.5948    1.7620   -0.2736 C   0  0  0  0  0  0  0  0  0  0  0  0
   -6.6300    2.1837   -0.7833 O   0  0  0  0  0  0  0  0  0  0  0  0
   -4.9427    2.4371    0.9040 C   0  0  0  0  0  0  0  0  0  0  0  0
   -3.4352    2.2331    0.8666 C   0  0  0  0  0  0  0  0  0  0  0  0
   -3.0038    0.7375    0.7920 C   0  0  1  0  0  0  0  0  0  0  0  0
   -3.2860    0.0669    2.1564 C   0  0  0  0  0  0  0  0  0  0  0  0
   -1.4802    0.6774    0.3598 C   0  0  2  0  0  0  0  0  0  0  0  0
   -1.3990    1.3810   -0.8345 F   0  0  0  0  0  0  0  0  0  0  0  0
   -0.4833    1.4096    1.3159 C   0  0  1  0  0  0  0  0  0  0  0  0
   -0.6011    0.9698    2.6655 O   0  0  0  0  0  0  0  0  0  0  0  0
    0.9927    1.2857    0.8729 C   0  0  0  0  0  0  0  0  0  0  0  0
    1.4195   -0.1704    0.5931 C   0  0  1  0  0  0  0  0  0  0  0  0
    1.4428   -1.0061    1.9021 C   0  0  0  0  0  0  0  0  0  0  0  0
    2.7742   -0.3511   -0.1618 C   0  0  1  0  0  0  0  0  0  0  0  0
    4.0037   -0.1431    0.7520 C   0  0  0  0  0  0  0  0  0  0  0  0
    4.1139    0.8982    1.4079 O   0  0  0  0  0  0  0  0  0  0  0  0
    5.0296   -1.2591    0.8233 C   0  0  0  0  0  0  0  0  0  0  0  0
    6.5028   -0.7479    1.6696 Cl  0  0  0  0  0  0  0  0  0  0  0  0
    2.8719    0.5552   -1.2706 O   0  0  0  0  0  0  0  0  0  0  0  0
    2.7162   -0.4598   -4.4809 H   0  0  0  0  0  0  0  0  0  0  0  0
    2.3778    1.1636   -3.8199 H   0  0  0  0  0  0  0  0  0  0  0  0
    1.3641   -0.2102   -3.3885 H   0  0  0  0  0  0  0  0  0  0  0  0
    5.4096   -0.0061   -1.8943 H   0  0  0  0  0  0  0  0  0  0  0  0
    5.1212   -0.4123   -3.5824 H   0  0  0  0  0  0  0  0  0  0  0  0
    4.8224    1.2424   -2.9832 H   0  0  0  0  0  0  0  0  0  0  0  0
    3.0959   -2.5549   -0.2918 H   0  0  0  0  0  0  0  0  0  0  0  0
    0.8407   -2.8456   -0.2835 H   0  0  0  0  0  0  0  0  0  0  0  0
    0.8177   -2.2793   -1.9640 H   0  0  0  0  0  0  0  0  0  0  0  0
    0.4480   -0.0468   -1.3326 H   0  0  0  0  0  0  0  0  0  0  0  0
   -1.0964   -1.4151    0.8906 H   0  0  0  0  0  0  0  0  0  0  0  0
   -1.6188   -2.3988   -1.3020 H   0  0  0  0  0  0  0  0  0  0  0  0
   -1.8060   -0.8030   -2.0197 H   0  0  0  0  0  0  0  0  0  0  0  0
   -3.5259   -2.0651    0.1669 H   0  0  0  0  0  0  0  0  0  0  0  0
   -3.9858   -1.7627   -1.4997 H   0  0  0  0  0  0  0  0  0  0  0  0
   -5.5982   -0.0347   -1.5021 H   0  0  0  0  0  0  0  0  0  0  0  0
   -5.3829    2.0418    1.8248 H   0  0  0  0  0  0  0  0  0  0  0  0
   -5.1613    3.5096    0.8535 H   0  0  0  0  0  0  0  0  0  0  0  0
   -2.9952    2.7163    1.7473 H   0  0  0  0  0  0  0  0  0  0  0  0
   -3.0479    2.7745   -0.0072 H   0  0  0  0  0  0  0  0  0  0  0  0
   -2.7901   -0.9035    2.2533 H   0  0  0  0  0  0  0  0  0  0  0  0
   -2.9647    0.6926    2.9945 H   0  0  0  0  0  0  0  0  0  0  0  0
   -4.3586   -0.1101    2.3042 H   0  0  0  0  0  0  0  0  0  0  0  0
   -0.7233    2.4792    1.3120 H   0  0  0  0  0  0  0  0  0  0  0  0
   -0.0056    1.5221    3.2049 H   0  0  0  0  0  0  0  0  0  0  0  0
    1.6428    1.7201    1.6413 H   0  0  0  0  0  0  0  0  0  0  0  0
    1.1245    1.8934   -0.0311 H   0  0  0  0  0  0  0  0  0  0  0  0
    0.4516   -1.1673    2.3297 H   0  0  0  0  0  0  0  0  0  0  0  0
    2.0442   -0.5069    2.6702 H   0  0  0  0  0  0  0  0  0  0  0  0
    1.8747   -2.0014    1.7549 H   0  0  0  0  0  0  0  0  0  0  0  0
    5.3282   -1.5712   -0.1782 H   0  0  0  0  0  0  0  0  0  0  0  0
    4.6083   -2.1029    1.3748 H   0  0  0  0  0  0  0  0  0  0  0  0
  1  2  1  0
  2  3  1  0
  2  4  1  0
  4  5  1  0
  5  6  1  0
  6  7  1  0
  7  8  1  0
  8  9  1  0
  9 10  1  0
 10 11  1  0
 11 12  2  0
 12 13  1  0
 13 14  2  0
 13 15  1  0
 15 16  1  0
 16 17  1  0
 17 18  1  1
 17 19  1  0
 19 20  1  6
 19 21  1  0
 21 22  1  0
 21 23  1  0
 23 24  1  0
 24 25  1  1
 24 26  1  0
 26 27  1  1
 27 28  2  0
 27 29  1  0
 29 30  1  0
 26 31  1  0
 31  2  1  0
 26  5  1  0
 24  7  1  0
 19  8  1  0
 17 11  1  0
  1 32  1  0
  1 33  1  0
  1 34  1  0
  3 35  1  0
  3 36  1  0
  3 37  1  0
  5 38  1  1
  6 39  1  0
  6 40  1  0
  7 41  1  6
  8 42  1  1
  9 43  1  0
  9 44  1  0
 10 45  1  0
 10 46  1  0
 12 47  1  0
 15 48  1  0
 15 49  1  0
 16 50  1  0
 16 51  1  0
 18 52  1  0
 18 53  1  0
 18 54  1  0
 21 55  1  1
 22 56  1  0
 23 57  1  0
 23 58  1  0
 25 59  1  0
 25 60  1  0
 25 61  1  0
 29 62  1  0
 29 63  1  0
M  END
$$$$
