
     RDKit          3D

 53 54  0  0  0  0  0  0  0  0999 V2000
   -2.2087    0.0062   -2.9299 N   0  0  0  0  0  0  0  0  0  0  0  0
   -2.0316   -0.3254   -1.5040 C   0  0  1  0  0  0  0  0  0  0  0  0
   -1.4972    0.8576   -0.6847 C   0  0  0  0  0  0  0  0  0  0  0  0
   -0.0024    1.1071   -0.9172 C   0  0  0  0  0  0  0  0  0  0  0  0
    0.5423    2.3213   -0.1535 C   0  0  0  0  0  0  0  0  0  0  0  0
    0.3952    2.2540    1.3675 C   0  0  0  0  0  0  0  0  0  0  0  0
    1.0081    1.0787    1.9380 N   0  0  0  0  0  0  0  0  0  0  0  0
    2.3479    0.9714    2.1525 C   0  0  0  0  0  0  0  0  0  0  0  0
    3.1651    1.8633    1.9881 O   0  0  0  0  0  0  0  0  0  0  0  0
    2.6223   -0.2884    2.5641 O   0  0  0  0  0  0  0  0  0  0  0  0
    4.0066   -0.5712    2.7929 C   0  0  0  0  0  0  0  0  0  0  0  0
    4.6156   -1.1579    1.5433 C   0  0  0  0  0  0  0  0  0  0  0  0
    4.3416   -2.4851    1.1776 C   0  0  0  0  0  0  0  0  0  0  0  0
    4.8800   -3.0237    0.0069 C   0  0  0  0  0  0  0  0  0  0  0  0
    5.6940   -2.2270   -0.8068 C   0  0  0  0  0  0  0  0  0  0  0  0
    6.2520   -2.7851   -2.0431 N   0  0  0  0  0  4  0  0  0  0  0  0
    7.1512   -2.1467   -2.6086 O   0  0  0  0  0  0  0  0  0  0  0  0
    5.7905   -3.8615   -2.4506 O   0  0  0  0  0  1  0  0  0  0  0  0
    5.9688   -0.8983   -0.4602 C   0  0  0  0  0  0  0  0  0  0  0  0
    5.4258   -0.3691    0.7123 C   0  0  0  0  0  0  0  0  0  0  0  0
   -3.3262   -0.9216   -0.9003 C   0  0  0  0  0  0  0  0  0  0  0  0
   -3.3036   -2.0764   -0.4593 O   0  0  0  0  0  0  0  0  0  0  0  0
   -4.4761   -0.1681   -0.8385 N   0  0  0  0  0  0  0  0  0  0  0  0
   -4.7144    1.1688   -1.3626 C   0  0  0  0  0  0  0  0  0  0  0  0
   -6.2312    1.3160   -1.3463 C   0  0  0  0  0  0  0  0  0  0  0  0
   -6.6397    0.4591   -0.1557 C   0  0  0  0  0  0  0  0  0  0  0  0
   -5.6874   -0.7213   -0.2557 C   0  0  0  0  0  0  0  0  0  0  0  0
   -1.2978    0.1949   -3.3459 H   0  0  0  0  0  0  0  0  0  0  0  0
   -2.5634   -0.8233   -3.4085 H   0  0  0  0  0  0  0  0  0  0  0  0
   -1.2925   -1.1365   -1.4547 H   0  0  0  0  0  0  0  0  0  0  0  0
   -1.6738    0.6552    0.3776 H   0  0  0  0  0  0  0  0  0  0  0  0
   -2.0461    1.7744   -0.9233 H   0  0  0  0  0  0  0  0  0  0  0  0
    0.5670    0.2115   -0.6401 H   0  0  0  0  0  0  0  0  0  0  0  0
    0.1816    1.2737   -1.9854 H   0  0  0  0  0  0  0  0  0  0  0  0
    1.6040    2.4308   -0.4073 H   0  0  0  0  0  0  0  0  0  0  0  0
    0.0411    3.2276   -0.5144 H   0  0  0  0  0  0  0  0  0  0  0  0
   -0.6575    2.2534    1.6644 H   0  0  0  0  0  0  0  0  0  0  0  0
    0.8619    3.1401    1.8127 H   0  0  0  0  0  0  0  0  0  0  0  0
    0.4781    0.2236    2.0381 H   0  0  0  0  0  0  0  0  0  0  0  0
    4.0624   -1.3063    3.6042 H   0  0  0  0  0  0  0  0  0  0  0  0
    4.5615    0.3069    3.1455 H   0  0  0  0  0  0  0  0  0  0  0  0
    3.6970   -3.1020    1.8023 H   0  0  0  0  0  0  0  0  0  0  0  0
    4.6523   -4.0541   -0.2577 H   0  0  0  0  0  0  0  0  0  0  0  0
    6.5886   -0.2657   -1.0911 H   0  0  0  0  0  0  0  0  0  0  0  0
    5.6228    0.6710    0.9683 H   0  0  0  0  0  0  0  0  0  0  0  0
   -4.2569    1.8848   -0.6735 H   0  0  0  0  0  0  0  0  0  0  0  0
   -4.3026    1.3066   -2.3614 H   0  0  0  0  0  0  0  0  0  0  0  0
   -6.5523    2.3573   -1.2557 H   0  0  0  0  0  0  0  0  0  0  0  0
   -6.6599    0.8997   -2.2661 H   0  0  0  0  0  0  0  0  0  0  0  0
   -7.6903    0.1581   -0.1832 H   0  0  0  0  0  0  0  0  0  0  0  0
   -6.4619    1.0122    0.7747 H   0  0  0  0  0  0  0  0  0  0  0  0
   -6.0708   -1.4875   -0.9390 H   0  0  0  0  0  0  0  0  0  0  0  0
   -5.4807   -1.1833    0.7142 H   0  0  0  0  0  0  0  0  0  0  0  0
  1  2  1  0
  2  3  1  0
  3  4  1  0
  4  5  1  0
  5  6  1  0
  6  7  1  0
  7  8  1  0
  8  9  2  0
  8 10  1  0
 10 11  1  0
 11 12  1  0
 12 13  2  0
 13 14  1  0
 14 15  2  0
 15 16  1  0
 16 17  2  0
 16 18  1  0
 15 19  1  0
 19 20  2  0
  2 21  1  0
 21 22  2  0
 21 23  1  0
 23 24  1  0
 24 25  1  0
 25 26  1  0
 26 27  1  0
 20 12  1  0
 27 23  1  0
  1 28  1  0
  1 29  1  0
  2 30  1  6
  3 31  1  0
  3 32  1  0
  4 33  1  0
  4 34  1  0
  5 35  1  0
  5 36  1  0
  6 37  1  0
  6 38  1  0
  7 39  1  0
 11 40  1  0
 11 41  1  0
 13 42  1  0
 14 43  1  0
 19 44  1  0
 20 45  1  0
 24 46  1  0
 24 47  1  0
 25 48  1  0
 25 49  1  0
 26 50  1  0
 26 51  1  0
 27 52  1  0
 27 53  1  0
M  CHG  2  16   1  18  -1
M  END
$$$$
