
     RDKit          3D

 47 50  0  0  0  0  0  0  0  0999 V2000
    2.1885   -1.4795    3.1853 C   0  0  0  0  0  0  0  0  0  0  0  0
    1.0819   -1.0085    2.2716 C   0  0  0  0  0  0  0  0  0  0  0  0
   -0.0867   -0.8222    2.7979 N   0  0  0  0  0  0  0  0  0  0  0  0
   -1.0843   -0.3698    1.9795 C   0  0  0  0  0  0  0  0  0  0  0  0
   -0.9599   -0.0884    0.6761 C   0  0  0  0  0  0  0  0  0  0  0  0
   -2.0832    0.3969   -0.0536 C   0  0  0  0  0  0  0  0  0  0  0  0
   -3.3392    0.0236    0.1337 N   0  0  0  0  0  0  0  0  0  0  0  0
   -4.2087    0.6968   -0.7141 C   0  0  0  0  0  0  0  0  0  0  0  0
   -5.6445    0.4206   -0.6907 C   0  0  0  0  0  0  0  0  0  0  0  0
   -6.1921   -0.2783    0.3964 C   0  0  0  0  0  0  0  0  0  0  0  0
   -7.5597   -0.5598    0.4551 C   0  0  0  0  0  0  0  0  0  0  0  0
   -8.3996   -0.1492   -0.5764 C   0  0  0  0  0  0  0  0  0  0  0  0
   -7.8725    0.5391   -1.6666 C   0  0  0  0  0  0  0  0  0  0  0  0
   -6.5035    0.8213   -1.7252 C   0  0  0  0  0  0  0  0  0  0  0  0
   -3.5981    1.6311   -1.5236 C   0  0  0  0  0  0  0  0  0  0  0  0
   -1.9128    1.6574   -1.2325 S   0  0  0  0  0  0  0  0  0  0  0  0
    0.3650   -0.3617    0.0658 C   0  0  0  0  0  0  0  0  0  0  0  0
    0.5635   -0.2185   -1.1405 O   0  0  0  0  0  0  0  0  0  0  0  0
    1.3502   -0.8227    0.9331 N   0  0  0  0  0  0  0  0  0  0  0  0
    2.6701   -1.0490    0.3449 C   0  0  0  0  0  0  0  0  0  0  0  0
    3.4904    0.2465    0.3635 C   0  0  0  0  0  0  0  0  0  0  0  0
    3.2101    1.1841    1.1126 O   0  0  0  0  0  0  0  0  0  0  0  0
    4.6011    0.2826   -0.4536 N   0  0  0  0  0  0  0  0  0  0  0  0
    5.4447    1.4634   -0.5287 C   0  0  0  0  0  0  0  0  0  0  0  0
    6.3078    1.2363   -1.7617 C   0  0  0  0  0  0  0  0  0  0  0  0
    6.4266   -0.2817   -1.8208 C   0  0  0  0  0  0  0  0  0  0  0  0
    5.0463   -0.7463   -1.3798 C   0  0  0  0  0  0  0  0  0  0  0  0
    2.4439   -2.5158    2.9465 H   0  0  0  0  0  0  0  0  0  0  0  0
    1.8617   -1.4367    4.2288 H   0  0  0  0  0  0  0  0  0  0  0  0
    3.0744   -0.8490    3.0792 H   0  0  0  0  0  0  0  0  0  0  0  0
   -2.0402   -0.2178    2.4792 H   0  0  0  0  0  0  0  0  0  0  0  0
   -5.5512   -0.6092    1.2118 H   0  0  0  0  0  0  0  0  0  0  0  0
   -7.9643   -1.1008    1.3064 H   0  0  0  0  0  0  0  0  0  0  0  0
   -9.4631   -0.3690   -0.5325 H   0  0  0  0  0  0  0  0  0  0  0  0
   -8.5260    0.8541   -2.4762 H   0  0  0  0  0  0  0  0  0  0  0  0
   -6.1274    1.3465   -2.5984 H   0  0  0  0  0  0  0  0  0  0  0  0
   -4.0336    2.3012   -2.2491 H   0  0  0  0  0  0  0  0  0  0  0  0
    2.5544   -1.4008   -0.6849 H   0  0  0  0  0  0  0  0  0  0  0  0
    3.2191   -1.8134    0.9012 H   0  0  0  0  0  0  0  0  0  0  0  0
    6.0507    1.4999    0.3833 H   0  0  0  0  0  0  0  0  0  0  0  0
    4.8434    2.3752   -0.5939 H   0  0  0  0  0  0  0  0  0  0  0  0
    7.2759    1.7403   -1.6976 H   0  0  0  0  0  0  0  0  0  0  0  0
    5.7881    1.6012   -2.6558 H   0  0  0  0  0  0  0  0  0  0  0  0
    6.6998   -0.6523   -2.8125 H   0  0  0  0  0  0  0  0  0  0  0  0
    7.1845   -0.6215   -1.1046 H   0  0  0  0  0  0  0  0  0  0  0  0
    4.3454   -0.7687   -2.2213 H   0  0  0  0  0  0  0  0  0  0  0  0
    5.0632   -1.7278   -0.8981 H   0  0  0  0  0  0  0  0  0  0  0  0
  1  2  1  0
  2  3  2  0
  3  4  1  0
  4  5  2  0
  5  6  1  0
  6  7  2  0
  7  8  1  0
  8  9  1  0
  9 10  2  0
 10 11  1  0
 11 12  2  0
 12 13  1  0
 13 14  2  0
  8 15  2  0
 15 16  1  0
  5 17  1  0
 17 18  2  0
 17 19  1  0
 19 20  1  0
 20 21  1  0
 21 22  2  0
 21 23  1  0
 23 24  1  0
 24 25  1  0
 25 26  1  0
 26 27  1  0
 19  2  1  0
 27 23  1  0
 16  6  1  0
 14  9  1  0
  1 28  1  0
  1 29  1  0
  1 30  1  0
  4 31  1  0
 10 32  1  0
 11 33  1  0
 12 34  1  0
 13 35  1  0
 14 36  1  0
 15 37  1  0
 20 38  1  0
 20 39  1  0
 24 40  1  0
 24 41  1  0
 25 42  1  0
 25 43  1  0
 26 44  1  0
 26 45  1  0
 27 46  1  0
 27 47  1  0
M  END
$$$$
