
     RDKit          3D

 78 82  0  0  0  0  0  0  0  0999 V2000
   -6.4963   -1.1193   -2.7361 C   0  0  0  0  0  0  0  0  0  0  0  0
   -6.0254   -1.8563   -1.4914 C   0  0  0  0  0  0  0  0  0  0  0  0
   -5.8794   -0.9540   -0.3482 N   0  0  0  0  0  0  0  0  0  0  0  0
   -7.0581   -0.7750    0.5029 C   0  0  0  0  0  0  0  0  0  0  0  0
   -7.1202   -1.8206    1.6056 C   0  0  0  0  0  0  0  0  0  0  0  0
   -4.6589   -0.2836   -0.1913 C   0  0  0  0  0  0  0  0  0  0  0  0
   -3.7490   -0.4590   -1.0100 O   0  0  0  0  0  0  0  0  0  0  0  0
   -4.4887    0.6748    1.0364 C   0  0  0  0  0  0  0  0  0  0  0  0
   -5.0866    2.0632    0.8028 C   0  0  0  0  0  0  0  0  0  0  0  0
   -5.5317    2.8124    1.9062 C   0  0  0  0  0  0  0  0  0  0  0  0
   -6.0816    4.0834    1.7321 C   0  0  0  0  0  0  0  0  0  0  0  0
   -6.1854    4.6289    0.4548 C   0  0  0  0  0  0  0  0  0  0  0  0
   -5.7319    3.9083   -0.6475 C   0  0  0  0  0  0  0  0  0  0  0  0
   -5.1815    2.6363   -0.4761 C   0  0  0  0  0  0  0  0  0  0  0  0
   -3.0977    0.7376    1.5645 N   0  0  0  0  0  0  0  0  0  0  0  0
   -2.1501    1.5266    0.7576 C   0  0  0  0  0  0  0  0  0  0  0  0
   -0.6817    1.3988    1.2358 C   0  0  0  0  0  0  0  0  0  0  0  0
   -0.2241   -0.0038    1.2421 N   0  0  0  0  0  0  0  0  0  0  0  0
    1.1108   -0.2936    0.9817 C   0  0  0  0  0  0  0  0  0  0  0  0
    1.5034   -1.5081    0.3979 C   0  0  0  0  0  0  0  0  0  0  0  0
    2.8496   -1.8164    0.1343 C   0  0  0  0  0  0  0  0  0  0  0  0
    3.8604   -0.9171    0.4566 C   0  0  0  0  0  0  0  0  0  0  0  0
    5.2316   -1.1472    0.2259 N   0  0  0  0  0  0  0  0  0  0  0  0
    5.8099   -2.2520   -0.3677 C   0  0  0  0  0  0  0  0  0  0  0  0
    5.2466   -3.2708   -0.7477 O   0  0  0  0  0  0  0  0  0  0  0  0
    7.2931   -2.1898   -0.4995 C   0  0  0  0  0  0  0  0  0  0  0  0
    7.9961   -3.3174   -0.0407 C   0  0  0  0  0  0  0  0  0  0  0  0
    9.3876   -3.3529   -0.0908 C   0  0  0  0  0  0  0  0  0  0  0  0
   10.0865   -2.2671   -0.6069 C   0  0  0  0  0  0  0  0  0  0  0  0
    9.3931   -1.1514   -1.0838 C   0  0  0  0  0  0  0  0  0  0  0  0
    7.9846   -1.0873   -1.0493 C   0  0  0  0  0  0  0  0  0  0  0  0
    7.3193    0.0984   -1.6111 C   0  0  0  0  0  0  0  0  0  0  0  0
    7.5330    1.3767   -1.0765 C   0  0  0  0  0  0  0  0  0  0  0  0
    6.8833    2.4832   -1.6206 C   0  0  0  0  0  0  0  0  0  0  0  0
    6.0387    2.2839   -2.6984 C   0  0  0  0  0  0  0  0  0  0  0  0
    5.8108    1.0764   -3.2535 N   0  0  0  0  0  0  0  0  0  0  0  0
    6.4493    0.0168   -2.7000 C   0  0  0  0  0  0  0  0  0  0  0  0
    3.5041    0.2944    1.0441 C   0  0  0  0  0  0  0  0  0  0  0  0
    2.1613    0.5907    1.2976 C   0  0  0  0  0  0  0  0  0  0  0  0
    1.9062    1.7683    1.8936 F   0  0  0  0  0  0  0  0  0  0  0  0
   -1.2756   -1.0270    1.1602 C   0  0  0  0  0  0  0  0  0  0  0  0
   -2.5448   -0.5820    1.9300 C   0  0  0  0  0  0  0  0  0  0  0  0
   -7.4614   -0.6324   -2.5654 H   0  0  0  0  0  0  0  0  0  0  0  0
   -5.7811   -0.3447   -3.0309 H   0  0  0  0  0  0  0  0  0  0  0  0
   -6.6077   -1.8170   -3.5717 H   0  0  0  0  0  0  0  0  0  0  0  0
   -6.7320   -2.6519   -1.2295 H   0  0  0  0  0  0  0  0  0  0  0  0
   -5.0646   -2.3401   -1.7002 H   0  0  0  0  0  0  0  0  0  0  0  0
   -7.0639    0.2232    0.9448 H   0  0  0  0  0  0  0  0  0  0  0  0
   -7.9543   -0.8393   -0.1249 H   0  0  0  0  0  0  0  0  0  0  0  0
   -7.1823   -2.8308    1.1884 H   0  0  0  0  0  0  0  0  0  0  0  0
   -6.2326   -1.7808    2.2439 H   0  0  0  0  0  0  0  0  0  0  0  0
   -8.0015   -1.6578    2.2332 H   0  0  0  0  0  0  0  0  0  0  0  0
   -5.0676    0.2275    1.8533 H   0  0  0  0  0  0  0  0  0  0  0  0
   -5.4401    2.4067    2.9117 H   0  0  0  0  0  0  0  0  0  0  0  0
   -6.4214    4.6503    2.5949 H   0  0  0  0  0  0  0  0  0  0  0  0
   -6.6095    5.6203    0.3192 H   0  0  0  0  0  0  0  0  0  0  0  0
   -5.7997    4.3387   -1.6434 H   0  0  0  0  0  0  0  0  0  0  0  0
   -4.8183    2.1051   -1.3542 H   0  0  0  0  0  0  0  0  0  0  0  0
   -2.4167    2.5883    0.8105 H   0  0  0  0  0  0  0  0  0  0  0  0
   -2.1857    1.2372   -0.2982 H   0  0  0  0  0  0  0  0  0  0  0  0
   -0.5885    1.8104    2.2478 H   0  0  0  0  0  0  0  0  0  0  0  0
   -0.0712    2.0098    0.5597 H   0  0  0  0  0  0  0  0  0  0  0  0
    0.7633   -2.2469    0.1026 H   0  0  0  0  0  0  0  0  0  0  0  0
    3.0637   -2.7734   -0.3317 H   0  0  0  0  0  0  0  0  0  0  0  0
    5.8540   -0.4059    0.5202 H   0  0  0  0  0  0  0  0  0  0  0  0
    7.4514   -4.1714    0.3597 H   0  0  0  0  0  0  0  0  0  0  0  0
    9.9232   -4.2279    0.2693 H   0  0  0  0  0  0  0  0  0  0  0  0
   11.1730   -2.2925   -0.6537 H   0  0  0  0  0  0  0  0  0  0  0  0
    9.9671   -0.3280   -1.5085 H   0  0  0  0  0  0  0  0  0  0  0  0
    8.2022    1.5178   -0.2305 H   0  0  0  0  0  0  0  0  0  0  0  0
    7.0348    3.4778   -1.2150 H   0  0  0  0  0  0  0  0  0  0  0  0
    5.5090    3.1135   -3.1586 H   0  0  0  0  0  0  0  0  0  0  0  0
    6.2305   -0.9359   -3.1785 H   0  0  0  0  0  0  0  0  0  0  0  0
    4.2482    1.0338    1.3197 H   0  0  0  0  0  0  0  0  0  0  0  0
   -0.9337   -1.9641    1.6167 H   0  0  0  0  0  0  0  0  0  0  0  0
   -1.5172   -1.2293    0.1109 H   0  0  0  0  0  0  0  0  0  0  0  0
   -3.2972   -1.3774    1.8629 H   0  0  0  0  0  0  0  0  0  0  0  0
   -2.2826   -0.5201    2.9944 H   0  0  0  0  0  0  0  0  0  0  0  0
  1  2  1  0
  2  3  1  0
  3  4  1  0
  4  5  1  0
  3  6  1  0
  6  7  2  0
  6  8  1  0
  8  9  1  0
  9 10  2  0
 10 11  1  0
 11 12  2  0
 12 13  1  0
 13 14  2  0
  8 15  1  0
 15 16  1  0
 16 17  1  0
 17 18  1  0
 18 19  1  0
 19 20  2  0
 20 21  1  0
 21 22  2  0
 22 23  1  0
 23 24  1  0
 24 25  2  0
 24 26  1  0
 26 27  2  0
 27 28  1  0
 28 29  2  0
 29 30  1  0
 30 31  2  0
 31 32  1  0
 32 33  2  0
 33 34  1  0
 34 35  2  0
 35 36  1  0
 36 37  2  0
 22 38  1  0
 38 39  2  0
 39 40  1  0
 18 41  1  0
 41 42  1  0
 14  9  1  0
 42 15  1  0
 39 19  1  0
 31 26  1  0
 37 32  1  0
  1 43  1  0
  1 44  1  0
  1 45  1  0
  2 46  1  0
  2 47  1  0
  4 48  1  0
  4 49  1  0
  5 50  1  0
  5 51  1  0
  5 52  1  0
  8 53  1  0
 10 54  1  0
 11 55  1  0
 12 56  1  0
 13 57  1  0
 14 58  1  0
 16 59  1  0
 16 60  1  0
 17 61  1  0
 17 62  1  0
 20 63  1  0
 21 64  1  0
 23 65  1  0
 27 66  1  0
 28 67  1  0
 29 68  1  0
 30 69  1  0
 33 70  1  0
 34 71  1  0
 35 72  1  0
 37 73  1  0
 38 74  1  0
 41 75  1  0
 41 76  1  0
 42 77  1  0
 42 78  1  0
M  END
$$$$
