
     RDKit          3D

 53 56  0  0  0  0  0  0  0  0999 V2000
    4.2643    3.6680    2.9496 C   0  0  0  0  0  0  0  0  0  0  0  0
    3.9542    2.5937    1.9496 C   0  0  0  0  0  0  0  0  0  0  0  0
    4.0344    2.8496    0.5770 C   0  0  0  0  0  0  0  0  0  0  0  0
    3.7155    1.8536   -0.3552 C   0  0  0  0  0  0  0  0  0  0  0  0
    3.3052    0.5911    0.0713 C   0  0  0  0  0  0  0  0  0  0  0  0
    2.9712   -0.4672   -0.7959 N   0  0  0  0  0  0  0  0  0  0  0  0
    2.8841   -0.4363   -2.1809 C   0  0  0  0  0  0  0  0  0  0  0  0
    3.1005    0.5328   -2.9021 O   0  0  0  0  0  0  0  0  0  0  0  0
    2.4414   -1.7753   -2.7764 C   0  0  0  0  0  0  0  0  0  0  0  0
    1.0507   -1.9911   -2.4434 N   0  0  0  0  0  0  0  0  0  0  0  0
    0.6206   -2.4719   -1.2278 C   0  0  0  0  0  0  0  0  0  0  0  0
    1.3339   -2.7974   -0.2902 O   0  0  0  0  0  0  0  0  0  0  0  0
   -0.7588   -2.4601   -1.2292 N   0  0  0  0  0  0  0  0  0  0  0  0
   -1.2118   -1.9283   -2.4025 C   0  0  0  0  0  0  0  0  0  0  0  0
   -2.4670   -1.6438   -2.7585 C   0  0  0  0  0  0  0  0  0  0  0  0
   -3.5768   -1.8567   -1.8980 C   0  0  0  0  0  0  0  0  0  0  0  0
   -4.6427   -2.7258   -2.0683 C   0  0  0  0  0  0  0  0  0  0  0  0
   -5.4178   -2.6955   -0.8943 C   0  0  0  0  0  0  0  0  0  0  0  0
   -4.8294   -1.7885   -0.0434 C   0  0  0  0  0  0  0  0  0  0  0  0
   -3.7403   -1.1992   -0.6694 N   0  0  0  0  0  0  0  0  0  0  0  0
   -2.9714   -0.1297   -0.0998 C   0  0  0  0  0  0  0  0  0  0  0  0
   -2.3236    0.8123   -0.9108 C   0  0  0  0  0  0  0  0  0  0  0  0
   -1.5574    1.8347   -0.3415 C   0  0  0  0  0  0  0  0  0  0  0  0
   -1.4479    1.9401    1.0434 C   0  0  0  0  0  0  0  0  0  0  0  0
   -2.1093    1.0242    1.8669 C   0  0  0  0  0  0  0  0  0  0  0  0
   -1.9801    1.1852    3.3365 C   0  0  0  0  0  0  0  0  0  0  0  0
   -1.4437    2.1152    3.9110 O   0  0  0  0  0  0  0  0  0  0  0  0
   -2.5346    0.1696    4.0211 O   0  0  0  0  0  0  0  0  0  0  0  0
   -2.8738   -0.0071    1.2961 C   0  0  0  0  0  0  0  0  0  0  0  0
   -0.0075   -1.6352   -3.2378 C   0  0  0  0  0  0  0  0  0  0  0  0
   -0.0081   -1.1590   -4.3570 O   0  0  0  0  0  0  0  0  0  0  0  0
    3.2167    0.3394    1.4445 C   0  0  0  0  0  0  0  0  0  0  0  0
    3.5306    1.3329    2.3762 C   0  0  0  0  0  0  0  0  0  0  0  0
    3.3356    4.1266    3.3071 H   0  0  0  0  0  0  0  0  0  0  0  0
    4.8952    4.4485    2.5103 H   0  0  0  0  0  0  0  0  0  0  0  0
    4.8088    3.2531    3.8064 H   0  0  0  0  0  0  0  0  0  0  0  0
    4.3451    3.8288    0.2162 H   0  0  0  0  0  0  0  0  0  0  0  0
    3.8007    2.1025   -1.4076 H   0  0  0  0  0  0  0  0  0  0  0  0
    2.6890   -1.3353   -0.3379 H   0  0  0  0  0  0  0  0  0  0  0  0
    3.0586   -2.5805   -2.3596 H   0  0  0  0  0  0  0  0  0  0  0  0
    2.5686   -1.7471   -3.8628 H   0  0  0  0  0  0  0  0  0  0  0  0
   -1.3277   -2.7288   -0.4395 H   0  0  0  0  0  0  0  0  0  0  0  0
   -2.6644   -1.2417   -3.7511 H   0  0  0  0  0  0  0  0  0  0  0  0
   -4.8150   -3.3509   -2.9366 H   0  0  0  0  0  0  0  0  0  0  0  0
   -6.3142   -3.2677   -0.6877 H   0  0  0  0  0  0  0  0  0  0  0  0
   -5.1568   -1.4658    0.9356 H   0  0  0  0  0  0  0  0  0  0  0  0
   -2.4278    0.8094   -1.9928 H   0  0  0  0  0  0  0  0  0  0  0  0
   -1.0615    2.5625   -0.9817 H   0  0  0  0  0  0  0  0  0  0  0  0
   -0.8544    2.7452    1.4753 H   0  0  0  0  0  0  0  0  0  0  0  0
   -2.3720    0.4068    4.9582 H   0  0  0  0  0  0  0  0  0  0  0  0
   -3.3553   -0.7236    1.9559 H   0  0  0  0  0  0  0  0  0  0  0  0
    2.8881   -0.6316    1.8115 H   0  0  0  0  0  0  0  0  0  0  0  0
    3.4378    1.1154    3.4386 H   0  0  0  0  0  0  0  0  0  0  0  0
  1  2  1  0
  2  3  2  0
  3  4  1  0
  4  5  2  0
  5  6  1  0
  6  7  1  0
  7  8  2  0
  7  9  1  0
  9 10  1  0
 10 11  1  0
 11 12  2  0
 11 13  1  0
 13 14  1  0
 14 15  2  0
 15 16  1  0
 16 17  2  0
 17 18  1  0
 18 19  2  0
 19 20  1  0
 20 21  1  0
 21 22  2  0
 22 23  1  0
 23 24  2  0
 24 25  1  0
 25 26  1  0
 26 27  2  0
 26 28  1  0
 25 29  2  0
 14 30  1  0
 30 31  2  0
  5 32  1  0
 32 33  2  0
 33  2  1  0
 30 10  1  0
 20 16  1  0
 29 21  1  0
  1 34  1  0
  1 35  1  0
  1 36  1  0
  3 37  1  0
  4 38  1  0
  6 39  1  0
  9 40  1  0
  9 41  1  0
 13 42  1  0
 15 43  1  0
 17 44  1  0
 18 45  1  0
 19 46  1  0
 22 47  1  0
 23 48  1  0
 24 49  1  0
 28 50  1  0
 29 51  1  0
 32 52  1  0
 33 53  1  0
M  END
$$$$
