
     RDKit          3D

 57 60  0  0  0  0  0  0  0  0999 V2000
   -4.2132   -4.6475   -0.2550 C   0  0  0  0  0  0  0  0  0  0  0  0
   -3.6329   -3.6632   -1.0978 O   0  0  0  0  0  0  0  0  0  0  0  0
   -3.1124   -2.5425   -0.5017 C   0  0  0  0  0  0  0  0  0  0  0  0
   -2.9916   -2.3552    0.8803 C   0  0  0  0  0  0  0  0  0  0  0  0
   -2.4269   -1.1840    1.4143 C   0  0  0  0  0  0  0  0  0  0  0  0
   -2.2632   -1.0909    2.8047 N   0  0  0  0  0  0  0  0  0  0  0  0
   -1.4761   -0.2669    3.6043 C   0  0  0  0  0  0  0  0  0  0  0  0
   -1.6660   -0.3802    4.9293 N   0  0  0  0  0  0  0  0  0  0  0  0
   -0.8953    0.3950    5.7190 C   0  0  0  0  0  0  0  0  0  0  0  0
    0.0621    1.2493    5.2341 C   0  0  0  0  0  0  0  0  0  0  0  0
    0.8142    1.9915    6.0587 F   0  0  0  0  0  0  0  0  0  0  0  0
    0.2311    1.2875    3.8632 C   0  0  0  0  0  0  0  0  0  0  0  0
    1.1793    2.1926    3.3192 N   0  0  0  0  0  0  0  0  0  0  0  0
    1.7089    2.1558    2.0078 C   0  0  0  0  0  0  0  0  0  0  0  0
    2.5113    3.2245    1.6013 C   0  0  0  0  0  0  0  0  0  0  0  0
    3.0475    3.2370    0.3132 C   0  0  0  0  0  0  0  0  0  0  0  0
    2.7779    2.1784   -0.5397 C   0  0  0  0  0  0  0  0  0  0  0  0
    1.9674    1.1573   -0.0665 C   0  0  0  0  0  0  0  0  0  0  0  0
    1.4396    1.1344    1.1705 N   0  0  0  0  0  0  0  0  0  0  0  0
    1.6245    0.1093   -0.9046 N   0  0  0  0  0  0  0  0  0  0  0  0
    2.0930    0.0168   -2.1818 C   0  0  0  0  0  0  0  0  0  0  0  0
    1.6893   -0.8548   -2.9496 O   0  0  0  0  0  0  0  0  0  0  0  0
    3.2361    1.0031   -2.5320 C   0  0  0  0  0  0  0  0  0  0  0  0
    4.5699    0.2747   -2.3055 C   0  0  0  0  0  0  0  0  0  0  0  0
    3.1154    1.3885   -4.0105 C   0  0  0  0  0  0  0  0  0  0  0  0
    3.2919    2.2358   -1.8018 O   0  0  0  0  0  0  0  0  0  0  0  0
   -0.5640    0.5531    3.0641 N   0  0  0  0  0  0  0  0  0  0  0  0
   -1.9871   -0.1955    0.5231 C   0  0  0  0  0  0  0  0  0  0  0  0
   -2.1216   -0.3444   -0.8610 C   0  0  0  0  0  0  0  0  0  0  0  0
   -1.7308    0.6068   -1.7688 O   0  0  0  0  0  0  0  0  0  0  0  0
   -1.7473    1.9539   -1.3106 C   0  0  0  0  0  0  0  0  0  0  0  0
   -2.6505   -1.5390   -1.3678 C   0  0  0  0  0  0  0  0  0  0  0  0
   -2.8003   -1.7306   -2.7231 O   0  0  0  0  0  0  0  0  0  0  0  0
   -1.5350   -1.9683   -3.3419 C   0  0  0  0  0  0  0  0  0  0  0  0
   -4.6348   -5.4291   -0.8943 H   0  0  0  0  0  0  0  0  0  0  0  0
   -3.4558   -5.1138    0.3834 H   0  0  0  0  0  0  0  0  0  0  0  0
   -5.0309   -4.2288    0.3412 H   0  0  0  0  0  0  0  0  0  0  0  0
   -3.3122   -3.1288    1.5697 H   0  0  0  0  0  0  0  0  0  0  0  0
   -2.8244   -1.6978    3.3827 H   0  0  0  0  0  0  0  0  0  0  0  0
   -1.0709    0.3052    6.7854 H   0  0  0  0  0  0  0  0  0  0  0  0
    1.9317    2.3461    3.9831 H   0  0  0  0  0  0  0  0  0  0  0  0
    2.7065    4.0550    2.2726 H   0  0  0  0  0  0  0  0  0  0  0  0
    3.6623    4.0680   -0.0194 H   0  0  0  0  0  0  0  0  0  0  0  0
    0.9176   -0.5361   -0.5799 H   0  0  0  0  0  0  0  0  0  0  0  0
    4.6344   -0.6445   -2.8978 H   0  0  0  0  0  0  0  0  0  0  0  0
    5.4176    0.9189   -2.5652 H   0  0  0  0  0  0  0  0  0  0  0  0
    4.6961    0.0004   -1.2518 H   0  0  0  0  0  0  0  0  0  0  0  0
    2.1635    1.9004   -4.1950 H   0  0  0  0  0  0  0  0  0  0  0  0
    3.9088    2.0864   -4.3016 H   0  0  0  0  0  0  0  0  0  0  0  0
    3.1620    0.5160   -4.6708 H   0  0  0  0  0  0  0  0  0  0  0  0
   -1.5355    0.7075    0.9182 H   0  0  0  0  0  0  0  0  0  0  0  0
   -0.8874    2.1595   -0.6671 H   0  0  0  0  0  0  0  0  0  0  0  0
   -2.6864    2.1968   -0.8014 H   0  0  0  0  0  0  0  0  0  0  0  0
   -1.6661    2.6040   -2.1871 H   0  0  0  0  0  0  0  0  0  0  0  0
   -0.8665   -2.5685   -2.7135 H   0  0  0  0  0  0  0  0  0  0  0  0
   -1.0582   -1.0222   -3.6133 H   0  0  0  0  0  0  0  0  0  0  0  0
   -1.7169   -2.5261   -4.2657 H   0  0  0  0  0  0  0  0  0  0  0  0
  1  2  1  0
  2  3  1  0
  3  4  2  0
  4  5  1  0
  5  6  1  0
  6  7  1  0
  7  8  2  0
  8  9  1  0
  9 10  2  0
 10 11  1  0
 10 12  1  0
 12 13  1  0
 13 14  1  0
 14 15  2  0
 15 16  1  0
 16 17  2  0
 17 18  1  0
 18 19  2  0
 18 20  1  0
 20 21  1  0
 21 22  2  0
 21 23  1  0
 23 24  1  0
 23 25  1  0
 23 26  1  0
 12 27  2  0
  5 28  2  0
 28 29  1  0
 29 30  1  0
 30 31  1  0
 29 32  2  0
 32 33  1  0
 33 34  1  0
 32  3  1  0
 27  7  1  0
 19 14  1  0
 26 17  1  0
  1 35  1  0
  1 36  1  0
  1 37  1  0
  4 38  1  0
  6 39  1  0
  9 40  1  0
 13 41  1  0
 15 42  1  0
 16 43  1  0
 20 44  1  0
 24 45  1  0
 24 46  1  0
 24 47  1  0
 25 48  1  0
 25 49  1  0
 25 50  1  0
 28 51  1  0
 31 52  1  0
 31 53  1  0
 31 54  1  0
 34 55  1  0
 34 56  1  0
 34 57  1  0
M  END
$$$$
