
     RDKit          3D

 92 92  0  0  0  0  0  0  0  0999 V2000
    7.6610   -3.5848   -2.0536 C   0  0  0  0  0  0  0  0  0  0  0  0
    6.7830   -2.8548   -2.9013 O   0  0  0  0  0  0  0  0  0  0  0  0
    7.3466   -1.6002   -3.2871 C   0  0  0  0  0  0  0  0  0  0  0  0
    6.2415   -0.7140   -3.8525 C   0  0  0  0  0  0  0  0  0  0  0  0
    5.2691   -0.2701   -2.7611 C   0  0  0  0  0  0  0  0  0  0  0  0
    5.9812    0.5768   -1.8566 O   0  0  0  0  0  0  0  0  0  0  0  0
    5.4677    0.7053   -0.5909 C   0  0  0  0  0  0  0  0  0  0  0  0
    4.1130    0.5376   -0.2819 C   0  0  0  0  0  0  0  0  0  0  0  0
    3.6559    0.6946    1.0343 C   0  0  0  0  0  0  0  0  0  0  0  0
    2.1967    0.4871    1.3763 C   0  0  0  0  0  0  0  0  0  0  0  0
    1.2411    1.5610    0.8058 C   0  0  1  0  0  0  0  0  0  0  0  0
   -0.2508    1.1216    0.8692 C   0  0  0  0  0  0  0  0  0  0  0  0
   -0.8246    0.5837    2.2031 C   0  0  2  0  0  0  0  0  0  0  0  0
   -0.3178   -0.7578    2.5110 N   0  0  0  0  0  0  0  0  0  0  0  0
   -2.3845    0.6785    2.2538 C   0  0  1  0  0  0  0  0  0  0  0  0
   -2.7241    2.0680    2.4201 O   0  0  0  0  0  0  0  0  0  0  0  0
   -3.1851    0.1608    1.0444 C   0  0  0  0  0  0  0  0  0  0  0  0
   -3.0915   -1.3432    0.7208 C   0  0  2  0  0  0  0  0  0  0  0  0
   -3.7685   -1.6567   -0.6204 C   0  0  0  0  0  0  0  0  0  0  0  0
   -3.2128   -2.3568   -1.4651 O   0  0  0  0  0  0  0  0  0  0  0  0
   -5.0205   -1.1268   -0.7998 N   0  0  0  0  0  0  0  0  0  0  0  0
   -5.8619   -1.4640   -1.9347 C   0  0  0  0  0  0  0  0  0  0  0  0
   -6.7360   -0.2816   -2.4201 C   0  0  0  0  0  0  0  0  0  0  0  0
   -5.8392    0.8505   -2.9500 C   0  0  0  0  0  0  0  0  0  0  0  0
   -7.6426   -0.7919   -3.5539 C   0  0  0  0  0  0  0  0  0  0  0  0
   -7.6006    0.2482   -1.2655 C   0  0  0  0  0  0  0  0  0  0  0  0
   -8.5122    1.2146   -1.5768 N   0  0  0  0  0  0  0  0  0  0  0  0
   -7.4840   -0.1222   -0.0984 O   0  0  0  0  0  0  0  0  0  0  0  0
   -3.5578   -2.2813    1.8651 C   0  0  0  0  0  0  0  0  0  0  0  0
   -5.0282   -2.1420    2.2605 C   0  0  0  0  0  0  0  0  0  0  0  0
   -3.2470   -3.7486    1.5461 C   0  0  0  0  0  0  0  0  0  0  0  0
    1.5373    3.0008    1.3421 C   0  0  0  0  0  0  0  0  0  0  0  0
    0.7703    4.0765    0.5607 C   0  0  0  0  0  0  0  0  0  0  0  0
    1.3126    3.2068    2.8404 C   0  0  0  0  0  0  0  0  0  0  0  0
    4.5728    1.0353    2.0340 C   0  0  0  0  0  0  0  0  0  0  0  0
    5.9239    1.2186    1.7301 C   0  0  0  0  0  0  0  0  0  0  0  0
    6.3825    1.0519    0.4204 C   0  0  0  0  0  0  0  0  0  0  0  0
    7.6904    1.2052    0.0305 O   0  0  0  0  0  0  0  0  0  0  0  0
    8.6702    1.2745    1.0549 C   0  0  0  0  0  0  0  0  0  0  0  0
    8.6532   -3.6802   -2.5062 H   0  0  0  0  0  0  0  0  0  0  0  0
    7.2430   -4.5863   -1.9037 H   0  0  0  0  0  0  0  0  0  0  0  0
    7.7351   -3.0871   -1.0806 H   0  0  0  0  0  0  0  0  0  0  0  0
    8.0997   -1.7889   -4.0590 H   0  0  0  0  0  0  0  0  0  0  0  0
    7.8398   -1.1174   -2.4363 H   0  0  0  0  0  0  0  0  0  0  0  0
    5.6848   -1.2579   -4.6222 H   0  0  0  0  0  0  0  0  0  0  0  0
    6.6997    0.1688   -4.3120 H   0  0  0  0  0  0  0  0  0  0  0  0
    4.8546   -1.1518   -2.2553 H   0  0  0  0  0  0  0  0  0  0  0  0
    4.4531    0.3062   -3.2142 H   0  0  0  0  0  0  0  0  0  0  0  0
    3.3947    0.2921   -1.0576 H   0  0  0  0  0  0  0  0  0  0  0  0
    1.9205   -0.4988    0.9776 H   0  0  0  0  0  0  0  0  0  0  0  0
    2.0903    0.4148    2.4648 H   0  0  0  0  0  0  0  0  0  0  0  0
    1.4544    1.6191   -0.2728 H   0  0  0  0  0  0  0  0  0  0  0  0
   -0.3855    0.3406    0.1066 H   0  0  0  0  0  0  0  0  0  0  0  0
   -0.8698    1.9555    0.5197 H   0  0  0  0  0  0  0  0  0  0  0  0
   -0.4613    1.2242    3.0100 H   0  0  0  0  0  0  0  0  0  0  0  0
   -0.4437   -1.3986    1.7320 H   0  0  0  0  0  0  0  0  0  0  0  0
   -0.7965   -1.1501    3.3198 H   0  0  0  0  0  0  0  0  0  0  0  0
   -2.7351    0.1829    3.1675 H   0  0  0  0  0  0  0  0  0  0  0  0
   -3.6789    2.1196    2.5988 H   0  0  0  0  0  0  0  0  0  0  0  0
   -4.2353    0.4414    1.2036 H   0  0  0  0  0  0  0  0  0  0  0  0
   -2.9049    0.7389    0.1525 H   0  0  0  0  0  0  0  0  0  0  0  0
   -2.0341   -1.5568    0.5266 H   0  0  0  0  0  0  0  0  0  0  0  0
   -5.5271   -0.7777    0.0100 H   0  0  0  0  0  0  0  0  0  0  0  0
   -5.2369   -1.8369   -2.7550 H   0  0  0  0  0  0  0  0  0  0  0  0
   -6.4943   -2.2998   -1.6063 H   0  0  0  0  0  0  0  0  0  0  0  0
   -5.2438    1.2972   -2.1458 H   0  0  0  0  0  0  0  0  0  0  0  0
   -5.1494    0.4795   -3.7183 H   0  0  0  0  0  0  0  0  0  0  0  0
   -6.4283    1.6586   -3.3997 H   0  0  0  0  0  0  0  0  0  0  0  0
   -8.3795   -1.5090   -3.1727 H   0  0  0  0  0  0  0  0  0  0  0  0
   -8.2001    0.0228   -4.0270 H   0  0  0  0  0  0  0  0  0  0  0  0
   -7.0585   -1.2877   -4.3370 H   0  0  0  0  0  0  0  0  0  0  0  0
   -8.4891    1.7179   -2.4524 H   0  0  0  0  0  0  0  0  0  0  0  0
   -9.0098    1.6436   -0.8084 H   0  0  0  0  0  0  0  0  0  0  0  0
   -2.9691   -2.0353    2.7564 H   0  0  0  0  0  0  0  0  0  0  0  0
   -5.6966   -2.4972    1.4708 H   0  0  0  0  0  0  0  0  0  0  0  0
   -5.2385   -2.7404    3.1551 H   0  0  0  0  0  0  0  0  0  0  0  0
   -5.2891   -1.1073    2.4987 H   0  0  0  0  0  0  0  0  0  0  0  0
   -3.8452   -4.1157    0.7068 H   0  0  0  0  0  0  0  0  0  0  0  0
   -3.4631   -4.3851    2.4110 H   0  0  0  0  0  0  0  0  0  0  0  0
   -2.1887   -3.8780    1.2969 H   0  0  0  0  0  0  0  0  0  0  0  0
    2.6002    3.2025    1.1535 H   0  0  0  0  0  0  0  0  0  0  0  0
    0.9047    3.9487   -0.5178 H   0  0  0  0  0  0  0  0  0  0  0  0
    1.1391    5.0744    0.8234 H   0  0  0  0  0  0  0  0  0  0  0  0
   -0.3013    4.0581    0.7796 H   0  0  0  0  0  0  0  0  0  0  0  0
    1.8026    2.4353    3.4390 H   0  0  0  0  0  0  0  0  0  0  0  0
    1.7274    4.1716    3.1533 H   0  0  0  0  0  0  0  0  0  0  0  0
    0.2491    3.2273    3.0905 H   0  0  0  0  0  0  0  0  0  0  0  0
    4.2360    1.1661    3.0601 H   0  0  0  0  0  0  0  0  0  0  0  0
    6.5922    1.4963    2.5374 H   0  0  0  0  0  0  0  0  0  0  0  0
    9.6536    1.2522    0.5763 H   0  0  0  0  0  0  0  0  0  0  0  0
    8.6075    0.4122    1.7259 H   0  0  0  0  0  0  0  0  0  0  0  0
    8.5914    2.2144    1.6093 H   0  0  0  0  0  0  0  0  0  0  0  0
  1  2  1  0
  2  3  1  0
  3  4  1  0
  4  5  1  0
  5  6  1  0
  6  7  1  0
  7  8  2  0
  8  9  1  0
  9 10  1  0
 10 11  1  0
 11 12  1  0
 12 13  1  0
 13 14  1  0
 13 15  1  0
 15 16  1  0
 15 17  1  0
 17 18  1  0
 18 19  1  0
 19 20  2  0
 19 21  1  0
 21 22  1  0
 22 23  1  0
 23 24  1  0
 23 25  1  0
 23 26  1  0
 26 27  1  0
 26 28  2  0
 18 29  1  0
 29 30  1  0
 29 31  1  0
 11 32  1  0
 32 33  1  0
 32 34  1  0
  9 35  2  0
 35 36  1  0
 36 37  2  0
 37 38  1  0
 38 39  1  0
 37  7  1  0
  1 40  1  0
  1 41  1  0
  1 42  1  0
  3 43  1  0
  3 44  1  0
  4 45  1  0
  4 46  1  0
  5 47  1  0
  5 48  1  0
  8 49  1  0
 10 50  1  0
 10 51  1  0
 11 52  1  6
 12 53  1  0
 12 54  1  0
 13 55  1  1
 14 56  1  0
 14 57  1  0
 15 58  1  1
 16 59  1  0
 17 60  1  0
 17 61  1  0
 18 62  1  6
 21 63  1  0
 22 64  1  0
 22 65  1  0
 24 66  1  0
 24 67  1  0
 24 68  1  0
 25 69  1  0
 25 70  1  0
 25 71  1  0
 27 72  1  0
 27 73  1  0
 29 74  1  0
 30 75  1  0
 30 76  1  0
 30 77  1  0
 31 78  1  0
 31 79  1  0
 31 80  1  0
 32 81  1  0
 33 82  1  0
 33 83  1  0
 33 84  1  0
 34 85  1  0
 34 86  1  0
 34 87  1  0
 35 88  1  0
 36 89  1  0
 39 90  1  0
 39 91  1  0
 39 92  1  0
M  END
$$$$
