
     RDKit          3D

 19 19  0  0  0  0  0  0  0  0999 V2000
   -1.4375   -2.2297    0.1061 C   0  0  0  0  0  0  0  0  0  0  0  0
   -0.6910   -0.9336    0.0256 C   0  0  0  0  0  0  0  0  0  0  0  0
    0.6979   -0.9153   -0.0914 C   0  0  0  0  0  0  0  0  0  0  0  0
    1.3527    0.3114   -0.1300 C   0  0  0  0  0  0  0  0  0  0  0  0
    2.8450    0.3644   -0.2619 C   0  0  0  0  0  0  0  0  0  0  0  0
    0.6980    1.4931   -0.0488 N   0  0  0  0  0  0  0  0  0  0  0  0
   -0.6373    1.4725    0.0782 C   0  0  0  0  0  0  0  0  0  0  0  0
   -1.3000    2.7018    0.1701 N   0  0  0  0  0  0  0  0  0  0  0  0
   -1.3631    0.2866    0.1243 C   0  0  0  0  0  0  0  0  0  0  0  0
   -1.5221   -2.5492    1.1493 H   0  0  0  0  0  0  0  0  0  0  0  0
   -0.9246   -3.0122   -0.4630 H   0  0  0  0  0  0  0  0  0  0  0  0
   -2.4430   -2.1281   -0.3157 H   0  0  0  0  0  0  0  0  0  0  0  0
    1.2644   -1.8395   -0.1524 H   0  0  0  0  0  0  0  0  0  0  0  0
    3.3176   -0.1408    0.5862 H   0  0  0  0  0  0  0  0  0  0  0  0
    3.1600   -0.1207   -1.1911 H   0  0  0  0  0  0  0  0  0  0  0  0
    3.1986    1.4003   -0.2817 H   0  0  0  0  0  0  0  0  0  0  0  0
   -1.8046    2.7474    1.0491 H   0  0  0  0  0  0  0  0  0  0  0  0
   -1.9691    2.7813   -0.5883 H   0  0  0  0  0  0  0  0  0  0  0  0
   -2.4419    0.3104    0.2354 H   0  0  0  0  0  0  0  0  0  0  0  0
  1  2  1  0
  2  3  2  0
  3  4  1  0
  4  5  1  0
  4  6  2  0
  6  7  1  0
  7  8  1  0
  7  9  2  0
  9  2  1  0
  1 10  1  0
  1 11  1  0
  1 12  1  0
  3 13  1  0
  5 14  1  0
  5 15  1  0
  5 16  1  0
  8 17  1  0
  8 18  1  0
  9 19  1  0
M  END
$$$$
