
     RDKit          3D

 47 44  0  0  0  0  0  0  0  0999 V2000
    0.7973    1.3260    1.9461 C   0  0  0  0  0  0  0  0  0  0  0  0
    0.8853    0.4250    0.7076 C   0  0  2  0  0  0  0  0  0  0  0  0
    0.6497   -0.9538    1.0812 N   0  0  0  0  0  0  0  0  0  0  0  0
   -0.7646   -1.3091    1.3671 C   0  0  0  0  0  0  0  0  0  0  0  0
   -1.7661   -1.0836    0.2222 C   0  0  0  0  0  0  0  0  0  0  0  0
   -1.9616   -2.1049   -0.7263 C   0  0  0  0  0  0  0  0  0  0  0  0
   -2.8355   -1.9446   -1.7889 C   0  0  0  0  0  0  0  0  0  0  0  0
   -3.5065   -0.7398   -1.9298 C   0  0  0  0  0  0  0  0  0  0  0  0
   -3.3219    0.3078   -1.0412 C   0  0  0  0  0  0  0  0  0  0  0  0
   -3.9900    1.4339   -1.3350 N   0  0  0  0  0  0  0  0  0  0  0  0
   -3.8270    2.5284   -0.5397 C   0  0  0  0  0  0  0  0  0  0  0  0
   -4.4953    3.5539   -0.9477 O   0  0  0  0  0  1  0  0  0  0  0  0
   -2.9528    2.4281    0.6161 C   0  0  0  0  0  0  0  0  0  0  0  0
   -2.6763    3.3664    1.4560 O   0  0  0  0  0  1  0  0  0  0  0  0
   -2.3102    1.2338    0.8869 N   0  0  0  0  0  0  0  0  0  0  0  0
   -2.4583    0.1615    0.0679 C   0  0  0  0  0  0  0  0  0  0  0  0
   -0.3263   -3.4260    1.6950 P   0  0  0  0  0  5  0  0  0  0  0  0
    0.3788   -3.4678    3.0535 O   0  0  0  0  0  0  0  0  0  0  0  0
    0.5947   -3.7443    0.5023 O   0  0  0  0  0  1  0  0  0  0  0  0
   -1.6836   -4.1282    1.6591 O   0  0  0  0  0  1  0  0  0  0  0  0
    2.2726    0.6193    0.0764 C   0  0  0  0  0  0  0  0  0  0  0  0
    2.4826    1.7037   -0.7931 C   0  0  0  0  0  0  0  0  0  0  0  0
    3.7353    1.9272   -1.3682 C   0  0  0  0  0  0  0  0  0  0  0  0
    4.7908    1.0651   -1.0751 C   0  0  0  0  0  0  0  0  0  0  0  0
    6.4900    1.3648   -1.8539 Br  0  0  0  0  0  0  0  0  0  0  0  0
    4.6074   -0.0129   -0.2119 C   0  0  0  0  0  0  0  0  0  0  0  0
    3.3539   -0.2300    0.3642 C   0  0  0  0  0  0  0  0  0  0  0  0
   -0.0102    0.3977    0.0000 O   0  0  0  0  0  0  0  0  0  0  0  0
    0.0000    0.0000    0.0000 Na  0  0  0  0  0 15  0  0  0  0  0  0
    0.0000    0.0000    0.0000 Na  0  0  0  0  0 15  0  0  0  0  0  0
    0.0000    0.0000    0.0000 Na  0  0  0  0  0 15  0  0  0  0  0  0
    0.0000    0.0000    0.0000 Na  0  0  0  0  0 15  0  0  0  0  0  0
    1.5834    1.0889    2.6731 H   0  0  0  0  0  0  0  0  0  0  0  0
   -0.1640    1.2286    2.4597 H   0  0  0  0  0  0  0  0  0  0  0  0
    0.9142    2.3813    1.6714 H   0  0  0  0  0  0  0  0  0  0  0  0
    0.1676    0.7482   -0.0500 H   0  0  0  0  0  0  0  0  0  0  0  0
    0.9438   -1.6649    0.4003 H   0  0  0  0  0  0  0  0  0  0  0  0
   -1.1321   -1.0525    2.3653 H   0  0  0  0  0  0  0  0  0  0  0  0
   -1.4360   -3.0516   -0.6264 H   0  0  0  0  0  0  0  0  0  0  0  0
   -2.9832   -2.7550   -2.4915 H   0  0  0  0  0  0  0  0  0  0  0  0
   -4.1863   -0.5895   -2.7613 H   0  0  0  0  0  0  0  0  0  0  0  0
    1.6505    2.3718   -1.0160 H   0  0  0  0  0  0  0  0  0  0  0  0
    3.8628    2.7703   -2.0386 H   0  0  0  0  0  0  0  0  0  0  0  0
    5.4141   -0.6988    0.0225 H   0  0  0  0  0  0  0  0  0  0  0  0
    3.2027   -1.0764    1.0375 H   0  0  0  0  0  0  0  0  0  0  0  0
   -0.7581   -0.2184    0.0000 H   0  0  0  0  0  0  0  0  0  0  0  0
    0.7682   -0.1794    0.0000 H   0  0  0  0  0  0  0  0  0  0  0  0
  1  2  1  0
  2  3  1  0
  3  4  1  0
  4  5  1  0
  5  6  2  0
  6  7  1  0
  7  8  2  0
  8  9  1  0
  9 10  2  0
 10 11  1  0
 11 12  1  0
 11 13  2  0
 13 14  1  0
 13 15  1  0
 15 16  2  0
  4 17  1  0
 17 18  2  0
 17 19  1  0
 17 20  1  0
  2 21  1  0
 21 22  2  0
 22 23  1  0
 23 24  2  0
 24 25  1  0
 24 26  1  0
 26 27  2  0
 16  5  1  0
 27 21  1  0
 16  9  1  0
  1 33  1  0
  1 34  1  0
  1 35  1  0
  2 36  1  6
  3 37  1  0
  4 38  1  0
  6 39  1  0
  7 40  1  0
  8 41  1  0
 22 42  1  0
 23 43  1  0
 26 44  1  0
 27 45  1  0
 28 46  1  0
 28 47  1  0
M  CHG  8  12  -1  14  -1  19  -1  20  -1  29   1  30   1  31   1  32   1
M  END
$$$$
