
     RDKit          3D

 32 33  0  0  0  0  0  0  0  0999 V2000
   -5.7745   -0.1207   -1.0688 N   0  0  0  0  0  0  0  0  0  0  0  0
   -5.2586   -0.7811    0.3926 S   0  0  0  0  0  6  0  0  0  0  0  0
   -5.8434    0.0478    1.4214 O   0  0  0  0  0  0  0  0  0  0  0  0
   -5.4630   -2.2086    0.3341 O   0  0  0  0  0  0  0  0  0  0  0  0
   -3.5178   -0.4594    0.3291 C   0  0  0  0  0  0  0  0  0  0  0  0
   -2.6780   -1.3580   -0.3284 C   0  0  0  0  0  0  0  0  0  0  0  0
   -1.3032   -1.1039   -0.3845 C   0  0  0  0  0  0  0  0  0  0  0  0
   -0.7463    0.0202    0.2400 C   0  0  0  0  0  0  0  0  0  0  0  0
    0.6049    0.3611    0.1516 N   0  0  0  0  0  0  0  0  0  0  0  0
    1.5951   -0.6669   -0.1431 C   0  0  0  0  0  0  0  0  0  0  0  0
    2.9796   -0.0827    0.0146 C   0  0  0  0  0  0  0  0  0  0  0  0
    3.4754    0.8275   -0.9312 C   0  0  0  0  0  0  0  0  0  0  0  0
    4.7485    1.3796   -0.7845 C   0  0  0  0  0  0  0  0  0  0  0  0
    5.5369    1.0320    0.3108 C   0  0  0  0  0  0  0  0  0  0  0  0
    5.0522    0.1356    1.2618 C   0  0  0  0  0  0  0  0  0  0  0  0
    3.7785   -0.4177    1.1173 C   0  0  0  0  0  0  0  0  0  0  0  0
   -1.6203    0.9200    0.8722 C   0  0  0  0  0  0  0  0  0  0  0  0
   -2.9960    0.6802    0.9370 C   0  0  0  0  0  0  0  0  0  0  0  0
   -5.0048    0.1470   -1.6816 H   0  0  0  0  0  0  0  0  0  0  0  0
   -6.3953    0.6663   -0.8724 H   0  0  0  0  0  0  0  0  0  0  0  0
   -3.0808   -2.2507   -0.8030 H   0  0  0  0  0  0  0  0  0  0  0  0
   -0.6795   -1.8077   -0.9282 H   0  0  0  0  0  0  0  0  0  0  0  0
    0.9026    0.9671    0.9133 H   0  0  0  0  0  0  0  0  0  0  0  0
    1.4862   -1.0338   -1.1709 H   0  0  0  0  0  0  0  0  0  0  0  0
    1.4759   -1.5235    0.5321 H   0  0  0  0  0  0  0  0  0  0  0  0
    2.8618    1.1137   -1.7834 H   0  0  0  0  0  0  0  0  0  0  0  0
    5.1232    2.0836   -1.5229 H   0  0  0  0  0  0  0  0  0  0  0  0
    6.5282    1.4628    0.4252 H   0  0  0  0  0  0  0  0  0  0  0  0
    5.6664   -0.1313    2.1180 H   0  0  0  0  0  0  0  0  0  0  0  0
    3.4142   -1.1114    1.8718 H   0  0  0  0  0  0  0  0  0  0  0  0
   -1.2270    1.8260    1.3291 H   0  0  0  0  0  0  0  0  0  0  0  0
   -3.6411    1.3867    1.4543 H   0  0  0  0  0  0  0  0  0  0  0  0
  1  2  1  0
  2  3  2  0
  2  4  2  0
  2  5  1  0
  5  6  2  0
  6  7  1  0
  7  8  2  0
  8  9  1  0
  9 10  1  0
 10 11  1  0
 11 12  2  0
 12 13  1  0
 13 14  2  0
 14 15  1  0
 15 16  2  0
  8 17  1  0
 17 18  2  0
 18  5  1  0
 16 11  1  0
  1 19  1  0
  1 20  1  0
  6 21  1  0
  7 22  1  0
  9 23  1  0
 10 24  1  0
 10 25  1  0
 12 26  1  0
 13 27  1  0
 14 28  1  0
 15 29  1  0
 16 30  1  0
 17 31  1  0
 18 32  1  0
M  END
$$$$
