
     RDKit          3D

 23 23  0  0  0  0  0  0  0  0999 V2000
    1.7369   -1.5052    1.9466 O   0  0  0  0  0  0  0  0  0  0  0  0
    0.7449   -0.7148    2.0032 C   0  0  0  0  0  0  0  0  0  0  0  0
    0.3981    0.0503    2.9531 O   0  0  0  0  0  1  0  0  0  0  0  0
   -0.1422   -0.6851    0.7187 C   0  0  0  0  0  0  0  0  0  0  0  0
    0.3517    0.4717   -0.1578 C   0  0  0  0  0  0  0  0  0  0  0  0
    1.4725    0.5069   -0.8959 C   0  0  0  0  0  0  0  0  0  0  0  0
    2.4782   -0.5935   -0.9884 C   0  0  0  0  0  0  0  0  0  0  0  0
    3.0746   -0.5363   -2.2846 O   0  0  0  0  0  0  0  0  0  0  0  0
   -0.5247    1.5737   -0.1934 O   0  0  0  0  0  0  0  0  0  0  0  0
   -1.6341    1.1519    0.6366 C   0  0  0  0  0  0  0  0  0  0  0  0
   -2.9651    0.8422   -0.0661 C   0  0  0  0  0  0  0  0  0  0  0  0
   -2.5126   -0.6185    0.0531 C   0  0  0  0  0  0  0  0  0  0  0  0
   -2.8280   -1.6640   -0.4662 O   0  0  0  0  0  0  0  0  0  0  0  0
   -1.5311   -0.2801    0.9359 N   0  0  0  0  0  0  0  0  0  0  0  0
    0.0000    0.0000    0.0000 K   0  0  0  0  0 15  0  0  0  0  0  0
   -0.1203   -1.6386    0.1808 H   0  0  0  0  0  0  0  0  0  0  0  0
    1.6789    1.4115   -1.4588 H   0  0  0  0  0  0  0  0  0  0  0  0
    3.2693   -0.4679   -0.2432 H   0  0  0  0  0  0  0  0  0  0  0  0
    2.0283   -1.5832   -0.8783 H   0  0  0  0  0  0  0  0  0  0  0  0
    3.6717    0.2289   -2.2624 H   0  0  0  0  0  0  0  0  0  0  0  0
   -1.7259    1.7718    1.5350 H   0  0  0  0  0  0  0  0  0  0  0  0
   -3.0521    1.2022   -1.0936 H   0  0  0  0  0  0  0  0  0  0  0  0
   -3.8691    1.0761    0.5016 H   0  0  0  0  0  0  0  0  0  0  0  0
  1  2  2  0
  2  3  1  0
  2  4  1  0
  4  5  1  0
  5  6  2  0
  6  7  1  0
  7  8  1  0
  5  9  1  0
  9 10  1  0
 10 11  1  0
 11 12  1  0
 12 13  2  0
 12 14  1  0
 14  4  1  0
 14 10  1  0
  4 16  1  0
  6 17  1  0
  7 18  1  0
  7 19  1  0
  8 20  1  0
 10 21  1  0
 11 22  1  0
 11 23  1  0
M  CHG  2   3  -1  15   1
M  END
$$$$
