
     RDKit          3D

 40 42  0  0  0  0  0  0  0  0999 V2000
   -5.1878   -3.2915   -0.9527 C   0  0  0  0  0  0  0  0  0  0  0  0
   -4.8026   -2.0129   -0.4698 O   0  0  0  0  0  0  0  0  0  0  0  0
   -3.6116   -1.9169    0.2061 C   0  0  0  0  0  0  0  0  0  0  0  0
   -2.7455   -2.9903    0.4378 C   0  0  0  0  0  0  0  0  0  0  0  0
   -1.5491   -2.7991    1.1337 C   0  0  0  0  0  0  0  0  0  0  0  0
   -1.1993   -1.5305    1.6062 C   0  0  0  0  0  0  0  0  0  0  0  0
    0.0988   -1.3184    2.3504 C   0  0  0  0  0  0  0  0  0  0  0  0
    1.0596   -0.3564    1.6663 C   0  0  0  0  0  0  0  0  0  0  0  0
    1.6017    0.5478    2.2990 O   0  0  0  0  0  0  0  0  0  0  0  0
    1.2821   -0.6428    0.3356 N   0  0  0  0  0  0  0  0  0  0  0  0
    2.1381    0.0868   -0.4459 C   0  0  0  0  0  0  0  0  0  0  0  0
    2.9749    1.1534   -0.2345 C   0  0  0  0  0  0  0  0  0  0  0  0
    3.5653    1.3904   -1.4942 C   0  0  0  0  0  0  0  0  0  0  0  0
    4.5467    2.4401   -1.7995 C   0  0  0  0  0  0  0  0  0  0  0  0
    5.0369    3.3811   -0.8410 C   0  0  0  0  0  0  0  0  0  0  0  0
    5.9490    4.2578   -1.3896 C   0  0  0  0  0  0  0  0  0  0  0  0
    6.2169    3.9523   -3.0504 S   0  0  0  0  0  0  0  0  0  0  0  0
    5.1121    2.6458   -3.0422 C   0  0  0  0  0  0  0  0  0  0  0  0
    3.1203    0.5247   -2.4142 N   0  0  0  0  0  0  0  0  0  0  0  0
    2.2219   -0.2924   -1.7499 O   0  0  0  0  0  0  0  0  0  0  0  0
   -2.0725   -0.4539    1.3833 C   0  0  0  0  0  0  0  0  0  0  0  0
   -3.2720   -0.6355    0.6836 C   0  0  0  0  0  0  0  0  0  0  0  0
   -4.1739    0.3651    0.4183 O   0  0  0  0  0  0  0  0  0  0  0  0
   -3.8521    1.6791    0.8507 C   0  0  0  0  0  0  0  0  0  0  0  0
   -4.4714   -3.6673   -1.6906 H   0  0  0  0  0  0  0  0  0  0  0  0
   -5.3190   -4.0019   -0.1299 H   0  0  0  0  0  0  0  0  0  0  0  0
   -6.1543   -3.1826   -1.4543 H   0  0  0  0  0  0  0  0  0  0  0  0
   -2.9753   -3.9924    0.0910 H   0  0  0  0  0  0  0  0  0  0  0  0
   -0.8994   -3.6555    1.3052 H   0  0  0  0  0  0  0  0  0  0  0  0
    0.6283   -2.2680    2.4942 H   0  0  0  0  0  0  0  0  0  0  0  0
   -0.1338   -0.9302    3.3495 H   0  0  0  0  0  0  0  0  0  0  0  0
    0.7628   -1.3783   -0.1281 H   0  0  0  0  0  0  0  0  0  0  0  0
    3.1311    1.6782    0.6950 H   0  0  0  0  0  0  0  0  0  0  0  0
    4.7464    3.4278    0.2013 H   0  0  0  0  0  0  0  0  0  0  0  0
    6.4723    5.0650   -0.8951 H   0  0  0  0  0  0  0  0  0  0  0  0
    4.9296    2.0894   -3.9523 H   0  0  0  0  0  0  0  0  0  0  0  0
   -1.7950    0.5235    1.7681 H   0  0  0  0  0  0  0  0  0  0  0  0
   -4.6650    2.3421    0.5392 H   0  0  0  0  0  0  0  0  0  0  0  0
   -3.7828    1.7292    1.9422 H   0  0  0  0  0  0  0  0  0  0  0  0
   -2.9319    2.0373    0.3775 H   0  0  0  0  0  0  0  0  0  0  0  0
  1  2  1  0
  2  3  1  0
  3  4  2  0
  4  5  1  0
  5  6  2  0
  6  7  1  0
  7  8  1  0
  8  9  2  0
  8 10  1  0
 10 11  1  0
 11 12  2  0
 12 13  1  0
 13 14  1  0
 14 15  1  0
 15 16  2  0
 16 17  1  0
 17 18  1  0
 13 19  2  0
 19 20  1  0
  6 21  1  0
 21 22  2  0
 22 23  1  0
 23 24  1  0
 22  3  1  0
 20 11  1  0
 18 14  2  0
  1 25  1  0
  1 26  1  0
  1 27  1  0
  4 28  1  0
  5 29  1  0
  7 30  1  0
  7 31  1  0
 10 32  1  0
 12 33  1  0
 15 34  1  0
 16 35  1  0
 18 36  1  0
 21 37  1  0
 24 38  1  0
 24 39  1  0
 24 40  1  0
M  END
$$$$
