
     RDKit          3D

 32 35  0  0  0  0  0  0  0  0999 V2000
   -0.9947    3.1704    0.0632 O   0  0  0  0  0  0  0  0  0  0  0  0
   -1.5731    2.1063   -0.0107 C   0  0  0  0  0  0  0  0  0  0  0  0
   -2.9501    1.9663    0.0813 N   0  0  0  0  0  0  0  0  0  0  0  0
   -3.3365    0.6358    0.0503 C   0  0  0  0  0  0  0  0  0  0  0  0
   -4.6325    0.1611    0.1133 C   0  0  0  0  0  0  0  0  0  0  0  0
   -4.8157   -1.2181    0.0220 C   0  0  0  0  0  0  0  0  0  0  0  0
   -3.7140   -2.0737   -0.1430 C   0  0  0  0  0  0  0  0  0  0  0  0
   -2.4094   -1.5653   -0.2040 C   0  0  0  0  0  0  0  0  0  0  0  0
   -2.2219   -0.1973   -0.0785 C   0  0  0  0  0  0  0  0  0  0  0  0
   -1.0384    0.6922   -0.1162 C   0  0  0  0  0  0  0  0  0  0  0  0
    0.2454    0.2959   -0.1805 C   0  0  0  0  0  0  0  0  0  0  0  0
    0.7327   -1.0064   -0.0287 N   0  0  0  0  0  0  0  0  0  0  0  0
    2.1202   -0.9454    0.1614 C   0  0  0  0  0  0  0  0  0  0  0  0
    2.9606   -2.0071    0.4459 C   0  0  0  0  0  0  0  0  0  0  0  0
    4.3321   -1.7581    0.5461 C   0  0  0  0  0  0  0  0  0  0  0  0
    4.8410   -0.4646    0.3470 C   0  0  0  0  0  0  0  0  0  0  0  0
    3.9869    0.5983    0.0376 C   0  0  0  0  0  0  0  0  0  0  0  0
    2.6303    0.3378   -0.0606 C   0  0  0  0  0  0  0  0  0  0  0  0
    1.4657    1.2041   -0.3660 C   0  0  0  0  0  0  0  0  0  0  0  0
    1.4362    2.4301   -0.7714 N   0  0  0  0  0  0  0  0  0  0  0  0
    2.6921    3.0185   -0.8971 O   0  0  0  0  0  0  0  0  0  0  0  0
   -3.5617    2.7619    0.1773 H   0  0  0  0  0  0  0  0  0  0  0  0
   -5.4794    0.8294    0.2184 H   0  0  0  0  0  0  0  0  0  0  0  0
   -5.8198   -1.6349    0.0614 H   0  0  0  0  0  0  0  0  0  0  0  0
   -3.8789   -3.1453   -0.2388 H   0  0  0  0  0  0  0  0  0  0  0  0
   -1.5860   -2.2479   -0.3770 H   0  0  0  0  0  0  0  0  0  0  0  0
    0.2254   -1.5966    0.6190 H   0  0  0  0  0  0  0  0  0  0  0  0
    2.5728   -3.0106    0.5825 H   0  0  0  0  0  0  0  0  0  0  0  0
    5.0146   -2.5741    0.7734 H   0  0  0  0  0  0  0  0  0  0  0  0
    5.9114   -0.2879    0.4277 H   0  0  0  0  0  0  0  0  0  0  0  0
    4.3902    1.5916   -0.1162 H   0  0  0  0  0  0  0  0  0  0  0  0
    2.4545    3.9335   -1.1392 H   0  0  0  0  0  0  0  0  0  0  0  0
  1  2  2  0
  2  3  1  0
  3  4  1  0
  4  5  2  0
  5  6  1  0
  6  7  2  0
  7  8  1  0
  8  9  2  0
  9 10  1  0
 10 11  2  0
 11 12  1  0
 12 13  1  0
 13 14  2  0
 14 15  1  0
 15 16  2  0
 16 17  1  0
 17 18  2  0
 18 19  1  0
 19 20  2  0
 20 21  1  0
 10  2  1  0
 19 11  1  0
  9  4  1  0
 18 13  1  0
  3 22  1  0
  5 23  1  0
  6 24  1  0
  7 25  1  0
  8 26  1  0
 12 27  1  0
 14 28  1  0
 15 29  1  0
 16 30  1  0
 17 31  1  0
 21 32  1  0
M  END
$$$$
