
     RDKit          3D

 27 27  0  0  0  0  0  0  0  0999 V2000
   -2.0487   -4.3270    0.8606 N   0  0  0  0  0  0  0  0  0  0  0  0
   -1.5580   -3.2906    0.6838 C   0  0  0  0  0  0  0  0  0  0  0  0
   -0.9509   -2.0085    0.4651 C   0  0  0  0  0  0  0  0  0  0  0  0
   -0.5933   -1.6194   -0.8321 C   0  0  0  0  0  0  0  0  0  0  0  0
   -0.0017   -0.3748   -1.0604 C   0  0  0  0  0  0  0  0  0  0  0  0
    0.3783    0.0668   -2.3485 N   0  0  0  0  0  0  0  0  0  0  0  0
    0.2508   -0.5953   -3.5557 C   0  0  0  0  0  0  0  0  0  0  0  0
   -0.2188   -1.7030   -3.7563 O   0  0  0  0  0  0  0  0  0  0  0  0
    0.8009    0.2612   -4.7275 C   0  0  0  0  0  0  0  0  0  0  0  0
    1.2756    1.3707   -4.5578 O   0  0  0  0  0  0  0  0  0  0  0  0
    0.7103   -0.3163   -5.9264 O   0  0  0  0  0  0  0  0  0  0  0  0
    0.2266    0.4786    0.0409 C   0  0  0  0  0  0  0  0  0  0  0  0
    0.9641    2.0363   -0.2248 Cl  0  0  0  0  0  0  0  0  0  0  0  0
   -0.1296    0.0974    1.3527 C   0  0  0  0  0  0  0  0  0  0  0  0
    0.1260    0.9983    2.4118 N   0  0  0  0  0  0  0  0  0  0  0  0
   -0.1368    0.8361    3.7596 C   0  0  0  0  0  0  0  0  0  0  0  0
   -0.6464   -0.1241    4.3130 O   0  0  0  0  0  0  0  0  0  0  0  0
    0.3080    2.0810    4.5730 C   0  0  0  0  0  0  0  0  0  0  0  0
    0.8195    3.0545    4.0479 O   0  0  0  0  0  0  0  0  0  0  0  0
    0.0845    1.9948    5.8851 O   0  0  0  0  0  0  0  0  0  0  0  0
   -0.7195   -1.1533    1.5500 C   0  0  0  0  0  0  0  0  0  0  0  0
   -0.7896   -2.3119   -1.6475 H   0  0  0  0  0  0  0  0  0  0  0  0
    0.8028    0.9938   -2.4046 H   0  0  0  0  0  0  0  0  0  0  0  0
    1.0880    0.3251   -6.5608 H   0  0  0  0  0  0  0  0  0  0  0  0
    0.5610    1.8866    2.1582 H   0  0  0  0  0  0  0  0  0  0  0  0
    0.4083    2.8350    6.2667 H   0  0  0  0  0  0  0  0  0  0  0  0
   -1.0116   -1.4923    2.5414 H   0  0  0  0  0  0  0  0  0  0  0  0
  1  2  3  0
  2  3  1  0
  3  4  2  0
  4  5  1  0
  5  6  1  0
  6  7  1  0
  7  8  2  0
  7  9  1  0
  9 10  2  0
  9 11  1  0
  5 12  2  0
 12 13  1  0
 12 14  1  0
 14 15  1  0
 15 16  1  0
 16 17  2  0
 16 18  1  0
 18 19  2  0
 18 20  1  0
 14 21  2  0
 21  3  1  0
  4 22  1  0
  6 23  1  0
 11 24  1  0
 15 25  1  0
 20 26  1  0
 21 27  1  0
M  END
$$$$
