
     RDKit          3D

 47 49  0  0  0  0  0  0  0  0999 V2000
    7.6032   -0.2632    0.2035 C   0  0  0  0  0  0  0  0  0  0  0  0
    6.6613   -0.6444   -0.9284 C   0  0  0  0  0  0  0  0  0  0  0  0
    5.2802   -0.2770   -0.6330 N   0  0  0  0  0  0  0  0  0  0  0  0
    4.8136    0.9868   -1.0170 C   0  0  0  0  0  0  0  0  0  0  0  0
    3.5660    1.4223   -0.7613 C   0  0  0  0  0  0  0  0  0  0  0  0
    2.7401    0.5182   -0.0619 C   0  0  0  0  0  0  0  0  0  0  0  0
    3.1331   -0.7345    0.3550 C   0  0  0  0  0  0  0  0  0  0  0  0
    2.0282   -1.3173    1.0110 C   0  0  0  0  0  0  0  0  0  0  0  0
    0.9648   -0.4235    0.9390 C   0  0  0  0  0  0  0  0  0  0  0  0
   -0.3796   -0.6432    1.4468 C   0  0  0  0  0  0  0  0  0  0  0  0
   -0.5814   -1.1005    2.5645 O   0  0  0  0  0  0  0  0  0  0  0  0
   -1.3510   -0.3231    0.5233 N   0  0  0  0  0  0  0  0  0  0  0  0
   -2.7540   -0.3589    0.6683 C   0  0  0  0  0  0  0  0  0  0  0  0
   -3.4005   -0.6697    1.8626 C   0  0  0  0  0  0  0  0  0  0  0  0
   -4.7962   -0.6763    1.9196 C   0  0  0  0  0  0  0  0  0  0  0  0
   -5.5611   -0.3717    0.7928 C   0  0  0  0  0  0  0  0  0  0  0  0
   -6.9130   -0.4145    0.9975 O   0  0  0  0  0  0  0  0  0  0  0  0
   -7.7498   -0.1530   -0.1215 C   0  0  0  0  0  0  0  0  0  0  0  0
   -4.9203   -0.0537   -0.4067 C   0  0  0  0  0  0  0  0  0  0  0  0
   -3.5206   -0.0473   -0.4756 C   0  0  0  0  0  0  0  0  0  0  0  0
   -2.7897    0.2619   -1.6027 O   0  0  0  0  0  0  0  0  0  0  0  0
   -3.5117    0.4300   -2.8169 C   0  0  0  0  0  0  0  0  0  0  0  0
    1.4474    0.7342    0.3370 N   0  0  0  0  0  0  0  0  0  0  0  0
    0.7213    1.9840    0.2307 C   0  0  0  0  0  0  0  0  0  0  0  0
    4.4852   -1.2059    0.0849 C   0  0  0  0  0  0  0  0  0  0  0  0
    4.8791   -2.3092    0.4520 O   0  0  0  0  0  0  0  0  0  0  0  0
    8.6293   -0.5543   -0.0415 H   0  0  0  0  0  0  0  0  0  0  0  0
    7.5871    0.8170    0.3815 H   0  0  0  0  0  0  0  0  0  0  0  0
    7.3201   -0.7597    1.1373 H   0  0  0  0  0  0  0  0  0  0  0  0
    6.9738   -0.1601   -1.8611 H   0  0  0  0  0  0  0  0  0  0  0  0
    6.7178   -1.7259   -1.0975 H   0  0  0  0  0  0  0  0  0  0  0  0
    5.5189    1.6213   -1.5464 H   0  0  0  0  0  0  0  0  0  0  0  0
    3.2344    2.4038   -1.0778 H   0  0  0  0  0  0  0  0  0  0  0  0
    1.9910   -2.3013    1.4636 H   0  0  0  0  0  0  0  0  0  0  0  0
   -1.0440   -0.1053   -0.4181 H   0  0  0  0  0  0  0  0  0  0  0  0
   -2.8517   -0.9114    2.7673 H   0  0  0  0  0  0  0  0  0  0  0  0
   -5.2902   -0.9232    2.8570 H   0  0  0  0  0  0  0  0  0  0  0  0
   -8.7888   -0.2489    0.2080 H   0  0  0  0  0  0  0  0  0  0  0  0
   -7.6095    0.8694   -0.4875 H   0  0  0  0  0  0  0  0  0  0  0  0
   -7.5842   -0.8852   -0.9187 H   0  0  0  0  0  0  0  0  0  0  0  0
   -5.5084    0.1939   -1.2798 H   0  0  0  0  0  0  0  0  0  0  0  0
   -4.1547    1.3149   -2.7711 H   0  0  0  0  0  0  0  0  0  0  0  0
   -2.7835    0.5901   -3.6179 H   0  0  0  0  0  0  0  0  0  0  0  0
   -4.0870   -0.4681   -3.0651 H   0  0  0  0  0  0  0  0  0  0  0  0
    1.4151    2.8190    0.3542 H   0  0  0  0  0  0  0  0  0  0  0  0
    0.2485    2.0191   -0.7537 H   0  0  0  0  0  0  0  0  0  0  0  0
   -0.0285    2.0442    1.0228 H   0  0  0  0  0  0  0  0  0  0  0  0
  1  2  1  0
  2  3  1  0
  3  4  1  0
  4  5  2  0
  5  6  1  0
  6  7  2  0
  7  8  1  0
  8  9  2  0
  9 10  1  0
 10 11  2  0
 10 12  1  0
 12 13  1  0
 13 14  2  0
 14 15  1  0
 15 16  2  0
 16 17  1  0
 17 18  1  0
 16 19  1  0
 19 20  2  0
 20 21  1  0
 21 22  1  0
  9 23  1  0
 23 24  1  0
  7 25  1  0
 25 26  2  0
 25  3  1  0
 23  6  1  0
 20 13  1  0
  1 27  1  0
  1 28  1  0
  1 29  1  0
  2 30  1  0
  2 31  1  0
  4 32  1  0
  5 33  1  0
  8 34  1  0
 12 35  1  0
 14 36  1  0
 15 37  1  0
 18 38  1  0
 18 39  1  0
 18 40  1  0
 19 41  1  0
 22 42  1  0
 22 43  1  0
 22 44  1  0
 24 45  1  0
 24 46  1  0
 24 47  1  0
M  END
$$$$
