
     RDKit          3D

 48 53  0  0  0  0  0  0  0  0999 V2000
   -3.2497    4.2791    0.0093 C   0  0  0  0  0  0  0  0  0  0  0  0
   -2.3694    3.1863    0.3727 N   0  0  0  0  0  0  0  0  0  0  0  0
   -1.3383    3.4537    1.3660 C   0  0  0  0  0  0  0  0  0  0  0  0
   -0.1567    2.4886    1.2553 C   0  0  0  0  0  0  0  0  0  0  0  0
    0.9539    2.7944    1.6859 O   0  0  0  0  0  0  0  0  0  0  0  0
   -0.4771    1.2204    0.7538 N   0  0  0  0  0  0  0  0  0  0  0  0
   -1.9074    0.8053    0.8578 C   0  0  2  0  0  0  0  0  0  0  0  0
   -2.2580   -0.5433    0.1907 C   0  0  0  0  0  0  0  0  0  0  0  0
   -1.2307   -1.5519    0.5292 C   0  0  0  0  0  0  0  0  0  0  0  0
    0.0636   -1.1649    0.7887 C   0  0  0  0  0  0  0  0  0  0  0  0
    0.7954   -2.2933    1.0487 N   0  0  0  0  0  0  0  0  0  0  0  0
   -0.0159   -3.4054    0.9712 C   0  0  0  0  0  0  0  0  0  0  0  0
    0.2908   -4.7581    1.1602 C   0  0  0  0  0  0  0  0  0  0  0  0
   -0.7454   -5.6846    1.0095 C   0  0  0  0  0  0  0  0  0  0  0  0
   -2.0352   -5.2732    0.6806 C   0  0  0  0  0  0  0  0  0  0  0  0
   -2.3263   -3.9170    0.4929 C   0  0  0  0  0  0  0  0  0  0  0  0
   -1.3003   -2.9641    0.6419 C   0  0  0  0  0  0  0  0  0  0  0  0
    0.6148    0.2258    0.7886 C   0  0  1  0  0  0  0  0  0  0  0  0
    1.5817    0.4433   -0.3717 C   0  0  0  0  0  0  0  0  0  0  0  0
    1.1582    0.2917   -1.7168 C   0  0  0  0  0  0  0  0  0  0  0  0
    2.0433    0.4851   -2.7823 C   0  0  0  0  0  0  0  0  0  0  0  0
    3.3410    0.8321   -2.4809 C   0  0  0  0  0  0  0  0  0  0  0  0
    3.7651    0.9879   -1.1830 C   0  0  0  0  0  0  0  0  0  0  0  0
    2.9162    0.8047   -0.1116 C   0  0  0  0  0  0  0  0  0  0  0  0
    5.0786    1.3322   -1.1041 O   0  0  0  0  0  0  0  0  0  0  0  0
    5.4269    1.3917   -2.5027 C   0  0  0  0  0  0  0  0  0  0  0  0
    4.3331    1.0598   -3.3826 O   0  0  0  0  0  0  0  0  0  0  0  0
   -2.8422    1.8799    0.2582 C   0  0  0  0  0  0  0  0  0  0  0  0
   -3.9586    1.6157   -0.1845 O   0  0  0  0  0  0  0  0  0  0  0  0
   -3.8892    3.9977   -0.8322 H   0  0  0  0  0  0  0  0  0  0  0  0
   -2.6505    5.1478   -0.2769 H   0  0  0  0  0  0  0  0  0  0  0  0
   -3.8801    4.5267    0.8685 H   0  0  0  0  0  0  0  0  0  0  0  0
   -1.7758    3.3731    2.3664 H   0  0  0  0  0  0  0  0  0  0  0  0
   -0.9550    4.4668    1.2053 H   0  0  0  0  0  0  0  0  0  0  0  0
   -2.1317    0.7449    1.9323 H   0  0  0  0  0  0  0  0  0  0  0  0
   -2.2925   -0.4323   -0.9009 H   0  0  0  0  0  0  0  0  0  0  0  0
   -3.2515   -0.8759    0.5138 H   0  0  0  0  0  0  0  0  0  0  0  0
    1.7864   -2.3196    1.2486 H   0  0  0  0  0  0  0  0  0  0  0  0
    1.2946   -5.0835    1.4127 H   0  0  0  0  0  0  0  0  0  0  0  0
   -0.5396   -6.7435    1.1492 H   0  0  0  0  0  0  0  0  0  0  0  0
   -2.8250   -6.0115    0.5660 H   0  0  0  0  0  0  0  0  0  0  0  0
   -3.3341   -3.6071    0.2336 H   0  0  0  0  0  0  0  0  0  0  0  0
    1.1492    0.3557    1.7400 H   0  0  0  0  0  0  0  0  0  0  0  0
    0.1276    0.0167   -1.9336 H   0  0  0  0  0  0  0  0  0  0  0  0
    1.7196    0.3668   -3.8101 H   0  0  0  0  0  0  0  0  0  0  0  0
    3.2766    0.9569    0.9008 H   0  0  0  0  0  0  0  0  0  0  0  0
    5.7695    2.4066   -2.7361 H   0  0  0  0  0  0  0  0  0  0  0  0
    6.2500    0.6921   -2.6883 H   0  0  0  0  0  0  0  0  0  0  0  0
  1  2  1  0
  2  3  1  0
  3  4  1  0
  4  5  2  0
  4  6  1  0
  6  7  1  0
  7  8  1  0
  8  9  1  0
  9 10  2  0
 10 11  1  0
 11 12  1  0
 12 13  2  0
 13 14  1  0
 14 15  2  0
 15 16  1  0
 16 17  2  0
 10 18  1  0
 18 19  1  0
 19 20  2  0
 20 21  1  0
 21 22  2  0
 22 23  1  0
 23 24  2  0
 23 25  1  0
 25 26  1  0
 26 27  1  0
  7 28  1  0
 28 29  2  0
 28  2  1  0
 18  6  1  0
 24 19  1  0
 17  9  1  0
 27 22  1  0
 17 12  1  0
  1 30  1  0
  1 31  1  0
  1 32  1  0
  3 33  1  0
  3 34  1  0
  7 35  1  1
  8 36  1  0
  8 37  1  0
 11 38  1  0
 13 39  1  0
 14 40  1  0
 15 41  1  0
 16 42  1  0
 18 43  1  1
 20 44  1  0
 21 45  1  0
 24 46  1  0
 26 47  1  0
 26 48  1  0
M  END
$$$$
