
     RDKit          3D

 37 37  0  0  0  0  0  0  0  0999 V2000
   -4.6307    0.8754   -0.7890 C   0  0  0  0  0  0  0  0  0  0  0  0
   -4.2413   -0.1437    0.2718 C   0  0  0  0  0  0  0  0  0  0  0  0
   -2.8104   -0.4565    0.2327 N   0  0  0  0  0  0  0  0  0  0  0  0
   -2.3925   -1.5419   -0.6651 C   0  0  0  0  0  0  0  0  0  0  0  0
   -2.6174   -2.9154   -0.0511 C   0  0  0  0  0  0  0  0  0  0  0  0
   -1.9541    0.3691    0.9531 C   0  0  0  0  0  0  0  0  0  0  0  0
   -2.3395    1.3514    1.5879 O   0  0  0  0  0  0  0  0  0  0  0  0
   -0.4988    0.0813    0.9138 C   0  0  0  0  0  0  0  0  0  0  0  0
    0.0005   -1.0467    1.6128 C   0  0  0  0  0  0  0  0  0  0  0  0
    0.4302   -1.9811    2.1509 N   0  0  0  0  0  0  0  0  0  0  0  0
    0.2589    0.9846    0.2639 C   0  0  0  0  0  0  0  0  0  0  0  0
    1.7199    0.9422    0.1307 C   0  0  0  0  0  0  0  0  0  0  0  0
    2.4787    2.0118    0.6306 C   0  0  0  0  0  0  0  0  0  0  0  0
    3.8648    2.0092    0.4779 C   0  0  0  0  0  0  0  0  0  0  0  0
    4.6394    3.0368    0.9442 O   0  0  0  0  0  0  0  0  0  0  0  0
    4.5157    0.9607   -0.1694 C   0  0  0  0  0  0  0  0  0  0  0  0
    5.8692    1.0338   -0.3309 O   0  0  0  0  0  0  0  0  0  0  0  0
    3.7608   -0.1001   -0.6540 C   0  0  0  0  0  0  0  0  0  0  0  0
    4.3980   -1.2082   -1.3355 N   0  0  0  0  0  4  0  0  0  0  0  0
    3.9629   -1.4897   -2.4628 O   0  0  0  0  0  0  0  0  0  0  0  0
    5.2774   -1.8335   -0.7292 O   0  0  0  0  0  1  0  0  0  0  0  0
    2.3639   -0.1180   -0.5208 C   0  0  0  0  0  0  0  0  0  0  0  0
   -5.7009    1.0952   -0.7289 H   0  0  0  0  0  0  0  0  0  0  0  0
   -4.0809    1.8131   -0.6584 H   0  0  0  0  0  0  0  0  0  0  0  0
   -4.4159    0.5010   -1.7948 H   0  0  0  0  0  0  0  0  0  0  0  0
   -4.4959    0.2545    1.2607 H   0  0  0  0  0  0  0  0  0  0  0  0
   -4.8157   -1.0665    0.1419 H   0  0  0  0  0  0  0  0  0  0  0  0
   -1.3376   -1.4324   -0.9311 H   0  0  0  0  0  0  0  0  0  0  0  0
   -2.9590   -1.4528   -1.5986 H   0  0  0  0  0  0  0  0  0  0  0  0
   -2.0977   -3.0169    0.9058 H   0  0  0  0  0  0  0  0  0  0  0  0
   -2.2508   -3.6956   -0.7253 H   0  0  0  0  0  0  0  0  0  0  0  0
   -3.6808   -3.1002    0.1309 H   0  0  0  0  0  0  0  0  0  0  0  0
   -0.2150    1.8546   -0.1922 H   0  0  0  0  0  0  0  0  0  0  0  0
    1.9829    2.8391    1.1329 H   0  0  0  0  0  0  0  0  0  0  0  0
    4.0695    3.6811    1.4007 H   0  0  0  0  0  0  0  0  0  0  0  0
    6.1484    1.8542    0.1254 H   0  0  0  0  0  0  0  0  0  0  0  0
    1.7935   -0.9496   -0.9315 H   0  0  0  0  0  0  0  0  0  0  0  0
  1  2  1  0
  2  3  1  0
  3  4  1  0
  4  5  1  0
  3  6  1  0
  6  7  2  0
  6  8  1  0
  8  9  1  0
  9 10  3  0
  8 11  2  0
 11 12  1  0
 12 13  2  0
 13 14  1  0
 14 15  1  0
 14 16  2  0
 16 17  1  0
 16 18  1  0
 18 19  1  0
 19 20  2  0
 19 21  1  0
 18 22  2  0
 22 12  1  0
  1 23  1  0
  1 24  1  0
  1 25  1  0
  2 26  1  0
  2 27  1  0
  4 28  1  0
  4 29  1  0
  5 30  1  0
  5 31  1  0
  5 32  1  0
 11 33  1  0
 13 34  1  0
 15 35  1  0
 17 36  1  0
 22 37  1  0
M  CHG  2  19   1  21  -1
M  END
$$$$
