
     RDKit          3D

 40 42  0  0  0  0  0  0  0  0999 V2000
   -4.5081    2.0544    1.3340 C   0  0  0  0  0  0  0  0  0  0  0  0
   -3.9542    1.6521    0.0875 O   0  0  0  0  0  0  0  0  0  0  0  0
   -2.8947    0.7849    0.1226 C   0  0  0  0  0  0  0  0  0  0  0  0
   -2.2811    0.2889    1.2742 C   0  0  0  0  0  0  0  0  0  0  0  0
   -1.1987   -0.5934    1.1735 C   0  0  0  0  0  0  0  0  0  0  0  0
   -0.5348   -1.1304    2.2496 O   0  0  0  0  0  0  0  0  0  0  0  0
   -0.9596   -0.7557    3.5520 C   0  0  0  0  0  0  0  0  0  0  0  0
   -0.7281   -0.9794   -0.1002 C   0  0  0  0  0  0  0  0  0  0  0  0
    0.4153   -1.9006   -0.2127 C   0  0  0  0  0  0  0  0  0  0  0  0
    1.7034   -1.5393   -0.2999 C   0  0  0  0  0  0  0  0  0  0  0  0
    2.7772   -2.5897   -0.4083 C   0  0  0  0  0  0  0  0  0  0  0  0
    2.6431   -3.7983   -0.4298 O   0  0  0  0  0  0  0  0  0  0  0  0
    3.9652   -1.8797   -0.4779 N   0  0  0  0  0  0  0  0  0  0  0  0
    3.7385   -0.5070   -0.4240 C   0  0  0  0  0  0  0  0  0  0  0  0
    4.6971    0.4859   -0.4691 C   0  0  0  0  0  0  0  0  0  0  0  0
    4.2543    1.8079   -0.4007 C   0  0  0  0  0  0  0  0  0  0  0  0
    2.8829    2.1002   -0.2904 C   0  0  0  0  0  0  0  0  0  0  0  0
    1.9290    1.0756   -0.2462 C   0  0  0  0  0  0  0  0  0  0  0  0
    2.3694   -0.2337   -0.3142 C   0  0  0  0  0  0  0  0  0  0  0  0
   -1.3497   -0.4813   -1.2632 C   0  0  0  0  0  0  0  0  0  0  0  0
   -0.8334   -0.9088   -2.4610 O   0  0  0  0  0  0  0  0  0  0  0  0
   -1.4283   -0.4120   -3.6518 C   0  0  0  0  0  0  0  0  0  0  0  0
   -2.4271    0.3985   -1.1371 C   0  0  0  0  0  0  0  0  0  0  0  0
   -4.8968    1.1946    1.8896 H   0  0  0  0  0  0  0  0  0  0  0  0
   -5.3484    2.7237    1.1259 H   0  0  0  0  0  0  0  0  0  0  0  0
   -3.7769    2.6127    1.9278 H   0  0  0  0  0  0  0  0  0  0  0  0
   -2.6450    0.5882    2.2478 H   0  0  0  0  0  0  0  0  0  0  0  0
   -0.3169   -1.2687    4.2739 H   0  0  0  0  0  0  0  0  0  0  0  0
   -0.8434    0.3214    3.7105 H   0  0  0  0  0  0  0  0  0  0  0  0
   -1.9899   -1.0757    3.7382 H   0  0  0  0  0  0  0  0  0  0  0  0
    0.1435   -2.9539   -0.2198 H   0  0  0  0  0  0  0  0  0  0  0  0
    4.8631   -2.3294   -0.5576 H   0  0  0  0  0  0  0  0  0  0  0  0
    5.7525    0.2557   -0.5545 H   0  0  0  0  0  0  0  0  0  0  0  0
    4.9750    2.6219   -0.4334 H   0  0  0  0  0  0  0  0  0  0  0  0
    2.5578    3.1372   -0.2394 H   0  0  0  0  0  0  0  0  0  0  0  0
    0.8768    1.3195   -0.1621 H   0  0  0  0  0  0  0  0  0  0  0  0
   -2.4763   -0.7197   -3.7278 H   0  0  0  0  0  0  0  0  0  0  0  0
   -0.8919   -0.8480   -4.5001 H   0  0  0  0  0  0  0  0  0  0  0  0
   -1.3277    0.6763   -3.7193 H   0  0  0  0  0  0  0  0  0  0  0  0
   -2.9332    0.8050   -2.0068 H   0  0  0  0  0  0  0  0  0  0  0  0
  1  2  1  0
  2  3  1  0
  3  4  2  0
  4  5  1  0
  5  6  1  0
  6  7  1  0
  5  8  2  0
  8  9  1  0
  9 10  2  0
 10 11  1  0
 11 12  2  0
 11 13  1  0
 13 14  1  0
 14 15  2  0
 15 16  1  0
 16 17  2  0
 17 18  1  0
 18 19  2  0
  8 20  1  0
 20 21  1  0
 21 22  1  0
 20 23  2  0
 23  3  1  0
 19 10  1  0
 19 14  1  0
  1 24  1  0
  1 25  1  0
  1 26  1  0
  4 27  1  0
  7 28  1  0
  7 29  1  0
  7 30  1  0
  9 31  1  0
 13 32  1  0
 15 33  1  0
 16 34  1  0
 17 35  1  0
 18 36  1  0
 22 37  1  0
 22 38  1  0
 22 39  1  0
 23 40  1  0
M  END
$$$$
