
     RDKit          3D

 26 26  0  0  0  0  0  0  0  0999 V2000
   -1.4347    0.8586    1.3585 C   0  0  0  0  0  0  0  0  0  0  0  0
   -1.9003    0.1418    0.0902 C   0  0  0  0  0  0  0  0  0  0  0  0
   -3.0118    0.4766   -0.5088 N   0  0  0  0  0  0  0  0  0  0  0  0
   -3.7644    1.4672   -0.0202 C   0  0  0  0  0  0  0  0  0  0  0  0
   -4.4155    2.3242    0.4099 N   0  0  0  0  0  0  0  0  0  0  0  0
   -1.1015   -0.8634   -0.4675 N   0  0  0  0  0  0  0  0  0  0  0  0
   -1.5993   -1.6155   -1.6216 C   0  0  0  0  0  0  0  0  0  0  0  0
    0.1158   -1.3908    0.1478 C   0  0  0  0  0  0  0  0  0  0  0  0
    1.2801   -0.4407    0.0269 C   0  0  0  0  0  0  0  0  0  0  0  0
    2.1601   -0.2368    1.0967 C   0  0  0  0  0  0  0  0  0  0  0  0
    3.2500    0.6175    0.9450 C   0  0  0  0  0  0  0  0  0  0  0  0
    3.4286    1.2288   -0.2829 C   0  0  0  0  0  0  0  0  0  0  0  0
    4.7479    2.2890   -0.5549 Cl  0  0  0  0  0  0  0  0  0  0  0  0
    2.6191    1.0508   -1.3443 N   0  0  0  0  0  0  0  0  0  0  0  0
    1.5658    0.2218   -1.1651 C   0  0  0  0  0  0  0  0  0  0  0  0
   -2.2809    1.1279    1.9960 H   0  0  0  0  0  0  0  0  0  0  0  0
   -0.7803    0.2371    1.9694 H   0  0  0  0  0  0  0  0  0  0  0  0
   -0.8979    1.7678    1.0723 H   0  0  0  0  0  0  0  0  0  0  0  0
   -2.3790   -2.3158   -1.3055 H   0  0  0  0  0  0  0  0  0  0  0  0
   -2.0107   -0.9441   -2.3830 H   0  0  0  0  0  0  0  0  0  0  0  0
   -0.8024   -2.1866   -2.1101 H   0  0  0  0  0  0  0  0  0  0  0  0
   -0.0827   -1.6404    1.1967 H   0  0  0  0  0  0  0  0  0  0  0  0
    0.4176   -2.3387   -0.3166 H   0  0  0  0  0  0  0  0  0  0  0  0
    2.0032   -0.7355    2.0505 H   0  0  0  0  0  0  0  0  0  0  0  0
    3.9392    0.7948    1.7627 H   0  0  0  0  0  0  0  0  0  0  0  0
    0.9339    0.1046   -2.0424 H   0  0  0  0  0  0  0  0  0  0  0  0
  1  2  1  0
  2  3  2  3
  3  4  1  0
  4  5  3  0
  2  6  1  0
  6  7  1  0
  6  8  1  0
  8  9  1  0
  9 10  2  0
 10 11  1  0
 11 12  2  0
 12 13  1  0
 12 14  1  0
 14 15  2  0
 15  9  1  0
  1 16  1  0
  1 17  1  0
  1 18  1  0
  7 19  1  0
  7 20  1  0
  7 21  1  0
  8 22  1  0
  8 23  1  0
 10 24  1  0
 11 25  1  0
 15 26  1  0
M  END
$$$$
