
     RDKit          3D

 20 20  0  0  0  0  0  0  0  0999 V2000
   -4.2334    1.3882    2.8643 N   0  0  0  0  0  0  0  0  0  0  0  0
   -3.2341    1.3390    2.2766 C   0  0  0  0  0  0  0  0  0  0  0  0
   -2.0101    1.2483    1.5545 C   0  0  0  0  0  0  0  0  0  0  0  0
   -1.2865    2.4487    1.3026 C   0  0  0  0  0  0  0  0  0  0  0  0
   -0.6935    3.4273    1.1084 N   0  0  0  0  0  0  0  0  0  0  0  0
   -1.5911    0.0406    1.1257 C   0  0  0  0  0  0  0  0  0  0  0  0
   -0.3646   -0.2245    0.3629 C   0  0  0  0  0  0  0  0  0  0  0  0
    0.9049    0.0273    0.9080 C   0  0  0  0  0  0  0  0  0  0  0  0
    2.0594   -0.2379    0.1658 C   0  0  0  0  0  0  0  0  0  0  0  0
    1.9395   -0.7592   -1.1134 C   0  0  0  0  0  0  0  0  0  0  0  0
    3.0667   -0.9565   -1.8556 O   0  0  0  0  0  0  0  0  0  0  0  0
    0.6868   -1.0537   -1.6413 C   0  0  0  0  0  0  0  0  0  0  0  0
    0.5703   -1.6457   -2.8655 O   0  0  0  0  0  0  0  0  0  0  0  0
   -0.4678   -0.7793   -0.9189 C   0  0  0  0  0  0  0  0  0  0  0  0
   -2.1946   -0.8470    1.3177 H   0  0  0  0  0  0  0  0  0  0  0  0
    1.0133    0.4352    1.9110 H   0  0  0  0  0  0  0  0  0  0  0  0
    3.0405   -0.0227    0.5798 H   0  0  0  0  0  0  0  0  0  0  0  0
    2.8637   -0.6193   -2.7480 H   0  0  0  0  0  0  0  0  0  0  0  0
    1.3657   -2.1988   -2.9779 H   0  0  0  0  0  0  0  0  0  0  0  0
   -1.4353   -1.0101   -1.3569 H   0  0  0  0  0  0  0  0  0  0  0  0
  1  2  3  0
  2  3  1  0
  3  4  1  0
  4  5  3  0
  3  6  2  3
  6  7  1  0
  7  8  2  0
  8  9  1  0
  9 10  2  0
 10 11  1  0
 10 12  1  0
 12 13  1  0
 12 14  2  0
 14  7  1  0
  6 15  1  0
  8 16  1  0
  9 17  1  0
 11 18  1  0
 13 19  1  0
 14 20  1  0
M  END
$$$$
