
     RDKit          3D

 34 36  0  0  0  0  0  0  0  0999 V2000
   -3.8470   -1.3824   -1.0844 O   0  0  0  0  0  0  0  0  0  0  0  0
   -3.1808   -0.6898    0.0034 S   0  0  0  0  0  6  0  0  0  0  0  0
   -3.4720   -1.0245    1.3852 O   0  0  0  0  0  0  0  0  0  0  0  0
   -3.3908    1.0699   -0.2207 C   0  0  0  0  0  0  0  0  0  0  0  0
   -4.8491    1.3173   -0.0050 C   0  0  0  0  0  0  0  0  0  0  0  0
   -5.8351    1.2192   -1.1349 C   0  0  0  0  0  0  0  0  0  0  0  0
   -5.4831    2.8184   -0.5930 S   0  0  0  0  0  0  0  0  0  0  0  0
   -1.4293   -0.9042   -0.2313 C   0  0  0  0  0  0  0  0  0  0  0  0
   -0.5718   -0.8219    0.8699 C   0  0  0  0  0  0  0  0  0  0  0  0
    0.8006   -0.9986    0.6852 C   0  0  0  0  0  0  0  0  0  0  0  0
    1.3053   -1.2504   -0.5950 C   0  0  0  0  0  0  0  0  0  0  0  0
    2.6416   -1.4733   -0.8413 O   0  0  0  0  0  0  0  0  0  0  0  0
    3.5428   -0.6280   -0.2360 C   0  0  0  0  0  0  0  0  0  0  0  0
    4.6123   -1.2133    0.4415 C   0  0  0  0  0  0  0  0  0  0  0  0
    5.5751   -0.4057    1.0473 C   0  0  0  0  0  0  0  0  0  0  0  0
    5.4750    0.9835    0.9602 C   0  0  0  0  0  0  0  0  0  0  0  0
    4.4173    1.5671    0.2612 C   0  0  0  0  0  0  0  0  0  0  0  0
    3.4527    0.7619   -0.3455 C   0  0  0  0  0  0  0  0  0  0  0  0
    0.4384   -1.3685   -1.6840 C   0  0  0  0  0  0  0  0  0  0  0  0
   -0.9346   -1.1931   -1.5066 C   0  0  0  0  0  0  0  0  0  0  0  0
   -2.7854    1.5846    0.5310 H   0  0  0  0  0  0  0  0  0  0  0  0
   -3.0483    1.3259   -1.2282 H   0  0  0  0  0  0  0  0  0  0  0  0
   -5.1817    1.0503    0.9923 H   0  0  0  0  0  0  0  0  0  0  0  0
   -6.8302    0.8516   -0.9128 H   0  0  0  0  0  0  0  0  0  0  0  0
   -5.4812    0.9647   -2.1268 H   0  0  0  0  0  0  0  0  0  0  0  0
   -0.9581   -0.6375    1.8702 H   0  0  0  0  0  0  0  0  0  0  0  0
    1.4665   -0.9541    1.5435 H   0  0  0  0  0  0  0  0  0  0  0  0
    4.6928   -2.2951    0.5008 H   0  0  0  0  0  0  0  0  0  0  0  0
    6.4056   -0.8589    1.5824 H   0  0  0  0  0  0  0  0  0  0  0  0
    6.2277    1.6120    1.4299 H   0  0  0  0  0  0  0  0  0  0  0  0
    4.3496    2.6491    0.1827 H   0  0  0  0  0  0  0  0  0  0  0  0
    2.6434    1.2211   -0.9054 H   0  0  0  0  0  0  0  0  0  0  0  0
    0.8351   -1.6019   -2.6692 H   0  0  0  0  0  0  0  0  0  0  0  0
   -1.6030   -1.2956   -2.3589 H   0  0  0  0  0  0  0  0  0  0  0  0
  1  2  2  0
  2  3  2  0
  2  4  1  0
  4  5  1  0
  5  6  1  0
  6  7  1  0
  2  8  1  0
  8  9  2  0
  9 10  1  0
 10 11  2  0
 11 12  1  0
 12 13  1  0
 13 14  2  0
 14 15  1  0
 15 16  2  0
 16 17  1  0
 17 18  2  0
 11 19  1  0
 19 20  2  0
  7  5  1  0
 20  8  1  0
 18 13  1  0
  4 21  1  0
  4 22  1  0
  5 23  1  0
  6 24  1  0
  6 25  1  0
  9 26  1  0
 10 27  1  0
 14 28  1  0
 15 29  1  0
 16 30  1  0
 17 31  1  0
 18 32  1  0
 19 33  1  0
 20 34  1  0
M  END
$$$$
