
     RDKit          3D

 26 27  0  0  0  0  0  0  0  0999 V2000
    5.6098    0.0335    1.4630 O   0  0  0  0  0  0  0  0  0  0  0  0
    4.9671   -0.1321    0.4433 C   0  0  0  0  0  0  0  0  0  0  0  0
    5.5690   -0.3865   -0.7311 O   0  0  0  0  0  0  0  0  0  0  0  0
    3.4977   -0.0844    0.3351 C   0  0  0  0  0  0  0  0  0  0  0  0
    2.7290    0.1657    1.4690 C   0  0  0  0  0  0  0  0  0  0  0  0
    1.3377    0.2086    1.3583 C   0  0  0  0  0  0  0  0  0  0  0  0
    0.7332    0.0009    0.1151 C   0  0  0  0  0  0  0  0  0  0  0  0
   -0.7394    0.0335   -0.0633 C   0  0  0  0  0  0  0  0  0  0  0  0
   -1.3442   -0.1783   -1.3060 C   0  0  0  0  0  0  0  0  0  0  0  0
   -2.7359   -0.1370   -1.4183 C   0  0  0  0  0  0  0  0  0  0  0  0
   -3.5032    0.1160   -0.2843 C   0  0  0  0  0  0  0  0  0  0  0  0
   -4.9753    0.1812   -0.2965 C   0  0  0  0  0  0  0  0  0  0  0  0
   -5.6844    0.4046    0.6663 O   0  0  0  0  0  0  0  0  0  0  0  0
   -5.4940   -0.0363   -1.5176 O   0  0  0  0  0  0  0  0  0  0  0  0
   -2.8383    0.3167    0.9149 C   0  0  0  0  0  0  0  0  0  0  0  0
   -1.4872    0.2808    1.0494 N   0  0  0  0  0  0  0  0  0  0  0  0
    1.4811   -0.2442   -0.9983 N   0  0  0  0  0  0  0  0  0  0  0  0
    2.8329   -0.2807   -0.8646 C   0  0  0  0  0  0  0  0  0  0  0  0
    6.5259   -0.3898   -0.5128 H   0  0  0  0  0  0  0  0  0  0  0  0
    3.2008    0.3267    2.4357 H   0  0  0  0  0  0  0  0  0  0  0  0
    0.7327    0.4028    2.2403 H   0  0  0  0  0  0  0  0  0  0  0  0
   -0.7387   -0.3736   -2.1871 H   0  0  0  0  0  0  0  0  0  0  0  0
   -3.2013   -0.3017   -2.3863 H   0  0  0  0  0  0  0  0  0  0  0  0
   -6.4631    0.0344   -1.3850 H   0  0  0  0  0  0  0  0  0  0  0  0
   -3.3817    0.5186    1.8354 H   0  0  0  0  0  0  0  0  0  0  0  0
    3.3698   -0.4793   -1.7885 H   0  0  0  0  0  0  0  0  0  0  0  0
  1  2  2  0
  2  3  1  0
  2  4  1  0
  4  5  2  0
  5  6  1  0
  6  7  2  0
  7  8  1  0
  8  9  2  0
  9 10  1  0
 10 11  2  0
 11 12  1  0
 12 13  2  0
 12 14  1  0
 11 15  1  0
 15 16  2  0
  7 17  1  0
 17 18  2  0
 18  4  1  0
 16  8  1  0
  3 19  1  0
  5 20  1  0
  6 21  1  0
  9 22  1  0
 10 23  1  0
 14 24  1  0
 15 25  1  0
 18 26  1  0
M  END
$$$$
