
     RDKit          3D

 46 47  0  0  0  0  0  0  0  0999 V2000
    1.1290    0.0063   -0.0449 C   0  0  0  0  0  0  0  0  0  0  0  0
   -0.5858   -0.4389    0.1024 S   0  0  0  0  0  6  0  0  0  0  0  0
   -0.8631   -1.5873   -0.7268 O   0  0  0  0  0  0  0  0  0  0  0  0
   -0.9878   -0.3609    1.4881 O   0  0  0  0  0  0  0  0  0  0  0  0
   -1.2177    0.8634   -0.6118 O   0  0  0  0  0  0  0  0  0  0  0  0
    5.2939    1.3034    1.3204 O   0  0  0  0  0  0  0  0  0  0  0  0
    4.1345    0.7786    0.8314 C   0  0  0  0  0  0  0  0  0  0  0  0
    3.0018    0.8543    1.6308 C   0  0  0  0  0  0  0  0  0  0  0  0
    1.7922    0.3303    1.1713 C   0  0  0  0  0  0  0  0  0  0  0  0
    1.7089   -0.2709   -0.0951 C   0  0  0  0  0  0  0  0  0  0  0  0
    0.4008   -0.8679   -0.6116 C   0  0  0  0  0  0  0  0  0  0  0  0
    0.2041   -2.2917   -0.0159 C   0  0  0  0  0  0  0  0  0  0  0  0
   -1.1157   -2.8800   -0.2754 N   0  0  0  0  0  0  0  0  0  0  0  0
   -2.1014   -2.4871    0.7371 C   0  0  0  0  0  0  0  0  0  0  0  0
   -1.9436   -1.0886    1.3505 C   0  0  0  0  0  0  0  0  0  0  0  0
   -1.8873    0.0205    0.3228 C   0  0  0  0  0  0  0  0  0  0  0  0
   -0.7739    0.1232   -0.5564 C   0  0  0  0  0  0  0  0  0  0  0  0
   -0.7243    1.1944   -1.4789 C   0  0  0  0  0  0  0  0  0  0  0  0
   -1.7480    2.1237   -1.5446 C   0  0  0  0  0  0  0  0  0  0  0  0
   -1.6693    3.1391   -2.4532 O   0  0  0  0  0  0  0  0  0  0  0  0
   -2.8442    2.0213   -0.7053 C   0  0  0  0  0  0  0  0  0  0  0  0
   -3.8227    2.9763   -0.8373 O   0  0  0  0  0  0  0  0  0  0  0  0
   -2.9234    0.9799    0.2248 C   0  0  0  0  0  0  0  0  0  0  0  0
   -4.3412    0.9196    1.2237 Cl  0  0  0  0  0  0  0  0  0  0  0  0
    2.8700   -0.3402   -0.8846 C   0  0  0  0  0  0  0  0  0  0  0  0
    4.0802    0.1849   -0.4243 C   0  0  0  0  0  0  0  0  0  0  0  0
    1.3811    0.0909   -1.1035 H   0  0  0  0  0  0  0  0  0  0  0  0
    1.7239   -0.7827    0.4198 H   0  0  0  0  0  0  0  0  0  0  0  0
    1.2937    0.9532    0.4724 H   0  0  0  0  0  0  0  0  0  0  0  0
   -1.8733    1.2560    0.0043 H   0  0  0  0  0  0  0  0  0  0  0  0
    5.9882    1.1972    0.6500 H   0  0  0  0  0  0  0  0  0  0  0  0
    3.0585    1.3224    2.6094 H   0  0  0  0  0  0  0  0  0  0  0  0
    0.9170    0.4035    1.8115 H   0  0  0  0  0  0  0  0  0  0  0  0
    0.5305   -1.0490   -1.6914 H   0  0  0  0  0  0  0  0  0  0  0  0
    0.4465   -2.3343    1.0538 H   0  0  0  0  0  0  0  0  0  0  0  0
    0.9478   -2.9510   -0.4840 H   0  0  0  0  0  0  0  0  0  0  0  0
   -1.4417   -2.5739   -1.1934 H   0  0  0  0  0  0  0  0  0  0  0  0
   -3.0997   -2.5814    0.2923 H   0  0  0  0  0  0  0  0  0  0  0  0
   -2.0617   -3.2225    1.5499 H   0  0  0  0  0  0  0  0  0  0  0  0
   -2.7599   -0.9485    2.0651 H   0  0  0  0  0  0  0  0  0  0  0  0
   -1.0456   -1.0297    1.9769 H   0  0  0  0  0  0  0  0  0  0  0  0
    0.1216    1.3034   -2.1555 H   0  0  0  0  0  0  0  0  0  0  0  0
   -2.4837    3.6632   -2.3143 H   0  0  0  0  0  0  0  0  0  0  0  0
   -4.5104    2.7622   -0.1773 H   0  0  0  0  0  0  0  0  0  0  0  0
    2.8402   -0.8050   -1.8681 H   0  0  0  0  0  0  0  0  0  0  0  0
    4.9610    0.1203   -1.0550 H   0  0  0  0  0  0  0  0  0  0  0  0
  1  2  1  0
  2  3  2  0
  2  4  2  0
  2  5  1  0
  6  7  1  0
  7  8  2  0
  8  9  1  0
  9 10  2  0
 10 11  1  0
 11 12  1  0
 12 13  1  0
 13 14  1  0
 14 15  1  0
 15 16  1  0
 16 17  2  0
 17 18  1  0
 18 19  2  0
 19 20  1  0
 19 21  1  0
 21 22  1  0
 21 23  2  0
 23 24  1  0
 10 25  1  0
 25 26  2  0
 26  7  1  0
 17 11  1  0
 23 16  1  0
  1 27  1  0
  1 28  1  0
  1 29  1  0
  5 30  1  0
  6 31  1  0
  8 32  1  0
  9 33  1  0
 11 34  1  0
 12 35  1  0
 12 36  1  0
 13 37  1  0
 14 38  1  0
 14 39  1  0
 15 40  1  0
 15 41  1  0
 18 42  1  0
 20 43  1  0
 22 44  1  0
 25 45  1  0
 26 46  1  0
M  END
$$$$
