
     RDKit          3D

 54 57  0  0  0  0  0  0  0  0999 V2000
   10.1737   -0.4935    0.4838 C   0  0  0  0  0  0  0  0  0  0  0  0
    9.3438   -0.4501   -0.6697 O   0  0  0  0  0  0  0  0  0  0  0  0
    7.9946   -0.4236   -0.4565 C   0  0  0  0  0  0  0  0  0  0  0  0
    7.2136   -0.4761   -1.6072 C   0  0  0  0  0  0  0  0  0  0  0  0
    5.8134   -0.4452   -1.5300 C   0  0  0  0  0  0  0  0  0  0  0  0
    5.1464   -0.3599   -0.2974 C   0  0  0  0  0  0  0  0  0  0  0  0
    3.7191   -0.3165   -0.2189 N   0  0  0  0  0  0  0  0  0  0  0  0
    2.8554   -0.5286   -1.2709 C   0  0  0  0  0  0  0  0  0  0  0  0
    3.0740   -0.8705   -2.4236 O   0  0  0  0  0  0  0  0  0  0  0  0
    1.5602   -0.3288   -0.8420 N   0  0  0  0  0  0  0  0  0  0  0  0
    1.4887   -0.1462    0.5755 C   0  0  0  0  0  0  0  0  0  0  0  0
    0.7649    1.1362    0.9815 C   0  0  0  0  0  0  0  0  0  0  0  0
   -0.6969    1.2020    0.5401 C   0  0  0  0  0  0  0  0  0  0  0  0
   -1.5871    0.2021    1.2539 C   0  0  0  0  0  0  0  0  0  0  0  0
   -1.1646   -0.6327    2.0440 O   0  0  0  0  0  0  0  0  0  0  0  0
   -2.9150    0.3362    0.9161 N   0  0  0  0  0  0  0  0  0  0  0  0
   -3.9119   -0.6359    1.3444 C   0  0  0  0  0  0  0  0  0  0  0  0
   -4.1526   -0.6140    2.8534 C   0  0  0  0  0  0  0  0  0  0  0  0
   -5.1536   -0.3446    0.5453 C   0  0  0  0  0  0  0  0  0  0  0  0
   -5.3471   -0.6823   -0.7171 N   0  0  0  0  0  0  0  0  0  0  0  0
   -6.5814   -0.1860   -1.0550 C   0  0  0  0  0  0  0  0  0  0  0  0
   -7.2853   -0.2760   -2.2637 C   0  0  0  0  0  0  0  0  0  0  0  0
   -8.5407    0.3377   -2.3554 C   0  0  0  0  0  0  0  0  0  0  0  0
   -9.0813    1.0300   -1.2677 C   0  0  0  0  0  0  0  0  0  0  0  0
   -8.3927    1.1274   -0.0526 C   0  0  0  0  0  0  0  0  0  0  0  0
   -7.1467    0.5014    0.0124 C   0  0  0  0  0  0  0  0  0  0  0  0
   -6.2176    0.3915    1.0148 N   0  0  0  0  0  0  0  0  0  0  0  0
    2.9783   -0.0702    0.9225 C   0  0  0  0  0  0  0  0  0  0  0  0
    3.3677    0.1767    2.0583 O   0  0  0  0  0  0  0  0  0  0  0  0
    5.9548   -0.3041    0.8499 C   0  0  0  0  0  0  0  0  0  0  0  0
    7.3578   -0.3359    0.7754 C   0  0  0  0  0  0  0  0  0  0  0  0
    9.9926   -1.4056    1.0616 H   0  0  0  0  0  0  0  0  0  0  0  0
   10.0426    0.4001    1.1037 H   0  0  0  0  0  0  0  0  0  0  0  0
   11.2155   -0.5131    0.1465 H   0  0  0  0  0  0  0  0  0  0  0  0
    7.6923   -0.5366   -2.5815 H   0  0  0  0  0  0  0  0  0  0  0  0
    5.2780   -0.4772   -2.4748 H   0  0  0  0  0  0  0  0  0  0  0  0
    0.8065   -0.6647   -1.4300 H   0  0  0  0  0  0  0  0  0  0  0  0
    1.0712   -1.0520    1.0223 H   0  0  0  0  0  0  0  0  0  0  0  0
    0.8242    1.2553    2.0713 H   0  0  0  0  0  0  0  0  0  0  0  0
    1.2886    2.0007    0.5512 H   0  0  0  0  0  0  0  0  0  0  0  0
   -1.0825    2.2043    0.7627 H   0  0  0  0  0  0  0  0  0  0  0  0
   -0.7836    1.0454   -0.5407 H   0  0  0  0  0  0  0  0  0  0  0  0
   -3.1112    0.7944    0.0316 H   0  0  0  0  0  0  0  0  0  0  0  0
   -3.5450   -1.6311    1.0615 H   0  0  0  0  0  0  0  0  0  0  0  0
   -3.2667   -0.9420    3.4043 H   0  0  0  0  0  0  0  0  0  0  0  0
   -4.9752   -1.2827    3.1304 H   0  0  0  0  0  0  0  0  0  0  0  0
   -4.3962    0.3922    3.2115 H   0  0  0  0  0  0  0  0  0  0  0  0
   -6.8574   -0.8088   -3.1059 H   0  0  0  0  0  0  0  0  0  0  0  0
   -9.0972    0.2779   -3.2874 H   0  0  0  0  0  0  0  0  0  0  0  0
  -10.0564    1.5039   -1.3691 H   0  0  0  0  0  0  0  0  0  0  0  0
   -8.8147    1.6656    0.7921 H   0  0  0  0  0  0  0  0  0  0  0  0
   -6.3024    0.7919    1.9382 H   0  0  0  0  0  0  0  0  0  0  0  0
    5.5307   -0.2488    1.8482 H   0  0  0  0  0  0  0  0  0  0  0  0
    7.9139   -0.2898    1.7060 H   0  0  0  0  0  0  0  0  0  0  0  0
  1  2  1  0
  2  3  1  0
  3  4  2  0
  4  5  1  0
  5  6  2  0
  6  7  1  0
  7  8  1  0
  8  9  2  0
  8 10  1  0
 10 11  1  0
 11 12  1  0
 12 13  1  0
 13 14  1  0
 14 15  2  0
 14 16  1  0
 16 17  1  0
 17 18  1  0
 17 19  1  0
 19 20  2  0
 20 21  1  0
 21 22  2  0
 22 23  1  0
 23 24  2  0
 24 25  1  0
 25 26  2  0
 26 27  1  0
 11 28  1  0
 28 29  2  0
  6 30  1  0
 30 31  2  0
 31  3  1  0
 28  7  1  0
 27 19  1  0
 26 21  1  0
  1 32  1  0
  1 33  1  0
  1 34  1  0
  4 35  1  0
  5 36  1  0
 10 37  1  0
 11 38  1  0
 12 39  1  0
 12 40  1  0
 13 41  1  0
 13 42  1  0
 16 43  1  0
 17 44  1  0
 18 45  1  0
 18 46  1  0
 18 47  1  0
 22 48  1  0
 23 49  1  0
 24 50  1  0
 25 51  1  0
 27 52  1  0
 30 53  1  0
 31 54  1  0
M  END
$$$$
