
     RDKit          3D

 45 48  0  0  0  0  0  0  0  0999 V2000
   -1.4364   -0.6158   -2.9328 O   0  0  0  0  0  0  0  0  0  0  0  0
   -1.9088   -0.1551   -1.7343 C   0  0  0  0  0  0  0  0  0  0  0  0
   -3.2691    0.1492   -1.6161 C   0  0  0  0  0  0  0  0  0  0  0  0
   -3.7105    0.6278   -0.4031 C   0  0  0  0  0  0  0  0  0  0  0  0
   -2.8582    0.8075    0.6572 C   0  0  0  0  0  0  0  0  0  0  0  0
   -1.5143    0.5148    0.5644 C   0  0  0  0  0  0  0  0  0  0  0  0
   -1.0074    0.0121   -0.6553 C   0  0  0  0  0  0  0  0  0  0  0  0
    0.4849   -0.3327   -0.7941 C   0  0  0  0  0  0  0  0  0  0  0  0
    1.4377    0.7758   -0.2824 C   0  0  0  0  0  0  0  0  0  0  0  0
    1.1582    2.1292   -0.5541 C   0  0  0  0  0  0  0  0  0  0  0  0
    2.0224    3.1479   -0.1403 C   0  0  0  0  0  0  0  0  0  0  0  0
    3.2058    2.8439    0.5433 C   0  0  0  0  0  0  0  0  0  0  0  0
    4.1514    3.9379    0.9698 C   0  0  0  0  0  0  0  0  0  0  0  0
    5.0797    4.2234    0.0152 F   0  0  0  0  0  0  0  0  0  0  0  0
    4.8557    3.6290    2.0950 F   0  0  0  0  0  0  0  0  0  0  0  0
    3.5212    5.1157    1.2410 F   0  0  0  0  0  0  0  0  0  0  0  0
    3.5181    1.4991    0.7775 C   0  0  0  0  0  0  0  0  0  0  0  0
    2.6512    0.4823    0.3629 C   0  0  0  0  0  0  0  0  0  0  0  0
    0.8395   -1.6839   -0.2960 N   0  0  0  0  0  0  0  0  0  0  0  0
    0.4321   -2.0260    1.0745 C   0  0  0  0  0  0  0  0  0  0  0  0
    0.7348   -3.5047    1.3682 C   0  0  0  0  0  0  0  0  0  0  0  0
   -0.0127   -4.4071    0.5389 O   0  0  0  0  0  0  0  0  0  0  0  0
   -0.4372   -3.8154   -0.6968 C   0  0  0  0  0  0  0  0  0  0  0  0
    0.5584   -2.7789   -1.2404 C   0  0  0  0  0  0  0  0  0  0  0  0
   -3.4922    1.2909    1.7580 O   0  0  0  0  0  0  0  0  0  0  0  0
   -4.8458    1.3921    1.2695 C   0  0  0  0  0  0  0  0  0  0  0  0
   -4.9909    0.9760   -0.1051 O   0  0  0  0  0  0  0  0  0  0  0  0
   -2.1642   -0.6302   -3.5775 H   0  0  0  0  0  0  0  0  0  0  0  0
   -3.9671    0.0229   -2.4345 H   0  0  0  0  0  0  0  0  0  0  0  0
   -0.8674    0.6723    1.4223 H   0  0  0  0  0  0  0  0  0  0  0  0
    0.7278   -0.3209   -1.8667 H   0  0  0  0  0  0  0  0  0  0  0  0
    0.2577    2.4056   -1.1008 H   0  0  0  0  0  0  0  0  0  0  0  0
    1.7670    4.1833   -0.3614 H   0  0  0  0  0  0  0  0  0  0  0  0
    4.4468    1.2311    1.2797 H   0  0  0  0  0  0  0  0  0  0  0  0
    2.9456   -0.5501    0.5410 H   0  0  0  0  0  0  0  0  0  0  0  0
   -0.6435   -1.8859    1.2207 H   0  0  0  0  0  0  0  0  0  0  0  0
    0.9598   -1.4000    1.8007 H   0  0  0  0  0  0  0  0  0  0  0  0
    1.8010   -3.7193    1.2294 H   0  0  0  0  0  0  0  0  0  0  0  0
    0.4892   -3.7394    2.4090 H   0  0  0  0  0  0  0  0  0  0  0  0
   -1.4246   -3.3647   -0.5418 H   0  0  0  0  0  0  0  0  0  0  0  0
   -0.5636   -4.6278   -1.4198 H   0  0  0  0  0  0  0  0  0  0  0  0
    1.5141   -3.2882   -1.4184 H   0  0  0  0  0  0  0  0  0  0  0  0
    0.2197   -2.4250   -2.2183 H   0  0  0  0  0  0  0  0  0  0  0  0
   -5.4926    0.7665    1.8954 H   0  0  0  0  0  0  0  0  0  0  0  0
   -5.1732    2.4346    1.3564 H   0  0  0  0  0  0  0  0  0  0  0  0
  1  2  1  0
  2  3  2  0
  3  4  1  0
  4  5  2  0
  5  6  1  0
  6  7  2  0
  7  8  1  0
  8  9  1  0
  9 10  2  0
 10 11  1  0
 11 12  2  0
 12 13  1  0
 13 14  1  0
 13 15  1  0
 13 16  1  0
 12 17  1  0
 17 18  2  0
  8 19  1  0
 19 20  1  0
 20 21  1  0
 21 22  1  0
 22 23  1  0
 23 24  1  0
  5 25  1  0
 25 26  1  0
 26 27  1  0
  7  2  1  0
 18  9  1  0
 24 19  1  0
 27  4  1  0
  1 28  1  0
  3 29  1  0
  6 30  1  0
  8 31  1  0
 10 32  1  0
 11 33  1  0
 17 34  1  0
 18 35  1  0
 20 36  1  0
 20 37  1  0
 21 38  1  0
 21 39  1  0
 23 40  1  0
 23 41  1  0
 24 42  1  0
 24 43  1  0
 26 44  1  0
 26 45  1  0
M  END
$$$$
