
     RDKit          3D

 49 51  0  0  0  0  0  0  0  0999 V2000
   -8.3015   -0.9023    1.3963 C   0  0  0  0  0  0  0  0  0  0  0  0
   -7.8084    0.1176    0.5362 O   0  0  0  0  0  0  0  0  0  0  0  0
   -6.5207   -0.0178    0.0947 C   0  0  0  0  0  0  0  0  0  0  0  0
   -5.6576   -1.0728    0.3897 C   0  0  0  0  0  0  0  0  0  0  0  0
   -4.3582   -1.0856   -0.1304 C   0  0  0  0  0  0  0  0  0  0  0  0
   -3.9071   -0.0490   -0.9585 C   0  0  0  0  0  0  0  0  0  0  0  0
   -2.5000   -0.0647   -1.5036 C   0  0  0  0  0  0  0  0  0  0  0  0
   -1.6180    0.3703   -0.4756 O   0  0  0  0  0  0  0  0  0  0  0  0
   -0.2819    0.4684   -0.7746 C   0  0  0  0  0  0  0  0  0  0  0  0
    0.2862    0.1012   -1.9989 C   0  0  0  0  0  0  0  0  0  0  0  0
    1.6611    0.2361   -2.2119 C   0  0  0  0  0  0  0  0  0  0  0  0
    2.4898    0.7421   -1.2054 C   0  0  0  0  0  0  0  0  0  0  0  0
    3.9779    0.8923   -1.4307 C   0  0  0  0  0  0  0  0  0  0  0  0
    4.8111   -0.0594   -0.6234 C   0  0  0  0  0  0  0  0  0  0  0  0
    4.8896   -1.3952   -0.9629 C   0  0  0  0  0  0  0  0  0  0  0  0
    5.5944   -2.3086   -0.2723 N   0  0  0  0  0  0  0  0  0  0  0  0
    6.2356   -1.8606    0.8060 C   0  0  0  0  0  0  0  0  0  0  0  0
    6.9434   -2.7822    1.5509 N   0  0  0  0  0  0  0  0  0  0  0  0
    6.2100   -0.5992    1.2421 N   0  0  0  0  0  0  0  0  0  0  0  0
    5.5121    0.2859    0.5166 C   0  0  0  0  0  0  0  0  0  0  0  0
    5.5190    1.5903    1.0160 N   0  0  0  0  0  0  0  0  0  0  0  0
    1.9190    1.1097    0.0240 C   0  0  0  0  0  0  0  0  0  0  0  0
    0.5440    0.9721    0.2494 C   0  0  0  0  0  0  0  0  0  0  0  0
   -0.0856    1.3048    1.4235 O   0  0  0  0  0  0  0  0  0  0  0  0
    0.7256    1.7400    2.5055 C   0  0  0  0  0  0  0  0  0  0  0  0
   -4.7736    1.0132   -1.2407 C   0  0  0  0  0  0  0  0  0  0  0  0
   -6.0705    1.0228   -0.7206 C   0  0  0  0  0  0  0  0  0  0  0  0
   -9.3297   -0.6432    1.6670 H   0  0  0  0  0  0  0  0  0  0  0  0
   -8.3262   -1.8710    0.8859 H   0  0  0  0  0  0  0  0  0  0  0  0
   -7.7179   -0.9564    2.3216 H   0  0  0  0  0  0  0  0  0  0  0  0
   -5.9580   -1.8978    1.0259 H   0  0  0  0  0  0  0  0  0  0  0  0
   -3.6914   -1.9071    0.1240 H   0  0  0  0  0  0  0  0  0  0  0  0
   -2.4368    0.6003   -2.3744 H   0  0  0  0  0  0  0  0  0  0  0  0
   -2.2541   -1.0867   -1.8192 H   0  0  0  0  0  0  0  0  0  0  0  0
   -0.3120   -0.2962   -2.8116 H   0  0  0  0  0  0  0  0  0  0  0  0
    2.0752   -0.0562   -3.1745 H   0  0  0  0  0  0  0  0  0  0  0  0
    4.2130    0.7423   -2.4935 H   0  0  0  0  0  0  0  0  0  0  0  0
    4.2553    1.9355   -1.2364 H   0  0  0  0  0  0  0  0  0  0  0  0
    4.3652   -1.7899   -1.8291 H   0  0  0  0  0  0  0  0  0  0  0  0
    6.9855   -2.4763    2.5128 H   0  0  0  0  0  0  0  0  0  0  0  0
    6.5700   -3.7053    1.3763 H   0  0  0  0  0  0  0  0  0  0  0  0
    6.1209    1.5797    1.8382 H   0  0  0  0  0  0  0  0  0  0  0  0
    5.8658    2.2487    0.3276 H   0  0  0  0  0  0  0  0  0  0  0  0
    2.5743    1.5022    0.7965 H   0  0  0  0  0  0  0  0  0  0  0  0
    1.2241    2.6853    2.2686 H   0  0  0  0  0  0  0  0  0  0  0  0
    0.0704    1.9173    3.3637 H   0  0  0  0  0  0  0  0  0  0  0  0
    1.4493    0.9704    2.7943 H   0  0  0  0  0  0  0  0  0  0  0  0
   -4.4448    1.8449   -1.8590 H   0  0  0  0  0  0  0  0  0  0  0  0
   -6.7340    1.8541   -0.9462 H   0  0  0  0  0  0  0  0  0  0  0  0
  1  2  1  0
  2  3  1  0
  3  4  2  0
  4  5  1  0
  5  6  2  0
  6  7  1  0
  7  8  1  0
  8  9  1  0
  9 10  2  0
 10 11  1  0
 11 12  2  0
 12 13  1  0
 13 14  1  0
 14 15  2  0
 15 16  1  0
 16 17  2  0
 17 18  1  0
 17 19  1  0
 19 20  2  0
 20 21  1  0
 12 22  1  0
 22 23  2  0
 23 24  1  0
 24 25  1  0
  6 26  1  0
 26 27  2  0
 27  3  1  0
 23  9  1  0
 20 14  1  0
  1 28  1  0
  1 29  1  0
  1 30  1  0
  4 31  1  0
  5 32  1  0
  7 33  1  0
  7 34  1  0
 10 35  1  0
 11 36  1  0
 13 37  1  0
 13 38  1  0
 15 39  1  0
 18 40  1  0
 18 41  1  0
 21 42  1  0
 21 43  1  0
 22 44  1  0
 25 45  1  0
 25 46  1  0
 25 47  1  0
 26 48  1  0
 27 49  1  0
M  END
$$$$
