
     RDKit          3D

 47 50  0  0  0  0  0  0  0  0999 V2000
    1.1001   -1.5777    1.1592 C   0  0  0  0  0  0  0  0  0  0  0  0
    1.8007   -1.0465   -0.0399 C   0  0  0  0  0  0  0  0  0  0  0  0
    3.0494   -0.4701    0.1334 N   0  0  0  0  0  0  0  0  0  0  0  0
    3.5681   -0.1007   -1.0173 C   0  0  0  0  0  0  0  0  0  0  0  0
    4.7645    0.4794   -1.2269 N   0  0  0  0  0  0  0  0  0  0  0  0
    5.7660    0.8370   -0.3348 C   0  0  0  0  0  0  0  0  0  0  0  0
    5.7039    0.6474    1.0452 C   0  0  0  0  0  0  0  0  0  0  0  0
    6.7722    1.0467    1.8513 C   0  0  0  0  0  0  0  0  0  0  0  0
    7.8762    1.6263    1.2567 C   0  0  0  0  0  0  0  0  0  0  0  0
    8.9190    2.0219    1.9959 F   0  0  0  0  0  0  0  0  0  0  0  0
    7.8769    1.7869   -0.1133 C   0  0  0  0  0  0  0  0  0  0  0  0
    6.8509    1.4070   -0.9147 N   0  0  0  0  0  0  0  0  0  0  0  0
    2.5531   -0.4176   -2.3802 S   0  0  0  0  0  0  0  0  0  0  0  0
    1.3519   -1.0562   -1.3471 C   0  0  0  0  0  0  0  0  0  0  0  0
    0.1137   -1.5540   -1.9028 C   0  0  0  0  0  0  0  0  0  0  0  0
    0.0983   -2.4259   -2.7714 O   0  0  0  0  0  0  0  0  0  0  0  0
   -1.0796   -1.0315   -1.3838 N   0  0  0  0  0  0  0  0  0  0  0  0
   -2.3293   -1.5555   -1.9460 C   0  0  0  0  0  0  0  0  0  0  0  0
   -3.5444   -1.3197   -1.0305 C   0  0  0  0  0  0  0  0  0  0  0  0
   -3.6256    0.1041   -0.6350 N   0  0  0  0  0  0  0  0  0  0  0  0
   -4.7778    0.3718    0.1363 C   0  0  0  0  0  0  0  0  0  0  0  0
   -6.0388    0.2416   -0.4509 C   0  0  0  0  0  0  0  0  0  0  0  0
   -7.1861    0.5121    0.2932 C   0  0  0  0  0  0  0  0  0  0  0  0
   -7.0553    0.9164    1.6119 C   0  0  0  0  0  0  0  0  0  0  0  0
   -5.7774    1.0382    2.1234 C   0  0  0  0  0  0  0  0  0  0  0  0
   -4.6524    0.7805    1.4182 N   0  0  0  0  0  0  0  0  0  0  0  0
   -2.3874    0.5705    0.0262 C   0  0  0  0  0  0  0  0  0  0  0  0
   -1.1779    0.3572   -0.9002 C   0  0  0  0  0  0  0  0  0  0  0  0
    0.4909   -2.4517    0.9088 H   0  0  0  0  0  0  0  0  0  0  0  0
    1.8227   -1.8822    1.9231 H   0  0  0  0  0  0  0  0  0  0  0  0
    0.4504   -0.8106    1.5906 H   0  0  0  0  0  0  0  0  0  0  0  0
    5.0443    0.7089   -2.1716 H   0  0  0  0  0  0  0  0  0  0  0  0
    4.8394    0.1916    1.5143 H   0  0  0  0  0  0  0  0  0  0  0  0
    6.7405    0.9057    2.9260 H   0  0  0  0  0  0  0  0  0  0  0  0
    8.7253    2.2376   -0.6168 H   0  0  0  0  0  0  0  0  0  0  0  0
   -2.2286   -2.6293   -2.1402 H   0  0  0  0  0  0  0  0  0  0  0  0
   -2.4825   -1.0574   -2.9117 H   0  0  0  0  0  0  0  0  0  0  0  0
   -3.4494   -1.9485   -0.1348 H   0  0  0  0  0  0  0  0  0  0  0  0
   -4.4411   -1.6405   -1.5729 H   0  0  0  0  0  0  0  0  0  0  0  0
   -6.1315   -0.0451   -1.4929 H   0  0  0  0  0  0  0  0  0  0  0  0
   -8.1679    0.4159   -0.1605 H   0  0  0  0  0  0  0  0  0  0  0  0
   -7.9228    1.1393    2.2220 H   0  0  0  0  0  0  0  0  0  0  0  0
   -5.6142    1.3587    3.1482 H   0  0  0  0  0  0  0  0  0  0  0  0
   -2.4543    1.6404    0.2601 H   0  0  0  0  0  0  0  0  0  0  0  0
   -2.2167    0.0174    0.9599 H   0  0  0  0  0  0  0  0  0  0  0  0
   -1.2697    0.9929   -1.7903 H   0  0  0  0  0  0  0  0  0  0  0  0
   -0.2680    0.6674   -0.3827 H   0  0  0  0  0  0  0  0  0  0  0  0
  1  2  1  0
  2  3  1  0
  3  4  2  0
  4  5  1  0
  5  6  1  0
  6  7  2  0
  7  8  1  0
  8  9  2  0
  9 10  1  0
  9 11  1  0
 11 12  2  0
  4 13  1  0
 13 14  1  0
 14 15  1  0
 15 16  2  0
 15 17  1  0
 17 18  1  0
 18 19  1  0
 19 20  1  0
 20 21  1  0
 21 22  2  0
 22 23  1  0
 23 24  2  0
 24 25  1  0
 25 26  2  0
 20 27  1  0
 27 28  1  0
 14  2  2  0
 28 17  1  0
 12  6  1  0
 26 21  1  0
  1 29  1  0
  1 30  1  0
  1 31  1  0
  5 32  1  0
  7 33  1  0
  8 34  1  0
 11 35  1  0
 18 36  1  0
 18 37  1  0
 19 38  1  0
 19 39  1  0
 22 40  1  0
 23 41  1  0
 24 42  1  0
 25 43  1  0
 27 44  1  0
 27 45  1  0
 28 46  1  0
 28 47  1  0
M  END
$$$$
