
     RDKit          3D

 63 63  0  0  0  0  0  0  0  0999 V2000
   -7.2271    2.5327   -2.7192 C   0  0  0  0  0  0  0  0  0  0  0  0
   -7.1823    1.7107   -1.5746 O   0  0  0  0  0  0  0  0  0  0  0  0
   -6.0397    0.9647   -1.3503 C   0  0  0  0  0  0  0  0  0  0  0  0
   -4.9571    1.0087   -2.2114 C   0  0  0  0  0  0  0  0  0  0  0  0
   -3.8171    0.2657   -1.9894 C   0  0  0  0  0  0  0  0  0  0  0  0
   -3.7270   -0.5598   -0.8756 C   0  0  0  0  0  0  0  0  0  0  0  0
   -2.5245   -1.3613   -0.6181 C   0  0  0  0  0  0  0  0  0  0  0  0
   -1.4913   -0.6418    0.2211 C   0  0  0  0  0  0  0  0  0  0  0  0
   -0.3371   -1.4475    0.4568 N   0  0  0  0  0  0  0  0  0  0  0  0
    0.4633   -1.7161   -0.6980 C   0  0  0  0  0  0  0  0  0  0  0  0
    1.9317   -1.9958   -0.3479 C   0  0  0  0  0  0  0  0  0  0  0  0
    2.4878   -0.7953    0.2162 N   0  0  0  0  0  0  0  0  0  0  0  0
    3.3683   -0.0894   -0.6637 C   0  0  0  0  0  0  0  0  0  0  0  0
    4.6441   -0.8012   -0.9594 C   0  0  0  0  0  0  0  0  0  0  0  0
    5.4472   -1.0609    0.2952 C   0  0  0  0  0  0  0  0  0  0  0  0
    5.8015    0.1907    0.9753 C   0  0  0  0  0  0  0  0  0  0  0  0
    5.0231    0.7993    1.9523 C   0  0  0  0  0  0  0  0  0  0  0  0
    5.3929    1.9765    2.5654 C   0  0  0  0  0  0  0  0  0  0  0  0
    6.5842    2.5672    2.1884 C   0  0  0  0  0  0  0  0  0  0  0  0
    7.3907    2.0111    1.2308 C   0  0  0  0  0  0  0  0  0  0  0  0
    6.9767    0.8254    0.6416 C   0  0  0  0  0  0  0  0  0  0  0  0
    1.4894    0.0453    0.8285 C   0  0  0  0  0  0  0  0  0  0  0  0
    0.5018   -0.9036    1.5008 C   0  0  0  0  0  0  0  0  0  0  0  0
   -4.8343   -0.5765   -0.0356 C   0  0  0  0  0  0  0  0  0  0  0  0
   -5.9686    0.1435   -0.2290 C   0  0  0  0  0  0  0  0  0  0  0  0
   -7.0611    0.0934    0.6484 O   0  0  0  0  0  0  0  0  0  0  0  0
   -6.9213   -0.7696    1.7806 C   0  0  0  0  0  0  0  0  0  0  0  0
    0.6880    0.0000    0.0000 Cl  0  0  0  0  0  0  0  0  0  0  0  0
    0.6854    0.0000    0.0000 Cl  0  0  0  0  0  0  0  0  0  0  0  0
   -7.2739    1.8557   -3.6011 H   0  0  0  0  0  0  0  0  0  0  0  0
   -8.1590    3.1410   -2.6754 H   0  0  0  0  0  0  0  0  0  0  0  0
   -6.3243    3.1763   -2.7717 H   0  0  0  0  0  0  0  0  0  0  0  0
   -4.9936    1.6446   -3.0951 H   0  0  0  0  0  0  0  0  0  0  0  0
   -3.0184    0.3427   -2.6873 H   0  0  0  0  0  0  0  0  0  0  0  0
   -2.1036   -1.6620   -1.6117 H   0  0  0  0  0  0  0  0  0  0  0  0
   -2.8325   -2.3020   -0.1192 H   0  0  0  0  0  0  0  0  0  0  0  0
   -1.9715   -0.4545    1.2126 H   0  0  0  0  0  0  0  0  0  0  0  0
   -1.2082    0.3269   -0.1838 H   0  0  0  0  0  0  0  0  0  0  0  0
    0.3933   -0.8399   -1.3782 H   0  0  0  0  0  0  0  0  0  0  0  0
    0.0321   -2.5752   -1.2597 H   0  0  0  0  0  0  0  0  0  0  0  0
    1.9760   -2.8677    0.3006 H   0  0  0  0  0  0  0  0  0  0  0  0
    2.4401   -2.1889   -1.3119 H   0  0  0  0  0  0  0  0  0  0  0  0
    3.6139    0.8777   -0.1762 H   0  0  0  0  0  0  0  0  0  0  0  0
    2.8099    0.1558   -1.5893 H   0  0  0  0  0  0  0  0  0  0  0  0
    5.2607   -0.1272   -1.6050 H   0  0  0  0  0  0  0  0  0  0  0  0
    4.5082   -1.7461   -1.5211 H   0  0  0  0  0  0  0  0  0  0  0  0
    4.8839   -1.6857    1.0203 H   0  0  0  0  0  0  0  0  0  0  0  0
    6.3669   -1.6329    0.0342 H   0  0  0  0  0  0  0  0  0  0  0  0
    4.1034    0.3385    2.2412 H   0  0  0  0  0  0  0  0  0  0  0  0
    4.7732    2.4382    3.3269 H   0  0  0  0  0  0  0  0  0  0  0  0
    6.8856    3.5055    2.6722 H   0  0  0  0  0  0  0  0  0  0  0  0
    8.3348    2.4459    0.9074 H   0  0  0  0  0  0  0  0  0  0  0  0
    7.6020    0.3802   -0.1109 H   0  0  0  0  0  0  0  0  0  0  0  0
    0.9305    0.5506    0.0152 H   0  0  0  0  0  0  0  0  0  0  0  0
    1.8766    0.8073    1.4981 H   0  0  0  0  0  0  0  0  0  0  0  0
   -0.1259   -0.3820    2.2413 H   0  0  0  0  0  0  0  0  0  0  0  0
    1.1215   -1.7067    1.9505 H   0  0  0  0  0  0  0  0  0  0  0  0
   -4.7937   -1.2193    0.8536 H   0  0  0  0  0  0  0  0  0  0  0  0
   -6.6913   -1.7835    1.3401 H   0  0  0  0  0  0  0  0  0  0  0  0
   -7.8204   -0.7789    2.4031 H   0  0  0  0  0  0  0  0  0  0  0  0
   -6.0106   -0.4507    2.3261 H   0  0  0  0  0  0  0  0  0  0  0  0
   -0.6880    0.0000    0.0000 H   0  0  0  0  0  0  0  0  0  0  0  0
   -0.6854    0.0000    0.0000 H   0  0  0  0  0  0  0  0  0  0  0  0
  1  2  1  0
  2  3  1  0
  3  4  2  0
  4  5  1  0
  5  6  2  0
  6  7  1  0
  7  8  1  0
  8  9  1  0
  9 10  1  0
 10 11  1  0
 11 12  1  0
 12 13  1  0
 13 14  1  0
 14 15  1  0
 15 16  1  0
 16 17  2  0
 17 18  1  0
 18 19  2  0
 19 20  1  0
 20 21  2  0
 12 22  1  0
 22 23  1  0
  6 24  1  0
 24 25  2  0
 25 26  1  0
 26 27  1  0
 25  3  1  0
 23  9  1  0
 21 16  1  0
  1 30  1  0
  1 31  1  0
  1 32  1  0
  4 33  1  0
  5 34  1  0
  7 35  1  0
  7 36  1  0
  8 37  1  0
  8 38  1  0
 10 39  1  0
 10 40  1  0
 11 41  1  0
 11 42  1  0
 13 43  1  0
 13 44  1  0
 14 45  1  0
 14 46  1  0
 15 47  1  0
 15 48  1  0
 17 49  1  0
 18 50  1  0
 19 51  1  0
 20 52  1  0
 21 53  1  0
 22 54  1  0
 22 55  1  0
 23 56  1  0
 23 57  1  0
 24 58  1  0
 27 59  1  0
 27 60  1  0
 27 61  1  0
 28 62  1  0
 29 63  1  0
M  END
$$$$
