
     RDKit          3D

 25 26  0  0  0  0  0  0  0  0999 V2000
   -6.0159   -1.5973    0.5146 N   0  0  0  0  0  0  0  0  0  0  0  0
   -4.8944   -1.3096    0.5928 C   0  0  0  0  0  0  0  0  0  0  0  0
   -3.5076   -0.9562    0.6862 C   0  0  0  0  0  0  0  0  0  0  0  0
   -2.5958   -1.8422    1.2755 C   0  0  0  0  0  0  0  0  0  0  0  0
   -1.2434   -1.5019    1.3676 C   0  0  0  0  0  0  0  0  0  0  0  0
   -0.8084   -0.2738    0.8618 C   0  0  0  0  0  0  0  0  0  0  0  0
    0.9030    0.1877    0.9852 S   0  0  0  0  0  6  0  0  0  0  0  0
    0.9492    1.5774    1.3818 O   0  0  0  0  0  0  0  0  0  0  0  0
    1.6017   -0.8475    1.7155 O   0  0  0  0  0  0  0  0  0  0  0  0
    1.3925    0.0273   -0.6379 N   0  0  0  0  0  0  0  0  0  0  0  0
    2.2598    1.1128   -1.1225 C   0  0  0  0  0  0  0  0  0  0  0  0
    3.7517    1.0497   -0.9711 C   0  0  0  0  0  0  0  0  0  0  0  0
    3.1293    0.9060   -2.3304 C   0  0  0  0  0  0  0  0  0  0  0  0
   -1.7120    0.6214    0.2800 C   0  0  0  0  0  0  0  0  0  0  0  0
   -3.0626    0.2761    0.1905 C   0  0  0  0  0  0  0  0  0  0  0  0
   -2.9336   -2.7999    1.6692 H   0  0  0  0  0  0  0  0  0  0  0  0
   -0.5448   -2.1936    1.8344 H   0  0  0  0  0  0  0  0  0  0  0  0
    1.8374   -0.8886   -0.7358 H   0  0  0  0  0  0  0  0  0  0  0  0
    1.7876    2.0898   -1.0373 H   0  0  0  0  0  0  0  0  0  0  0  0
    4.2711    1.9733   -0.7410 H   0  0  0  0  0  0  0  0  0  0  0  0
    4.1909    0.1717   -0.5127 H   0  0  0  0  0  0  0  0  0  0  0  0
    3.2316    1.7317   -3.0253 H   0  0  0  0  0  0  0  0  0  0  0  0
    3.1466   -0.0707   -2.7983 H   0  0  0  0  0  0  0  0  0  0  0  0
   -1.3701    1.5823   -0.1002 H   0  0  0  0  0  0  0  0  0  0  0  0
   -3.7639    0.9742   -0.2643 H   0  0  0  0  0  0  0  0  0  0  0  0
  1  2  3  0
  2  3  1  0
  3  4  2  0
  4  5  1  0
  5  6  2  0
  6  7  1  0
  7  8  2  0
  7  9  2  0
  7 10  1  0
 10 11  1  0
 11 12  1  0
 12 13  1  0
  6 14  1  0
 14 15  2  0
 15  3  1  0
 13 11  1  0
  4 16  1  0
  5 17  1  0
 10 18  1  0
 11 19  1  0
 12 20  1  0
 12 21  1  0
 13 22  1  0
 13 23  1  0
 14 24  1  0
 15 25  1  0
M  END
$$$$
