
     RDKit          3D

 29 30  0  0  0  0  0  0  0  0999 V2000
   -2.9360   -0.1254    1.1757 C   0  0  0  0  0  0  0  0  0  0  0  0
   -2.9094    0.2063   -0.2921 C   0  0  0  0  0  0  0  0  0  0  0  0
   -1.9285   -0.1538   -1.1469 C   0  0  0  0  0  0  0  0  0  0  0  0
   -0.6855   -0.9470   -0.8679 C   0  0  0  0  0  0  0  0  0  0  0  0
    0.4175   -0.0136   -0.9149 N   0  0  0  0  0  0  0  0  0  0  0  0
    1.6639   -0.5716   -0.6098 C   0  0  0  0  0  0  0  0  0  0  0  0
    1.9535   -1.8612   -0.9363 N   0  0  0  0  0  0  0  0  0  0  0  0
    3.1795   -2.3494   -0.6429 C   0  0  0  0  0  0  0  0  0  0  0  0
    4.2076   -1.7240   -0.0346 N   0  0  0  0  0  0  0  0  0  0  0  0
    3.8716   -0.4640    0.2729 C   0  0  0  0  0  0  0  0  0  0  0  0
    4.6537    0.4653    0.8942 N   0  0  0  0  0  0  0  0  0  0  0  0
    3.9149    1.6107    1.0182 C   0  0  0  0  0  0  0  0  0  0  0  0
    2.7067    1.4733    0.5136 N   0  0  0  0  0  0  0  0  0  0  0  0
    2.6689    0.1771    0.0344 C   0  0  0  0  0  0  0  0  0  0  0  0
   -4.0951    0.9977   -0.7792 C   0  0  0  0  0  0  0  0  0  0  0  0
   -4.1316    2.2388   -0.0928 O   0  0  0  0  0  0  0  0  0  0  0  0
   -2.9617    0.7905    1.7751 H   0  0  0  0  0  0  0  0  0  0  0  0
   -3.8280   -0.7158    1.4103 H   0  0  0  0  0  0  0  0  0  0  0  0
   -2.0685   -0.6981    1.5093 H   0  0  0  0  0  0  0  0  0  0  0  0
   -2.0095    0.1534   -2.1893 H   0  0  0  0  0  0  0  0  0  0  0  0
   -0.7289   -1.4615    0.0965 H   0  0  0  0  0  0  0  0  0  0  0  0
   -0.5886   -1.7139   -1.6463 H   0  0  0  0  0  0  0  0  0  0  0  0
    0.2789    0.8322   -0.3633 H   0  0  0  0  0  0  0  0  0  0  0  0
    3.3570   -3.3806   -0.9350 H   0  0  0  0  0  0  0  0  0  0  0  0
    5.6028    0.3168    1.2014 H   0  0  0  0  0  0  0  0  0  0  0  0
    4.3088    2.5056    1.4823 H   0  0  0  0  0  0  0  0  0  0  0  0
   -5.0241    0.4538   -0.5789 H   0  0  0  0  0  0  0  0  0  0  0  0
   -4.0419    1.2001   -1.8542 H   0  0  0  0  0  0  0  0  0  0  0  0
   -4.8479    2.7579   -0.4936 H   0  0  0  0  0  0  0  0  0  0  0  0
  1  2  1  0
  2  3  2  0
  3  4  1  0
  4  5  1  0
  5  6  1  0
  6  7  2  0
  7  8  1  0
  8  9  2  0
  9 10  1  0
 10 11  1  0
 11 12  1  0
 12 13  2  0
 13 14  1  0
  2 15  1  0
 15 16  1  0
 14  6  1  0
 14 10  2  0
  1 17  1  0
  1 18  1  0
  1 19  1  0
  3 20  1  0
  4 21  1  0
  4 22  1  0
  5 23  1  0
  8 24  1  0
 11 25  1  0
 12 26  1  0
 15 27  1  0
 15 28  1  0
 16 29  1  0
M  END
$$$$
