
     RDKit          3D

 27 27  0  0  0  0  0  0  0  0999 V2000
    3.0119   -0.9431    0.9179 C   0  0  0  0  0  0  0  0  0  0  0  0
    1.7151   -0.1673    0.6424 C   0  0  2  0  0  0  0  0  0  0  0  0
    1.1959    0.2546    1.9707 N   0  0  0  0  0  0  0  0  0  0  0  0
    0.7179   -1.0746   -0.1242 C   0  0  0  0  0  0  0  0  0  0  0  0
   -0.6648   -0.4971   -0.3445 C   0  0  0  0  0  0  0  0  0  0  0  0
   -0.9319    0.3045   -1.4635 C   0  0  0  0  0  0  0  0  0  0  0  0
   -2.2046    0.8423   -1.6611 C   0  0  0  0  0  0  0  0  0  0  0  0
   -3.2144    0.5790   -0.7449 C   0  0  0  0  0  0  0  0  0  0  0  0
   -4.4420    1.1244   -0.9778 O   0  0  0  0  0  0  0  0  0  0  0  0
   -2.9742   -0.2179    0.3687 C   0  0  0  0  0  0  0  0  0  0  0  0
   -1.7004   -0.7564    0.5665 C   0  0  0  0  0  0  0  0  0  0  0  0
    2.0426    1.0863   -0.1976 C   0  0  0  0  0  0  0  0  0  0  0  0
    1.6947    2.2354    0.0329 O   0  0  0  0  0  0  0  0  0  0  0  0
    2.7565    0.8227   -1.3130 O   0  0  0  0  0  0  0  0  0  0  0  0
    2.8354   -1.7982    1.5812 H   0  0  0  0  0  0  0  0  0  0  0  0
    3.7689   -0.3023    1.3861 H   0  0  0  0  0  0  0  0  0  0  0  0
    3.4491   -1.3340   -0.0082 H   0  0  0  0  0  0  0  0  0  0  0  0
    0.7028   -0.5190    2.4099 H   0  0  0  0  0  0  0  0  0  0  0  0
    0.4957    0.9863    1.8136 H   0  0  0  0  0  0  0  0  0  0  0  0
    0.6073   -2.0296    0.4088 H   0  0  0  0  0  0  0  0  0  0  0  0
    1.1345   -1.3454   -1.1044 H   0  0  0  0  0  0  0  0  0  0  0  0
   -0.1541    0.5168   -2.1934 H   0  0  0  0  0  0  0  0  0  0  0  0
   -2.4068    1.4656   -2.5275 H   0  0  0  0  0  0  0  0  0  0  0  0
   -5.0354    0.8727   -0.2517 H   0  0  0  0  0  0  0  0  0  0  0  0
   -3.7591   -0.4320    1.0870 H   0  0  0  0  0  0  0  0  0  0  0  0
   -1.5238   -1.3840    1.4371 H   0  0  0  0  0  0  0  0  0  0  0  0
    2.8832    1.7103   -1.7109 H   0  0  0  0  0  0  0  0  0  0  0  0
  1  2  1  0
  2  3  1  1
  2  4  1  0
  4  5  1  0
  5  6  2  0
  6  7  1  0
  7  8  2  0
  8  9  1  0
  8 10  1  0
 10 11  2  0
  2 12  1  0
 12 13  2  0
 12 14  1  0
 11  5  1  0
  1 15  1  0
  1 16  1  0
  1 17  1  0
  3 18  1  0
  3 19  1  0
  4 20  1  0
  4 21  1  0
  6 22  1  0
  7 23  1  0
  9 24  1  0
 10 25  1  0
 11 26  1  0
 14 27  1  0
M  END
$$$$
