
     RDKit          3D

 51 54  0  0  0  0  0  0  0  0999 V2000
    5.2265    0.9812   -2.3651 C   0  0  0  0  0  0  0  0  0  0  0  0
    5.3532    0.4180   -0.9875 C   0  0  0  0  0  0  0  0  0  0  0  0
    6.5729   -0.0967   -0.4363 C   0  0  0  0  0  0  0  0  0  0  0  0
    6.4301   -0.5213    0.8649 C   0  0  0  0  0  0  0  0  0  0  0  0
    4.8401   -0.2922    1.4404 S   0  0  0  0  0  0  0  0  0  0  0  0
    4.3130    0.3229   -0.0726 C   0  0  0  0  0  0  0  0  0  0  0  0
    2.9380    0.7795   -0.2328 C   0  0  0  0  0  0  0  0  0  0  0  0
    2.6884    1.9179   -0.6316 O   0  0  0  0  0  0  0  0  0  0  0  0
    1.8988   -0.1208    0.0758 N   0  0  0  0  0  0  0  0  0  0  0  0
    2.0297   -1.5435   -0.2196 C   0  0  0  0  0  0  0  0  0  0  0  0
    1.0997   -2.3761    0.6511 C   0  0  0  0  0  0  0  0  0  0  0  0
   -0.3659   -1.9088    0.5849 C   0  0  2  0  0  0  0  0  0  0  0  0
   -1.0230   -2.3423   -0.7322 C   0  0  0  0  0  0  0  0  0  0  0  0
   -2.2908   -1.7602   -0.9991 O   0  0  0  0  0  0  0  0  0  0  0  0
   -3.2223   -1.8088    0.0812 C   0  0  0  0  0  0  0  0  0  0  0  0
   -2.8802   -0.8486    1.2418 C   0  0  0  0  0  0  0  0  0  0  0  0
   -1.8553    0.1781    0.9850 N   0  0  0  0  0  0  0  0  0  0  0  0
   -2.2339    1.1305   -0.0731 C   0  0  0  0  0  0  0  0  0  0  0  0
   -3.5578    1.8254    0.1676 C   0  0  0  0  0  0  0  0  0  0  0  0
   -4.6206    1.6737   -0.7273 C   0  0  0  0  0  0  0  0  0  0  0  0
   -5.8111    2.3325   -0.4616 C   0  0  0  0  0  0  0  0  0  0  0  0
   -6.0119    3.1199    0.6165 N   0  0  0  0  0  0  0  0  0  0  0  0
   -4.9714    3.2572    1.4664 C   0  0  0  0  0  0  0  0  0  0  0  0
   -3.7430    2.6420    1.2878 C   0  0  0  0  0  0  0  0  0  0  0  0
   -0.4756   -0.3836    0.8873 C   0  0  2  0  0  0  0  0  0  0  0  0
    0.5364    0.4120    0.0154 C   0  0  0  0  0  0  0  0  0  0  0  0
    4.3903    0.5164   -2.8974 H   0  0  0  0  0  0  0  0  0  0  0  0
    6.1353    0.8046   -2.9495 H   0  0  0  0  0  0  0  0  0  0  0  0
    5.0564    2.0617   -2.3206 H   0  0  0  0  0  0  0  0  0  0  0  0
    7.5165   -0.1368   -0.9680 H   0  0  0  0  0  0  0  0  0  0  0  0
    7.1898   -0.9374    1.5125 H   0  0  0  0  0  0  0  0  0  0  0  0
    3.0548   -1.8955   -0.0892 H   0  0  0  0  0  0  0  0  0  0  0  0
    1.8026   -1.6762   -1.2838 H   0  0  0  0  0  0  0  0  0  0  0  0
    1.4397   -2.3049    1.6928 H   0  0  0  0  0  0  0  0  0  0  0  0
    1.1748   -3.4330    0.3689 H   0  0  0  0  0  0  0  0  0  0  0  0
   -0.8711   -2.4568    1.3907 H   0  0  0  0  0  0  0  0  0  0  0  0
   -0.3897   -2.0862   -1.5867 H   0  0  0  0  0  0  0  0  0  0  0  0
   -1.1359   -3.4332   -0.7487 H   0  0  0  0  0  0  0  0  0  0  0  0
   -3.3228   -2.8395    0.4402 H   0  0  0  0  0  0  0  0  0  0  0  0
   -4.1904   -1.5176   -0.3403 H   0  0  0  0  0  0  0  0  0  0  0  0
   -3.8119   -0.3859    1.5917 H   0  0  0  0  0  0  0  0  0  0  0  0
   -2.5823   -1.4372    2.1195 H   0  0  0  0  0  0  0  0  0  0  0  0
   -1.5020    1.9452   -0.1265 H   0  0  0  0  0  0  0  0  0  0  0  0
   -2.2326    0.6621   -1.0631 H   0  0  0  0  0  0  0  0  0  0  0  0
   -4.5290    1.0541   -1.6133 H   0  0  0  0  0  0  0  0  0  0  0  0
   -6.6613    2.2407   -1.1312 H   0  0  0  0  0  0  0  0  0  0  0  0
   -5.1560    3.8959    2.3253 H   0  0  0  0  0  0  0  0  0  0  0  0
   -2.9463    2.7867    2.0105 H   0  0  0  0  0  0  0  0  0  0  0  0
   -0.0945   -0.2830    1.9152 H   0  0  0  0  0  0  0  0  0  0  0  0
    0.2373    0.4164   -1.0400 H   0  0  0  0  0  0  0  0  0  0  0  0
    0.5642    1.4512    0.3638 H   0  0  0  0  0  0  0  0  0  0  0  0
  1  2  1  0
  2  3  1  0
  3  4  2  0
  4  5  1  0
  5  6  1  0
  6  7  1  0
  7  8  2  0
  7  9  1  0
  9 10  1  0
 10 11  1  0
 11 12  1  0
 12 13  1  0
 13 14  1  0
 14 15  1  0
 15 16  1  0
 16 17  1  0
 17 18  1  0
 18 19  1  0
 19 20  2  0
 20 21  1  0
 21 22  2  0
 22 23  1  0
 23 24  2  0
 17 25  1  0
 25 26  1  0
  6  2  2  0
 26  9  1  0
 25 12  1  0
 24 19  1  0
  1 27  1  0
  1 28  1  0
  1 29  1  0
  3 30  1  0
  4 31  1  0
 10 32  1  0
 10 33  1  0
 11 34  1  0
 11 35  1  0
 12 36  1  1
 13 37  1  0
 13 38  1  0
 15 39  1  0
 15 40  1  0
 16 41  1  0
 16 42  1  0
 18 43  1  0
 18 44  1  0
 20 45  1  0
 21 46  1  0
 23 47  1  0
 24 48  1  0
 25 49  1  1
 26 50  1  0
 26 51  1  0
M  END
$$$$
