
     RDKit          3D

 31 32  0  0  0  0  0  0  0  0999 V2000
    4.9865   -0.5156   -0.3311 C   0  0  0  0  0  0  0  0  0  0  0  0
    3.9829    0.4239   -0.9443 C   0  0  0  0  0  0  0  0  0  0  0  0
    4.3452    1.3306   -1.6952 O   0  0  0  0  0  0  0  0  0  0  0  0
    2.5335    0.2760   -0.6256 C   0  0  0  0  0  0  0  0  0  0  0  0
    1.7262    1.4076   -0.7741 C   0  0  0  0  0  0  0  0  0  0  0  0
    0.3554    1.3525   -0.4882 C   0  0  0  0  0  0  0  0  0  0  0  0
   -0.2643    0.1749   -0.0462 C   0  0  0  0  0  0  0  0  0  0  0  0
   -1.6168    0.1221    0.2371 N   0  0  0  0  0  0  0  0  0  0  0  0
   -2.1896   -0.8919    1.1391 C   0  0  0  0  0  0  0  0  0  0  0  0
   -3.4276   -0.3277    1.8572 C   0  0  0  0  0  0  0  0  0  0  0  0
   -4.4706    0.1006    0.9717 O   0  0  0  0  0  0  0  0  0  0  0  0
   -3.9836    0.5736   -0.2921 C   0  0  0  0  0  0  0  0  0  0  0  0
   -2.5581    1.1494   -0.2412 C   0  0  0  0  0  0  0  0  0  0  0  0
    0.5614   -0.9557    0.0791 C   0  0  0  0  0  0  0  0  0  0  0  0
    1.9352   -0.9130   -0.2098 C   0  0  0  0  0  0  0  0  0  0  0  0
    2.6645   -2.0654   -0.1053 O   0  0  0  0  0  0  0  0  0  0  0  0
    4.7246   -0.7484    0.7042 H   0  0  0  0  0  0  0  0  0  0  0  0
    5.9643   -0.0235   -0.3105 H   0  0  0  0  0  0  0  0  0  0  0  0
    5.0644   -1.4252   -0.9312 H   0  0  0  0  0  0  0  0  0  0  0  0
    2.1590    2.3490   -1.1090 H   0  0  0  0  0  0  0  0  0  0  0  0
   -0.2132    2.2718   -0.6016 H   0  0  0  0  0  0  0  0  0  0  0  0
   -2.4701   -1.7710    0.5476 H   0  0  0  0  0  0  0  0  0  0  0  0
   -1.4681   -1.1977    1.9054 H   0  0  0  0  0  0  0  0  0  0  0  0
   -3.8530   -1.0852    2.5233 H   0  0  0  0  0  0  0  0  0  0  0  0
   -3.1470    0.5312    2.4785 H   0  0  0  0  0  0  0  0  0  0  0  0
   -4.0268   -0.2662   -0.9958 H   0  0  0  0  0  0  0  0  0  0  0  0
   -4.6844    1.3346   -0.6500 H   0  0  0  0  0  0  0  0  0  0  0  0
   -2.2946    1.4860   -1.2504 H   0  0  0  0  0  0  0  0  0  0  0  0
   -2.5269    2.0084    0.4393 H   0  0  0  0  0  0  0  0  0  0  0  0
    0.1201   -1.9011    0.3794 H   0  0  0  0  0  0  0  0  0  0  0  0
    2.0717   -2.8046    0.1115 H   0  0  0  0  0  0  0  0  0  0  0  0
  1  2  1  0
  2  3  2  0
  2  4  1  0
  4  5  2  0
  5  6  1  0
  6  7  2  0
  7  8  1  0
  8  9  1  0
  9 10  1  0
 10 11  1  0
 11 12  1  0
 12 13  1  0
  7 14  1  0
 14 15  2  0
 15 16  1  0
 15  4  1  0
 13  8  1  0
  1 17  1  0
  1 18  1  0
  1 19  1  0
  5 20  1  0
  6 21  1  0
  9 22  1  0
  9 23  1  0
 10 24  1  0
 10 25  1  0
 12 26  1  0
 12 27  1  0
 13 28  1  0
 13 29  1  0
 14 30  1  0
 16 31  1  0
M  END
$$$$
