
     RDKit          3D

 54 57  0  0  0  0  0  0  0  0999 V2000
   -8.6638    0.0198   -0.3478 C   0  0  0  0  0  0  0  0  0  0  0  0
   -7.9365   -1.1595   -0.0272 O   0  0  0  0  0  0  0  0  0  0  0  0
   -6.6629   -0.9904    0.4401 C   0  0  0  0  0  0  0  0  0  0  0  0
   -5.9619    0.2130    0.4978 C   0  0  0  0  0  0  0  0  0  0  0  0
   -4.6531    0.2460    0.9975 C   0  0  0  0  0  0  0  0  0  0  0  0
   -4.0275   -0.9211    1.4609 C   0  0  0  0  0  0  0  0  0  0  0  0
   -2.6008   -0.9336    1.9835 C   0  0  0  0  0  0  0  0  0  0  0  0
   -2.2440    0.2907    2.8329 C   0  0  0  0  0  0  0  0  0  0  0  0
   -1.6873   -1.0760    0.8615 N   0  0  0  0  0  0  0  0  0  0  0  0
   -0.4081   -1.5588    1.0152 C   0  0  0  0  0  0  0  0  0  0  0  0
    0.0473   -1.9131    2.0974 O   0  0  0  0  0  0  0  0  0  0  0  0
    0.3877   -1.6154   -0.2873 C   0  0  0  0  0  0  0  0  0  0  0  0
    1.7199   -2.3485   -0.0858 C   0  0  0  0  0  0  0  0  0  0  0  0
    2.8066   -1.4024    0.4194 C   0  0  0  0  0  0  0  0  0  0  0  0
    3.0219   -0.3071   -0.5381 N   0  0  0  0  0  0  0  0  0  0  0  0
    4.2696    0.2924   -0.6305 C   0  0  0  0  0  0  0  0  0  0  0  0
    5.1861    0.3115    0.4217 C   0  0  0  0  0  0  0  0  0  0  0  0
    6.4177    0.8785    0.3956 N   0  0  0  0  0  0  0  0  0  0  0  0
    6.8038    1.4814   -0.7277 C   0  0  0  0  0  0  0  0  0  0  0  0
    8.0181    2.0423   -0.7632 N   0  0  0  0  0  0  0  0  0  0  0  0
    8.3922    2.6464   -1.9116 C   0  0  0  0  0  0  0  0  0  0  0  0
    7.5744    2.6981   -3.0188 C   0  0  0  0  0  0  0  0  0  0  0  0
    6.3458    2.1450   -3.0197 N   0  0  0  0  0  0  0  0  0  0  0  0
    5.9688    1.5392   -1.8688 C   0  0  0  0  0  0  0  0  0  0  0  0
    4.7164    0.9396   -1.7857 C   0  0  0  0  0  0  0  0  0  0  0  0
    1.9557   -0.0041   -1.4944 C   0  0  0  0  0  0  0  0  0  0  0  0
    0.5893   -0.1966   -0.8409 C   0  0  0  0  0  0  0  0  0  0  0  0
   -4.7367   -2.1291    1.3795 C   0  0  0  0  0  0  0  0  0  0  0  0
   -6.0398   -2.1599    0.8758 C   0  0  0  0  0  0  0  0  0  0  0  0
   -8.2132    0.5409   -1.1991 H   0  0  0  0  0  0  0  0  0  0  0  0
   -8.7499    0.6808    0.5212 H   0  0  0  0  0  0  0  0  0  0  0  0
   -9.6750   -0.2797   -0.6386 H   0  0  0  0  0  0  0  0  0  0  0  0
   -6.3992    1.1448    0.1554 H   0  0  0  0  0  0  0  0  0  0  0  0
   -4.1321    1.2000    1.0147 H   0  0  0  0  0  0  0  0  0  0  0  0
   -2.4750   -1.8126    2.6297 H   0  0  0  0  0  0  0  0  0  0  0  0
   -2.9735    0.4386    3.6366 H   0  0  0  0  0  0  0  0  0  0  0  0
   -1.2576    0.1705    3.2949 H   0  0  0  0  0  0  0  0  0  0  0  0
   -2.2015    1.2074    2.2341 H   0  0  0  0  0  0  0  0  0  0  0  0
   -2.0208   -0.8133   -0.0561 H   0  0  0  0  0  0  0  0  0  0  0  0
   -0.2096   -2.2046   -0.9955 H   0  0  0  0  0  0  0  0  0  0  0  0
    2.0382   -2.7762   -1.0459 H   0  0  0  0  0  0  0  0  0  0  0  0
    1.6113   -3.1941    0.6032 H   0  0  0  0  0  0  0  0  0  0  0  0
    3.7217   -1.9937    0.5468 H   0  0  0  0  0  0  0  0  0  0  0  0
    2.5372   -0.9860    1.3966 H   0  0  0  0  0  0  0  0  0  0  0  0
    4.9448   -0.1354    1.3830 H   0  0  0  0  0  0  0  0  0  0  0  0
    9.3809    3.0911   -1.9117 H   0  0  0  0  0  0  0  0  0  0  0  0
    7.8841    3.1849   -3.9359 H   0  0  0  0  0  0  0  0  0  0  0  0
    4.0982    0.9728   -2.6774 H   0  0  0  0  0  0  0  0  0  0  0  0
    2.0530   -0.6447   -2.3789 H   0  0  0  0  0  0  0  0  0  0  0  0
    2.0087    1.0390   -1.8287 H   0  0  0  0  0  0  0  0  0  0  0  0
   -0.1986    0.0264   -1.5710 H   0  0  0  0  0  0  0  0  0  0  0  0
    0.4798    0.5461   -0.0387 H   0  0  0  0  0  0  0  0  0  0  0  0
   -4.2773   -3.0598    1.7071 H   0  0  0  0  0  0  0  0  0  0  0  0
   -6.5736   -3.1063    0.8231 H   0  0  0  0  0  0  0  0  0  0  0  0
  1  2  1  0
  2  3  1  0
  3  4  2  0
  4  5  1  0
  5  6  2  0
  6  7  1  0
  7  8  1  0
  7  9  1  0
  9 10  1  0
 10 11  2  0
 10 12  1  0
 12 13  1  0
 13 14  1  0
 14 15  1  0
 15 16  1  0
 16 17  2  0
 17 18  1  0
 18 19  2  0
 19 20  1  0
 20 21  2  0
 21 22  1  0
 22 23  2  0
 23 24  1  0
 24 25  2  0
 15 26  1  0
 26 27  1  0
  6 28  1  0
 28 29  2  0
 29  3  1  0
 27 12  1  0
 25 16  1  0
 24 19  1  0
  1 30  1  0
  1 31  1  0
  1 32  1  0
  4 33  1  0
  5 34  1  0
  7 35  1  0
  8 36  1  0
  8 37  1  0
  8 38  1  0
  9 39  1  0
 12 40  1  0
 13 41  1  0
 13 42  1  0
 14 43  1  0
 14 44  1  0
 17 45  1  0
 21 46  1  0
 22 47  1  0
 25 48  1  0
 26 49  1  0
 26 50  1  0
 27 51  1  0
 27 52  1  0
 28 53  1  0
 29 54  1  0
M  END
$$$$
