
     RDKit          3D

 49 51  0  0  0  0  0  0  0  0999 V2000
    1.9521   -2.6259   -0.2392 C   0  0  0  0  0  0  0  0  0  0  0  0
    2.5773   -1.7957    0.8627 C   0  0  0  0  0  0  0  0  0  0  0  0
    2.4297   -0.4122    0.5070 N   0  0  0  0  0  0  0  0  0  0  0  0
    1.1240    0.1794    0.5381 C   0  0  0  0  0  0  0  0  0  0  0  0
    0.1025   -0.5454    0.8868 C   0  0  0  0  0  0  0  0  0  0  0  0
   -1.2577    0.0316    0.9359 C   0  0  0  0  0  0  0  0  0  0  0  0
   -1.5641    1.1546    1.6678 C   0  0  0  0  0  0  0  0  0  0  0  0
   -2.8529    1.6604    1.6488 C   0  0  0  0  0  0  0  0  0  0  0  0
   -3.8453    1.0559    0.9037 C   0  0  0  0  0  0  0  0  0  0  0  0
   -5.1251    1.5654    0.8874 C   0  0  0  0  0  0  0  0  0  0  0  0
   -6.1387    0.9795    0.1466 C   0  0  0  0  0  0  0  0  0  0  0  0
   -5.8018   -0.1490   -0.5810 C   0  0  0  0  0  0  0  0  0  0  0  0
   -4.5163   -0.6461   -0.5536 C   0  0  0  0  0  0  0  0  0  0  0  0
   -3.5020   -0.0686    0.1819 C   0  0  0  0  0  0  0  0  0  0  0  0
   -2.2311   -0.5645    0.2032 N   0  0  0  0  0  4  0  0  0  0  0  0
   -1.9524   -1.7326   -0.5686 C   0  0  0  0  0  0  0  0  0  0  0  0
   -1.5209   -1.4312   -1.9896 C   0  0  0  0  0  0  0  0  0  0  0  0
    1.0088    1.5925    0.1481 C   0  0  0  0  0  0  0  0  0  0  0  0
    2.0912    2.2628   -0.2109 C   0  0  0  0  0  0  0  0  0  0  0  0
    3.4075    1.6451   -0.2356 C   0  0  0  0  0  0  0  0  0  0  0  0
    4.5241    2.3999   -0.6305 C   0  0  0  0  0  0  0  0  0  0  0  0
    5.7846    1.8564   -0.6740 C   0  0  0  0  0  0  0  0  0  0  0  0
    5.9677    0.5360   -0.3232 C   0  0  0  0  0  0  0  0  0  0  0  0
    4.8547   -0.2009    0.0658 C   0  0  0  0  0  0  0  0  0  0  0  0
    3.5824    0.3219    0.1178 C   0  0  0  0  0  0  0  0  0  0  0  0
    0.0000    0.0000    0.0000 I   0  0  0  0  0 15  0  0  0  0  0  0
    1.3440   -1.9670   -0.8859 H   0  0  0  0  0  0  0  0  0  0  0  0
    1.3323   -3.4601    0.1994 H   0  0  0  0  0  0  0  0  0  0  0  0
    2.7245   -3.0531   -0.9188 H   0  0  0  0  0  0  0  0  0  0  0  0
    3.6058   -2.0905    1.0805 H   0  0  0  0  0  0  0  0  0  0  0  0
    2.0085   -2.0612    1.7878 H   0  0  0  0  0  0  0  0  0  0  0  0
    0.2356   -1.5891    1.1626 H   0  0  0  0  0  0  0  0  0  0  0  0
   -0.7975    1.6345    2.2708 H   0  0  0  0  0  0  0  0  0  0  0  0
   -3.1345    2.5493    2.2169 H   0  0  0  0  0  0  0  0  0  0  0  0
   -5.3688    2.4499    1.4653 H   0  0  0  0  0  0  0  0  0  0  0  0
   -7.1354    1.3939    0.1438 H   0  0  0  0  0  0  0  0  0  0  0  0
   -6.5904   -0.6047   -1.1587 H   0  0  0  0  0  0  0  0  0  0  0  0
   -4.3411   -1.5183   -1.1490 H   0  0  0  0  0  0  0  0  0  0  0  0
   -1.0686   -2.2948   -0.1327 H   0  0  0  0  0  0  0  0  0  0  0  0
   -2.7562   -2.5201   -0.5277 H   0  0  0  0  0  0  0  0  0  0  0  0
   -2.3560   -1.1799   -2.6484 H   0  0  0  0  0  0  0  0  0  0  0  0
   -1.0070   -2.3498   -2.3788 H   0  0  0  0  0  0  0  0  0  0  0  0
   -0.8280   -0.5828   -1.9429 H   0  0  0  0  0  0  0  0  0  0  0  0
    0.0290    2.0621    0.1429 H   0  0  0  0  0  0  0  0  0  0  0  0
    2.0150    3.3179   -0.5033 H   0  0  0  0  0  0  0  0  0  0  0  0
    4.3555    3.4302   -0.8981 H   0  0  0  0  0  0  0  0  0  0  0  0
    6.6262    2.4612   -0.9821 H   0  0  0  0  0  0  0  0  0  0  0  0
    6.9558    0.1265   -0.3602 H   0  0  0  0  0  0  0  0  0  0  0  0
    5.0528   -1.2234    0.3215 H   0  0  0  0  0  0  0  0  0  0  0  0
  1  2  1  0
  2  3  1  0
  3  4  1  0
  4  5  2  0
  5  6  1  0
  6  7  2  0
  7  8  1  0
  8  9  2  0
  9 10  1  0
 10 11  2  0
 11 12  1  0
 12 13  2  0
 13 14  1  0
 14 15  2  0
 15 16  1  0
 16 17  1  0
  4 18  1  0
 18 19  2  0
 19 20  1  0
 20 21  2  0
 21 22  1  0
 22 23  2  0
 23 24  1  0
 24 25  2  0
 25  3  1  0
 15  6  1  0
 25 20  1  0
 14  9  1  0
  1 27  1  0
  1 28  1  0
  1 29  1  0
  2 30  1  0
  2 31  1  0
  5 32  1  0
  7 33  1  0
  8 34  1  0
 10 35  1  0
 11 36  1  0
 12 37  1  0
 13 38  1  0
 16 39  1  0
 16 40  1  0
 17 41  1  0
 17 42  1  0
 17 43  1  0
 18 44  1  0
 19 45  1  0
 21 46  1  0
 22 47  1  0
 23 48  1  0
 24 49  1  0
M  CHG  2  15   1  26  -1
M  END
$$$$
