
     RDKit          3D

 50 52  0  0  0  0  0  0  0  0999 V2000
   -2.6444    1.3730   -0.6578 O   0  0  0  0  0  0  0  0  0  0  0  0
   -2.9236    0.4706    0.1357 C   0  0  0  0  0  0  0  0  0  0  0  0
   -1.8961   -0.6078    0.5191 C   0  0  0  0  0  0  0  0  0  0  0  0
   -0.6570   -0.4942   -0.2511 N   0  0  0  0  0  0  0  0  0  0  0  0
    0.3339    0.3852    0.1700 C   0  0  0  0  0  0  0  0  0  0  0  0
    1.4546    0.5576   -0.5471 C   0  0  0  0  0  0  0  0  0  0  0  0
    2.6761    1.6618    0.0400 S   0  0  0  0  0  6  0  0  0  0  0  0
    2.8125    2.7426   -0.9167 O   0  0  0  0  0  0  0  0  0  0  0  0
    2.4524    1.9594    1.4428 O   0  0  0  0  0  0  0  0  0  0  0  0
    4.1518    0.7819   -0.0186 N   0  0  0  0  0  0  0  0  0  0  0  0
    5.3611    1.6573    0.0132 C   0  0  0  0  0  0  0  0  0  0  0  0
    6.6143    0.8945    0.4499 C   0  0  0  0  0  0  0  0  0  0  0  0
    6.5995   -0.5423   -0.0528 C   0  0  0  0  0  0  0  0  0  0  0  0
    5.3599   -1.2964    0.4353 C   0  0  0  0  0  0  0  0  0  0  0  0
    4.2424   -0.3677    0.9097 C   0  0  0  0  0  0  0  0  0  0  0  0
    1.6289   -0.1566   -1.7929 C   0  0  0  0  0  0  0  0  0  0  0  0
    0.6806   -0.9932   -2.2352 C   0  0  0  0  0  0  0  0  0  0  0  0
   -0.5662   -1.2036   -1.4482 C   0  0  0  0  0  0  0  0  0  0  0  0
   -1.4182   -1.9826   -1.8664 O   0  0  0  0  0  0  0  0  0  0  0  0
   -4.1672    0.4114    0.7673 N   0  0  0  0  0  0  0  0  0  0  0  0
   -4.6561   -0.7208    1.5517 C   0  0  0  0  0  0  0  0  0  0  0  0
   -5.6619   -1.5248    0.7297 C   0  0  0  0  0  0  0  0  0  0  0  0
   -6.7913   -0.6265    0.2159 C   0  0  0  0  0  0  0  0  0  0  0  0
   -6.2433    0.6027   -0.5152 C   0  0  0  0  0  0  0  0  0  0  0  0
   -5.2132    1.3387    0.3412 C   0  0  0  0  0  0  0  0  0  0  0  0
   -1.6620   -0.5188    1.5860 H   0  0  0  0  0  0  0  0  0  0  0  0
   -2.3335   -1.5941    0.3344 H   0  0  0  0  0  0  0  0  0  0  0  0
    0.1489    0.9222    1.0970 H   0  0  0  0  0  0  0  0  0  0  0  0
    5.5151    2.0420   -1.0015 H   0  0  0  0  0  0  0  0  0  0  0  0
    5.2121    2.5102    0.6839 H   0  0  0  0  0  0  0  0  0  0  0  0
    7.5079    1.4166    0.0898 H   0  0  0  0  0  0  0  0  0  0  0  0
    6.6783    0.8917    1.5461 H   0  0  0  0  0  0  0  0  0  0  0  0
    7.5058   -1.0688    0.2647 H   0  0  0  0  0  0  0  0  0  0  0  0
    6.6095   -0.5372   -1.1495 H   0  0  0  0  0  0  0  0  0  0  0  0
    5.6307   -1.9722    1.2551 H   0  0  0  0  0  0  0  0  0  0  0  0
    4.9945   -1.9331   -0.3802 H   0  0  0  0  0  0  0  0  0  0  0  0
    3.3060   -0.9337    0.9349 H   0  0  0  0  0  0  0  0  0  0  0  0
    4.4422   -0.0129    1.9279 H   0  0  0  0  0  0  0  0  0  0  0  0
    2.5356    0.0154   -2.3655 H   0  0  0  0  0  0  0  0  0  0  0  0
    0.7637   -1.5371   -3.1670 H   0  0  0  0  0  0  0  0  0  0  0  0
   -5.1369   -0.3160    2.4502 H   0  0  0  0  0  0  0  0  0  0  0  0
   -3.8422   -1.3656    1.8880 H   0  0  0  0  0  0  0  0  0  0  0  0
   -5.1524   -1.9864   -0.1252 H   0  0  0  0  0  0  0  0  0  0  0  0
   -6.0793   -2.3353    1.3371 H   0  0  0  0  0  0  0  0  0  0  0  0
   -7.4455   -1.1967   -0.4527 H   0  0  0  0  0  0  0  0  0  0  0  0
   -7.4052   -0.2978    1.0633 H   0  0  0  0  0  0  0  0  0  0  0  0
   -7.0653    1.2782   -0.7753 H   0  0  0  0  0  0  0  0  0  0  0  0
   -5.7753    0.2810   -1.4538 H   0  0  0  0  0  0  0  0  0  0  0  0
   -4.7973    2.1826   -0.2181 H   0  0  0  0  0  0  0  0  0  0  0  0
   -5.6851    1.7457    1.2434 H   0  0  0  0  0  0  0  0  0  0  0  0
  1  2  2  0
  2  3  1  0
  3  4  1  0
  4  5  1  0
  5  6  2  0
  6  7  1  0
  7  8  2  0
  7  9  2  0
  7 10  1  0
 10 11  1  0
 11 12  1  0
 12 13  1  0
 13 14  1  0
 14 15  1  0
  6 16  1  0
 16 17  2  0
 17 18  1  0
 18 19  2  0
  2 20  1  0
 20 21  1  0
 21 22  1  0
 22 23  1  0
 23 24  1  0
 24 25  1  0
 18  4  1  0
 25 20  1  0
 15 10  1  0
  3 26  1  0
  3 27  1  0
  5 28  1  0
 11 29  1  0
 11 30  1  0
 12 31  1  0
 12 32  1  0
 13 33  1  0
 13 34  1  0
 14 35  1  0
 14 36  1  0
 15 37  1  0
 15 38  1  0
 16 39  1  0
 17 40  1  0
 21 41  1  0
 21 42  1  0
 22 43  1  0
 22 44  1  0
 23 45  1  0
 23 46  1  0
 24 47  1  0
 24 48  1  0
 25 49  1  0
 25 50  1  0
M  END
$$$$
