
     RDKit          3D

 52 54  0  0  0  0  0  0  0  0999 V2000
    6.9500    1.1298    2.9176 C   0  0  0  0  0  0  0  0  0  0  0  0
    6.7429    0.8378    1.5434 O   0  0  0  0  0  0  0  0  0  0  0  0
    5.4459    0.7560    1.0992 C   0  0  0  0  0  0  0  0  0  0  0  0
    4.3201    0.9258    1.9112 C   0  0  0  0  0  0  0  0  0  0  0  0
    3.0361    0.8231    1.3711 C   0  0  0  0  0  0  0  0  0  0  0  0
    2.8572    0.5512    0.0115 C   0  0  0  0  0  0  0  0  0  0  0  0
    1.4662    0.4172   -0.5569 C   0  0  0  0  0  0  0  0  0  0  0  0
    0.9094   -0.9953   -0.3636 C   0  0  0  0  0  0  0  0  0  0  0  0
   -0.4191   -1.1413   -0.9235 N   0  0  0  0  0  0  0  0  0  0  0  0
   -1.5419   -0.6712   -0.2779 C   0  0  0  0  0  0  0  0  0  0  0  0
   -1.4958   -0.1128    0.8080 O   0  0  0  0  0  0  0  0  0  0  0  0
   -2.8068   -0.9178   -1.0717 C   0  0  0  0  0  0  0  0  0  0  0  0
   -3.9998   -0.5258   -0.5834 C   0  0  0  0  0  0  0  0  0  0  0  0
   -4.3278    0.1044    0.6984 C   0  0  0  0  0  0  0  0  0  0  0  0
   -4.6729   -0.6847    1.8049 C   0  0  0  0  0  0  0  0  0  0  0  0
   -4.9822   -0.0876    3.0285 C   0  0  0  0  0  0  0  0  0  0  0  0
   -4.9439    1.2995    3.1581 C   0  0  0  0  0  0  0  0  0  0  0  0
   -4.5947    2.0921    2.0661 C   0  0  0  0  0  0  0  0  0  0  0  0
   -4.2849    1.4985    0.8409 C   0  0  0  0  0  0  0  0  0  0  0  0
   -5.4486   -0.7495   -1.4971 S   0  0  0  0  0  6  0  0  0  0  0  0
   -6.1597   -1.9130   -0.9949 O   0  0  0  0  0  0  0  0  0  0  0  0
   -6.1424    0.5135   -1.6778 O   0  0  0  0  0  0  0  0  0  0  0  0
   -4.8411   -1.1942   -3.0924 C   0  0  0  0  0  0  0  0  0  0  0  0
   -3.7332   -2.1848   -2.8865 C   0  0  0  0  0  0  0  0  0  0  0  0
   -2.6030   -1.5456   -2.2965 O   0  0  0  0  0  0  0  0  0  0  0  0
    3.9846    0.3765   -0.8043 C   0  0  0  0  0  0  0  0  0  0  0  0
    5.2768    0.4804   -0.2727 C   0  0  0  0  0  0  0  0  0  0  0  0
    6.4302    0.3227   -1.0019 O   0  0  0  0  0  0  0  0  0  0  0  0
    6.3047    0.1301   -2.4027 C   0  0  0  0  0  0  0  0  0  0  0  0
    6.5400    2.1106    3.1800 H   0  0  0  0  0  0  0  0  0  0  0  0
    8.0296    1.1642    3.0931 H   0  0  0  0  0  0  0  0  0  0  0  0
    6.5353    0.3425    3.5558 H   0  0  0  0  0  0  0  0  0  0  0  0
    4.4056    1.1383    2.9714 H   0  0  0  0  0  0  0  0  0  0  0  0
    2.1731    0.9561    2.0220 H   0  0  0  0  0  0  0  0  0  0  0  0
    0.8100    1.1599   -0.0856 H   0  0  0  0  0  0  0  0  0  0  0  0
    1.4747    0.6726   -1.6244 H   0  0  0  0  0  0  0  0  0  0  0  0
    0.8663   -1.2509    0.7018 H   0  0  0  0  0  0  0  0  0  0  0  0
    1.5487   -1.7351   -0.8580 H   0  0  0  0  0  0  0  0  0  0  0  0
   -0.5353   -1.5596   -1.8393 H   0  0  0  0  0  0  0  0  0  0  0  0
   -4.7087   -1.7690    1.7241 H   0  0  0  0  0  0  0  0  0  0  0  0
   -5.2512   -0.7057    3.8810 H   0  0  0  0  0  0  0  0  0  0  0  0
   -5.1830    1.7631    4.1115 H   0  0  0  0  0  0  0  0  0  0  0  0
   -4.5612    3.1735    2.1684 H   0  0  0  0  0  0  0  0  0  0  0  0
   -4.0141    2.1341    0.0012 H   0  0  0  0  0  0  0  0  0  0  0  0
   -4.4858   -0.2820   -3.5822 H   0  0  0  0  0  0  0  0  0  0  0  0
   -5.6713   -1.6182   -3.6634 H   0  0  0  0  0  0  0  0  0  0  0  0
   -3.4061   -2.5752   -3.8558 H   0  0  0  0  0  0  0  0  0  0  0  0
   -4.0285   -3.0457   -2.2745 H   0  0  0  0  0  0  0  0  0  0  0  0
    3.8298    0.1575   -1.8556 H   0  0  0  0  0  0  0  0  0  0  0  0
    5.7947   -0.8126   -2.6265 H   0  0  0  0  0  0  0  0  0  0  0  0
    7.3129    0.0692   -2.8238 H   0  0  0  0  0  0  0  0  0  0  0  0
    5.7981    0.9775   -2.8763 H   0  0  0  0  0  0  0  0  0  0  0  0
  1  2  1  0
  2  3  1  0
  3  4  2  0
  4  5  1  0
  5  6  2  0
  6  7  1  0
  7  8  1  0
  8  9  1  0
  9 10  1  0
 10 11  2  0
 10 12  1  0
 12 13  2  0
 13 14  1  0
 14 15  2  0
 15 16  1  0
 16 17  2  0
 17 18  1  0
 18 19  2  0
 13 20  1  0
 20 21  2  0
 20 22  2  0
 20 23  1  0
 23 24  1  0
 24 25  1  0
  6 26  1  0
 26 27  2  0
 27 28  1  0
 28 29  1  0
 27  3  1  0
 25 12  1  0
 19 14  1  0
  1 30  1  0
  1 31  1  0
  1 32  1  0
  4 33  1  0
  5 34  1  0
  7 35  1  0
  7 36  1  0
  8 37  1  0
  8 38  1  0
  9 39  1  0
 15 40  1  0
 16 41  1  0
 17 42  1  0
 18 43  1  0
 19 44  1  0
 23 45  1  0
 23 46  1  0
 24 47  1  0
 24 48  1  0
 26 49  1  0
 29 50  1  0
 29 51  1  0
 29 52  1  0
M  END
$$$$
