
     RDKit          3D

 46 49  0  0  0  0  0  0  0  0999 V2000
    5.9413   -1.7512    1.1417 C   0  0  0  0  0  0  0  0  0  0  0  0
    6.4228   -1.1541   -0.1320 C   0  0  0  0  0  0  0  0  0  0  0  0
    7.6649   -1.1828   -0.5680 N   0  0  0  0  0  0  0  0  0  0  0  0
    7.6580   -0.5210   -1.7627 C   0  0  0  0  0  0  0  0  0  0  0  0
    6.3946   -0.0897   -2.0755 C   0  0  0  0  0  0  0  0  0  0  0  0
    5.6140   -0.5052   -1.0336 N   0  0  0  0  0  0  0  0  0  0  0  0
    4.1853   -0.2936   -0.9331 C   0  0  0  0  0  0  0  0  0  0  0  0
    3.8486    1.0949   -0.3943 C   0  0  0  0  0  0  0  0  0  0  0  0
    2.4206    1.2965   -0.2633 N   0  0  0  0  0  0  0  0  0  0  0  0
    1.7149    0.8779    0.8465 C   0  0  0  0  0  0  0  0  0  0  0  0
    2.2442    0.4145    1.8525 O   0  0  0  0  0  0  0  0  0  0  0  0
    0.2598    1.0159    0.6884 C   0  0  0  0  0  0  0  0  0  0  0  0
   -0.7377    0.8240    1.7048 C   0  0  0  0  0  0  0  0  0  0  0  0
   -1.9187    1.0482    1.0544 C   0  0  0  0  0  0  0  0  0  0  0  0
   -1.5977    1.3146   -0.2335 N   0  0  0  0  0  0  0  0  0  0  0  0
   -0.2986    1.3503   -0.5117 N   0  0  0  0  0  0  0  0  0  0  0  0
   -2.7241    1.5869   -1.1058 C   0  0  0  0  0  0  0  0  0  0  0  0
   -3.9145    1.1171   -0.2261 C   0  0  1  0  0  0  0  0  0  0  0  0
   -4.2734   -0.2110   -0.6428 O   0  0  0  0  0  0  0  0  0  0  0  0
   -5.5023   -0.6947   -0.2837 C   0  0  0  0  0  0  0  0  0  0  0  0
   -6.4637   -0.0267    0.4672 C   0  0  0  0  0  0  0  0  0  0  0  0
   -7.6600   -0.6748    0.7274 C   0  0  0  0  0  0  0  0  0  0  0  0
   -7.9448   -1.9239    0.3063 N   0  0  0  0  0  0  0  0  0  0  0  0
   -6.9920   -2.5551   -0.4099 C   0  0  0  0  0  0  0  0  0  0  0  0
   -5.7739   -1.9849   -0.7310 C   0  0  0  0  0  0  0  0  0  0  0  0
   -3.3805    1.0991    1.2470 C   0  0  0  0  0  0  0  0  0  0  0  0
    5.3357   -1.0425    1.7145 H   0  0  0  0  0  0  0  0  0  0  0  0
    5.3418   -2.6441    0.9369 H   0  0  0  0  0  0  0  0  0  0  0  0
    6.7905   -2.0508    1.7659 H   0  0  0  0  0  0  0  0  0  0  0  0
    8.5620   -0.3892   -2.3344 H   0  0  0  0  0  0  0  0  0  0  0  0
    6.0035    0.4531   -2.9275 H   0  0  0  0  0  0  0  0  0  0  0  0
    3.7599   -0.4258   -1.9355 H   0  0  0  0  0  0  0  0  0  0  0  0
    3.7622   -1.0817   -0.3071 H   0  0  0  0  0  0  0  0  0  0  0  0
    4.2222    1.8740   -1.0736 H   0  0  0  0  0  0  0  0  0  0  0  0
    4.3192    1.2483    0.5843 H   0  0  0  0  0  0  0  0  0  0  0  0
    1.8448    1.5607   -1.0629 H   0  0  0  0  0  0  0  0  0  0  0  0
   -0.5743    0.5665    2.7445 H   0  0  0  0  0  0  0  0  0  0  0  0
   -2.7400    2.6686   -1.2760 H   0  0  0  0  0  0  0  0  0  0  0  0
   -2.5995    1.0244   -2.0351 H   0  0  0  0  0  0  0  0  0  0  0  0
   -4.7573    1.8049   -0.3734 H   0  0  0  0  0  0  0  0  0  0  0  0
   -6.3281    0.9714    0.8558 H   0  0  0  0  0  0  0  0  0  0  0  0
   -8.4433   -0.1846    1.2966 H   0  0  0  0  0  0  0  0  0  0  0  0
   -7.2439   -3.5611   -0.7341 H   0  0  0  0  0  0  0  0  0  0  0  0
   -5.0473   -2.5368   -1.3130 H   0  0  0  0  0  0  0  0  0  0  0  0
   -3.6519    2.0309    1.7570 H   0  0  0  0  0  0  0  0  0  0  0  0
   -3.7431    0.2427    1.8232 H   0  0  0  0  0  0  0  0  0  0  0  0
  1  2  1  0
  2  3  2  0
  3  4  1  0
  4  5  2  0
  5  6  1  0
  6  7  1  0
  7  8  1  0
  8  9  1  0
  9 10  1  0
 10 11  2  0
 10 12  1  0
 12 13  1  0
 13 14  2  0
 14 15  1  0
 15 16  1  0
 15 17  1  0
 17 18  1  0
 18 19  1  0
 19 20  1  0
 20 21  2  0
 21 22  1  0
 22 23  2  0
 23 24  1  0
 24 25  2  0
 18 26  1  0
  6  2  1  0
 16 12  2  0
 25 20  1  0
 26 14  1  0
  1 27  1  0
  1 28  1  0
  1 29  1  0
  4 30  1  0
  5 31  1  0
  7 32  1  0
  7 33  1  0
  8 34  1  0
  8 35  1  0
  9 36  1  0
 13 37  1  0
 17 38  1  0
 17 39  1  0
 18 40  1  1
 21 41  1  0
 22 42  1  0
 24 43  1  0
 25 44  1  0
 26 45  1  0
 26 46  1  0
M  END
$$$$
