
     RDKit          3D

 42 43  0  0  0  0  0  0  0  0999 V2000
    7.4682    2.3215    0.1150 C   0  0  0  0  0  0  0  0  0  0  0  0
    6.9358    1.0185   -0.4217 C   0  0  0  0  0  0  0  0  0  0  0  0
    7.6811    0.2032   -0.9608 O   0  0  0  0  0  0  0  0  0  0  0  0
    5.4773    0.7245   -0.2904 C   0  0  0  0  0  0  0  0  0  0  0  0
    4.9904   -0.4878   -0.7913 C   0  0  0  0  0  0  0  0  0  0  0  0
    3.6304   -0.8085   -0.6918 C   0  0  0  0  0  0  0  0  0  0  0  0
    2.7358    0.0782   -0.0928 C   0  0  0  0  0  0  0  0  0  0  0  0
    1.3541   -0.1695    0.0525 N   0  0  0  0  0  0  0  0  0  0  0  0
    0.6433   -1.2538   -0.4318 C   0  0  0  0  0  0  0  0  0  0  0  0
    1.0753   -2.1576   -1.1362 O   0  0  0  0  0  0  0  0  0  0  0  0
   -0.8073   -1.2700   -0.0793 C   0  0  0  0  0  0  0  0  0  0  0  0
   -1.2808   -0.7707    1.1433 C   0  0  0  0  0  0  0  0  0  0  0  0
   -2.6478   -0.8120    1.4343 C   0  0  0  0  0  0  0  0  0  0  0  0
   -3.5397   -1.3523    0.5012 C   0  0  0  0  0  0  0  0  0  0  0  0
   -5.2781   -1.4488    0.8940 S   0  0  0  0  0  6  0  0  0  0  0  0
   -5.8211   -2.5771    0.1685 O   0  0  0  0  0  0  0  0  0  0  0  0
   -5.3962   -1.3567    2.3341 O   0  0  0  0  0  0  0  0  0  0  0  0
   -5.9049   -0.0206    0.2165 N   0  0  0  0  0  0  0  0  0  0  0  0
   -5.9561    0.0605   -1.2527 C   0  0  0  0  0  0  0  0  0  0  0  0
   -5.5289    1.2484    0.8598 C   0  0  0  0  0  0  0  0  0  0  0  0
   -3.0722   -1.8909   -0.7009 C   0  0  0  0  0  0  0  0  0  0  0  0
   -1.7066   -1.8443   -0.9901 C   0  0  0  0  0  0  0  0  0  0  0  0
    3.2257    1.2898    0.4120 C   0  0  0  0  0  0  0  0  0  0  0  0
    4.5853    1.6144    0.3146 C   0  0  0  0  0  0  0  0  0  0  0  0
    7.0001    3.1636   -0.4012 H   0  0  0  0  0  0  0  0  0  0  0  0
    8.5466    2.3707   -0.0658 H   0  0  0  0  0  0  0  0  0  0  0  0
    7.3030    2.3828    1.1938 H   0  0  0  0  0  0  0  0  0  0  0  0
    5.6662   -1.1988   -1.2648 H   0  0  0  0  0  0  0  0  0  0  0  0
    3.3082   -1.7655   -1.0915 H   0  0  0  0  0  0  0  0  0  0  0  0
    0.8253    0.5631    0.5053 H   0  0  0  0  0  0  0  0  0  0  0  0
   -0.5979   -0.3874    1.8972 H   0  0  0  0  0  0  0  0  0  0  0  0
   -3.0064   -0.4442    2.3941 H   0  0  0  0  0  0  0  0  0  0  0  0
   -4.9720    0.2943   -1.6681 H   0  0  0  0  0  0  0  0  0  0  0  0
   -6.3251   -0.8710   -1.6901 H   0  0  0  0  0  0  0  0  0  0  0  0
   -6.6544    0.8489   -1.5524 H   0  0  0  0  0  0  0  0  0  0  0  0
   -4.5097    1.5387    0.5899 H   0  0  0  0  0  0  0  0  0  0  0  0
   -5.6134    1.1820    1.9478 H   0  0  0  0  0  0  0  0  0  0  0  0
   -6.2116    2.0414    0.5372 H   0  0  0  0  0  0  0  0  0  0  0  0
   -3.7564   -2.3575   -1.4070 H   0  0  0  0  0  0  0  0  0  0  0  0
   -1.3400   -2.2684   -1.9243 H   0  0  0  0  0  0  0  0  0  0  0  0
    2.5575    2.0032    0.8883 H   0  0  0  0  0  0  0  0  0  0  0  0
    4.9170    2.5660    0.7190 H   0  0  0  0  0  0  0  0  0  0  0  0
  1  2  1  0
  2  3  2  0
  2  4  1  0
  4  5  2  0
  5  6  1  0
  6  7  2  0
  7  8  1  0
  8  9  1  0
  9 10  2  0
  9 11  1  0
 11 12  2  0
 12 13  1  0
 13 14  2  0
 14 15  1  0
 15 16  2  0
 15 17  2  0
 15 18  1  0
 18 19  1  0
 18 20  1  0
 14 21  1  0
 21 22  2  0
  7 23  1  0
 23 24  2  0
 24  4  1  0
 22 11  1  0
  1 25  1  0
  1 26  1  0
  1 27  1  0
  5 28  1  0
  6 29  1  0
  8 30  1  0
 12 31  1  0
 13 32  1  0
 19 33  1  0
 19 34  1  0
 19 35  1  0
 20 36  1  0
 20 37  1  0
 20 38  1  0
 21 39  1  0
 22 40  1  0
 23 41  1  0
 24 42  1  0
M  END
$$$$
