
     RDKit          3D

 16 15  0  0  0  0  0  0  0  0999 V2000
   -2.4615    0.8285    0.8518 N   0  0  0  0  0  0  0  0  0  0  0  0
   -1.5771    0.2393   -0.1452 C   0  0  0  0  0  0  0  0  0  0  0  0
   -0.1566    0.1413    0.4021 C   0  0  0  0  0  0  0  0  0  0  0  0
    0.7883   -0.4566   -0.6319 C   0  0  0  0  0  0  0  0  0  0  0  0
    2.1711   -0.5786   -0.0640 C   0  0  0  0  0  0  0  0  0  0  0  0
    2.5950   -1.5059    0.6049 O   0  0  0  0  0  0  0  0  0  0  0  0
    2.9442    0.4882   -0.3364 O   0  0  0  0  0  0  0  0  0  0  0  0
   -3.4152    0.8468    0.4922 H   0  0  0  0  0  0  0  0  0  0  0  0
   -2.4832    0.2420    1.6855 H   0  0  0  0  0  0  0  0  0  0  0  0
   -1.9485   -0.7545   -0.4186 H   0  0  0  0  0  0  0  0  0  0  0  0
   -1.5919    0.8609   -1.0469 H   0  0  0  0  0  0  0  0  0  0  0  0
   -0.1451   -0.4749    1.3107 H   0  0  0  0  0  0  0  0  0  0  0  0
    0.2029    1.1361    0.6960 H   0  0  0  0  0  0  0  0  0  0  0  0
    0.4605   -1.4562   -0.9394 H   0  0  0  0  0  0  0  0  0  0  0  0
    0.8230    0.1550   -1.5408 H   0  0  0  0  0  0  0  0  0  0  0  0
    3.7941    0.2887    0.1092 H   0  0  0  0  0  0  0  0  0  0  0  0
  1  2  1  0
  2  3  1  0
  3  4  1  0
  4  5  1  0
  5  6  2  0
  5  7  1  0
  1  8  1  0
  1  9  1  0
  2 10  1  0
  2 11  1  0
  3 12  1  0
  3 13  1  0
  4 14  1  0
  4 15  1  0
  7 16  1  0
M  END
$$$$
