
     RDKit          3D

 53 56  0  0  0  0  0  0  0  0999 V2000
    8.8808   -1.0657   -1.5738 C   0  0  0  0  0  0  0  0  0  0  0  0
    7.7725   -0.1032   -1.2248 C   0  0  0  0  0  0  0  0  0  0  0  0
    7.9874    1.1016   -1.1646 O   0  0  0  0  0  0  0  0  0  0  0  0
    6.5776   -0.7527   -0.9715 N   0  0  0  0  0  0  0  0  0  0  0  0
    5.3419   -0.1710   -0.6220 C   0  0  0  0  0  0  0  0  0  0  0  0
    4.2692   -1.0378   -0.3899 C   0  0  0  0  0  0  0  0  0  0  0  0
    3.0093   -0.5381   -0.0395 C   0  0  0  0  0  0  0  0  0  0  0  0
    2.7964    0.8385    0.0831 C   0  0  0  0  0  0  0  0  0  0  0  0
    1.5021    1.2577    0.4417 N   0  0  0  0  0  0  0  0  0  0  0  0
    1.0362    2.5484    0.6108 C   0  0  0  0  0  0  0  0  0  0  0  0
    1.6871    3.5783    0.4470 O   0  0  0  0  0  0  0  0  0  0  0  0
   -0.4459    2.6404    1.0091 C   0  0  0  0  0  0  0  0  0  0  0  0
   -1.0692    1.3653    1.3767 N   0  0  0  0  0  0  0  0  0  0  0  0
   -0.9499    0.9039    2.6907 C   0  0  0  0  0  0  0  0  0  0  0  0
   -1.4906   -0.2628    3.0825 C   0  0  0  0  0  0  0  0  0  0  0  0
   -2.2146   -1.0483    2.1494 C   0  0  0  0  0  0  0  0  0  0  0  0
   -2.8618   -2.2869    2.2767 C   0  0  0  0  0  0  0  0  0  0  0  0
   -3.4033   -2.5668    1.0393 C   0  0  0  0  0  0  0  0  0  0  0  0
   -3.1241   -1.5161    0.1853 N   0  0  0  0  0  0  0  0  0  0  0  0
   -3.5635   -1.4548   -1.2058 C   0  0  0  0  0  0  0  0  0  0  0  0
   -4.8749   -0.7223   -1.3506 C   0  0  0  0  0  0  0  0  0  0  0  0
   -6.0831   -1.3303   -0.9751 C   0  0  0  0  0  0  0  0  0  0  0  0
   -7.2944   -0.6490   -1.1093 C   0  0  0  0  0  0  0  0  0  0  0  0
   -7.3136    0.6466   -1.6204 C   0  0  0  0  0  0  0  0  0  0  0  0
   -6.1223    1.2619   -1.9976 C   0  0  0  0  0  0  0  0  0  0  0  0
   -4.9103    0.5821   -1.8642 C   0  0  0  0  0  0  0  0  0  0  0  0
   -2.3548   -0.5907    0.8534 C   0  0  0  0  0  0  0  0  0  0  0  0
   -1.7702    0.6481    0.3787 C   0  0  0  0  0  0  0  0  0  0  0  0
   -1.8190    1.0252   -0.7883 O   0  0  0  0  0  0  0  0  0  0  0  0
    3.8646    1.7021   -0.1500 C   0  0  0  0  0  0  0  0  0  0  0  0
    5.1281    1.2009   -0.4996 C   0  0  0  0  0  0  0  0  0  0  0  0
    9.3251   -1.4550   -0.6541 H   0  0  0  0  0  0  0  0  0  0  0  0
    9.6462   -0.5428   -2.1546 H   0  0  0  0  0  0  0  0  0  0  0  0
    8.5036   -1.8943   -2.1802 H   0  0  0  0  0  0  0  0  0  0  0  0
    6.5887   -1.7625   -1.0336 H   0  0  0  0  0  0  0  0  0  0  0  0
    4.3930   -2.1139   -0.4767 H   0  0  0  0  0  0  0  0  0  0  0  0
    2.2000   -1.2432    0.1324 H   0  0  0  0  0  0  0  0  0  0  0  0
    0.8185    0.5251    0.5899 H   0  0  0  0  0  0  0  0  0  0  0  0
   -0.5285    3.3276    1.8595 H   0  0  0  0  0  0  0  0  0  0  0  0
   -0.9843    3.0851    0.1649 H   0  0  0  0  0  0  0  0  0  0  0  0
   -0.3959    1.5265    3.3883 H   0  0  0  0  0  0  0  0  0  0  0  0
   -1.3866   -0.6047    4.1073 H   0  0  0  0  0  0  0  0  0  0  0  0
   -2.9348   -2.9136    3.1559 H   0  0  0  0  0  0  0  0  0  0  0  0
   -3.9813   -3.4168    0.7002 H   0  0  0  0  0  0  0  0  0  0  0  0
   -2.7667   -1.0030   -1.8042 H   0  0  0  0  0  0  0  0  0  0  0  0
   -3.6701   -2.4853   -1.5670 H   0  0  0  0  0  0  0  0  0  0  0  0
   -6.0900   -2.3400   -0.5712 H   0  0  0  0  0  0  0  0  0  0  0  0
   -8.2233   -1.1290   -0.8123 H   0  0  0  0  0  0  0  0  0  0  0  0
   -8.2561    1.1777   -1.7233 H   0  0  0  0  0  0  0  0  0  0  0  0
   -6.1341    2.2737   -2.3948 H   0  0  0  0  0  0  0  0  0  0  0  0
   -3.9909    1.0825   -2.1636 H   0  0  0  0  0  0  0  0  0  0  0  0
    3.7576    2.7797   -0.0707 H   0  0  0  0  0  0  0  0  0  0  0  0
    5.9222    1.9213   -0.6715 H   0  0  0  0  0  0  0  0  0  0  0  0
  1  2  1  0
  2  3  2  0
  2  4  1  0
  4  5  1  0
  5  6  2  0
  6  7  1  0
  7  8  2  0
  8  9  1  0
  9 10  1  0
 10 11  2  0
 10 12  1  0
 12 13  1  0
 13 14  1  0
 14 15  2  0
 15 16  1  0
 16 17  1  0
 17 18  2  0
 18 19  1  0
 19 20  1  0
 20 21  1  0
 21 22  2  0
 22 23  1  0
 23 24  2  0
 24 25  1  0
 25 26  2  0
 19 27  1  0
 27 28  1  0
 28 29  2  0
  8 30  1  0
 30 31  2  0
 31  5  1  0
 28 13  1  0
 27 16  2  0
 26 21  1  0
  1 32  1  0
  1 33  1  0
  1 34  1  0
  4 35  1  0
  6 36  1  0
  7 37  1  0
  9 38  1  0
 12 39  1  0
 12 40  1  0
 14 41  1  0
 15 42  1  0
 17 43  1  0
 18 44  1  0
 20 45  1  0
 20 46  1  0
 22 47  1  0
 23 48  1  0
 24 49  1  0
 25 50  1  0
 26 51  1  0
 30 52  1  0
 31 53  1  0
M  END
$$$$
