
     RDKit          3D

 16 16  0  0  0  0  0  0  0  0999 V2000
   -1.9397   -1.1860    0.3887 C   0  0  0  0  0  0  0  0  0  0  0  0
   -0.8350   -0.2229    0.0791 C   0  0  0  0  0  0  0  0  0  0  0  0
   -1.1073    1.1196   -0.1726 C   0  0  0  0  0  0  0  0  0  0  0  0
   -0.0427    1.9693   -0.4204 C   0  0  0  0  0  0  0  0  0  0  0  0
    1.2496    1.5785   -0.4244 N   0  0  0  0  0  0  0  0  0  0  0  0
    1.5088    0.2877   -0.1675 C   0  0  0  0  0  0  0  0  0  0  0  0
    2.8480   -0.1178   -0.1622 N   0  0  0  0  0  0  0  0  0  0  0  0
    0.5006   -0.6372    0.0927 C   0  0  0  0  0  0  0  0  0  0  0  0
   -2.1207   -1.2145    1.4676 H   0  0  0  0  0  0  0  0  0  0  0  0
   -2.8660   -0.8945   -0.1175 H   0  0  0  0  0  0  0  0  0  0  0  0
   -1.6857   -2.1944    0.0452 H   0  0  0  0  0  0  0  0  0  0  0  0
   -2.1218    1.5031   -0.1781 H   0  0  0  0  0  0  0  0  0  0  0  0
   -0.2036    3.0234   -0.6268 H   0  0  0  0  0  0  0  0  0  0  0  0
    2.9831   -0.8452   -0.8565 H   0  0  0  0  0  0  0  0  0  0  0  0
    3.0820   -0.4973    0.7491 H   0  0  0  0  0  0  0  0  0  0  0  0
    0.7503   -1.6716    0.3037 H   0  0  0  0  0  0  0  0  0  0  0  0
  1  2  1  0
  2  3  2  0
  3  4  1  0
  4  5  2  0
  5  6  1  0
  6  7  1  0
  6  8  2  0
  8  2  1  0
  1  9  1  0
  1 10  1  0
  1 11  1  0
  3 12  1  0
  4 13  1  0
  7 14  1  0
  7 15  1  0
  8 16  1  0
M  END
$$$$
