
     RDKit          3D

 56 58  0  0  0  0  0  0  0  0999 V2000
   -5.9857   -0.9743    1.4326 C   0  0  0  0  0  0  0  0  0  0  0  0
   -6.1067   -0.6270   -0.0538 C   0  0  0  0  0  0  0  0  0  0  0  0
   -7.5459   -0.2264   -0.3815 C   0  0  0  0  0  0  0  0  0  0  0  0
   -5.1442    0.5038   -0.4514 C   0  0  0  0  0  0  0  0  0  0  0  0
   -3.7504    0.1338   -0.2964 N   0  0  0  0  0  0  0  0  0  0  0  0
   -3.0893   -0.5963   -1.2637 C   0  0  0  0  0  0  0  0  0  0  0  0
   -3.6108   -0.9609   -2.3121 O   0  0  0  0  0  0  0  0  0  0  0  0
   -1.6766   -0.9704   -0.9669 C   0  0  0  0  0  0  0  0  0  0  0  0
   -1.1555   -2.1160   -1.5761 C   0  0  0  0  0  0  0  0  0  0  0  0
    0.1726   -2.4816   -1.3574 C   0  0  0  0  0  0  0  0  0  0  0  0
    0.9916   -1.7063   -0.5232 C   0  0  0  0  0  0  0  0  0  0  0  0
    2.4174   -2.1120   -0.3501 C   0  0  0  0  0  0  0  0  0  0  0  0
    2.8136   -3.1311   -0.9108 O   0  0  0  0  0  0  0  0  0  0  0  0
    3.2357   -1.3038    0.4319 N   0  0  0  0  0  0  0  0  0  0  0  0
    4.6507   -1.6389    0.5952 C   0  0  0  0  0  0  0  0  0  0  0  0
    5.5833   -0.7927   -0.2934 C   0  0  0  0  0  0  0  0  0  0  0  0
    7.0424   -1.0673    0.0791 C   0  0  0  0  0  0  0  0  0  0  0  0
    5.3670   -1.0673   -1.7835 C   0  0  0  0  0  0  0  0  0  0  0  0
    2.6896   -0.1904    1.0488 C   0  0  0  0  0  0  0  0  0  0  0  0
    3.3217    0.6721    1.8146 N   0  0  0  0  0  0  0  0  0  0  0  0
    2.4069    1.5816    2.2657 N   0  0  0  0  0  0  0  0  0  0  0  0
    1.2331    1.2499    1.7741 C   0  0  0  0  0  0  0  0  0  0  0  0
   -0.2186    2.0824    2.2173 S   0  0  0  0  0  0  0  0  0  0  0  0
    0.2643    3.7748    1.7575 C   0  0  0  0  0  0  0  0  0  0  0  0
    0.5643    3.8957    0.2696 C   0  0  0  0  0  0  0  0  0  0  0  0
    1.1712    5.0665   -0.1018 N   0  0  0  0  0  0  0  0  0  0  0  0
    0.2803    3.0552   -0.5803 O   0  0  0  0  0  0  0  0  0  0  0  0
    1.3558    0.1606    0.9342 N   0  0  0  0  0  0  0  0  0  0  0  0
    0.4703   -0.5636    0.1049 C   0  0  0  0  0  0  0  0  0  0  0  0
   -0.8569   -0.1855   -0.1391 C   0  0  0  0  0  0  0  0  0  0  0  0
   -6.7002   -1.7588    1.7073 H   0  0  0  0  0  0  0  0  0  0  0  0
   -6.1839   -0.0992    2.0616 H   0  0  0  0  0  0  0  0  0  0  0  0
   -4.9836   -1.3453    1.6722 H   0  0  0  0  0  0  0  0  0  0  0  0
   -5.8640   -1.5275   -0.6341 H   0  0  0  0  0  0  0  0  0  0  0  0
   -7.8414    0.6756    0.1652 H   0  0  0  0  0  0  0  0  0  0  0  0
   -8.2446   -1.0281   -0.1164 H   0  0  0  0  0  0  0  0  0  0  0  0
   -7.6589   -0.0265   -1.4521 H   0  0  0  0  0  0  0  0  0  0  0  0
   -5.3109    1.3952    0.1621 H   0  0  0  0  0  0  0  0  0  0  0  0
   -5.3097    0.7816   -1.4982 H   0  0  0  0  0  0  0  0  0  0  0  0
   -3.3352    0.2508    0.6170 H   0  0  0  0  0  0  0  0  0  0  0  0
   -1.7788   -2.7176   -2.2364 H   0  0  0  0  0  0  0  0  0  0  0  0
    0.5685   -3.3668   -1.8530 H   0  0  0  0  0  0  0  0  0  0  0  0
    4.9048   -1.4948    1.6543 H   0  0  0  0  0  0  0  0  0  0  0  0
    4.8025   -2.7057    0.3862 H   0  0  0  0  0  0  0  0  0  0  0  0
    5.3867    0.2725   -0.1147 H   0  0  0  0  0  0  0  0  0  0  0  0
    7.3110   -2.1132   -0.1065 H   0  0  0  0  0  0  0  0  0  0  0  0
    7.7182   -0.4350   -0.5062 H   0  0  0  0  0  0  0  0  0  0  0  0
    7.2211   -0.8533    1.1378 H   0  0  0  0  0  0  0  0  0  0  0  0
    5.5042   -2.1300   -2.0154 H   0  0  0  0  0  0  0  0  0  0  0  0
    6.0768   -0.4944   -2.3916 H   0  0  0  0  0  0  0  0  0  0  0  0
    4.3596   -0.7762   -2.0985 H   0  0  0  0  0  0  0  0  0  0  0  0
   -0.5644    4.4486    1.9955 H   0  0  0  0  0  0  0  0  0  0  0  0
    1.1379    4.0830    2.3412 H   0  0  0  0  0  0  0  0  0  0  0  0
    1.4779    5.1192   -1.0655 H   0  0  0  0  0  0  0  0  0  0  0  0
    1.6787    5.6379    0.5675 H   0  0  0  0  0  0  0  0  0  0  0  0
   -1.2630    0.7435    0.2369 H   0  0  0  0  0  0  0  0  0  0  0  0
  1  2  1  0
  2  3  1  0
  2  4  1  0
  4  5  1  0
  5  6  1  0
  6  7  2  0
  6  8  1  0
  8  9  2  0
  9 10  1  0
 10 11  2  0
 11 12  1  0
 12 13  2  0
 12 14  1  0
 14 15  1  0
 15 16  1  0
 16 17  1  0
 16 18  1  0
 14 19  1  0
 19 20  2  0
 20 21  1  0
 21 22  2  0
 22 23  1  0
 23 24  1  0
 24 25  1  0
 25 26  1  0
 25 27  2  0
 22 28  1  0
 28 29  1  0
 29 30  2  0
 30  8  1  0
 29 11  1  0
 28 19  1  0
  1 31  1  0
  1 32  1  0
  1 33  1  0
  2 34  1  0
  3 35  1  0
  3 36  1  0
  3 37  1  0
  4 38  1  0
  4 39  1  0
  5 40  1  0
  9 41  1  0
 10 42  1  0
 15 43  1  0
 15 44  1  0
 16 45  1  0
 17 46  1  0
 17 47  1  0
 17 48  1  0
 18 49  1  0
 18 50  1  0
 18 51  1  0
 24 52  1  0
 24 53  1  0
 26 54  1  0
 26 55  1  0
 30 56  1  0
M  END
$$$$
