
     RDKit          3D

 63 66  0  0  0  0  0  0  0  0999 V2000
    4.8601    3.5696   -1.2373 C   0  0  0  0  0  0  0  0  0  0  0  0
    4.7035    2.0908   -1.4309 C   0  0  0  0  0  0  0  0  0  0  0  0
    4.9493    1.5192   -2.6570 C   0  0  0  0  0  0  0  0  0  0  0  0
    4.7639    0.1615   -2.7224 C   0  0  0  0  0  0  0  0  0  0  0  0
    4.3622   -0.5880   -1.6792 N   0  0  0  0  0  0  0  0  0  0  0  0
    4.1365    0.0367   -0.5102 C   0  0  0  0  0  0  0  0  0  0  0  0
    3.6433   -0.7164    0.5613 N   0  0  0  0  0  0  0  0  0  0  0  0
    3.6801   -0.0681    1.8668 C   0  0  0  0  0  0  0  0  0  0  0  0
    2.6320   -0.7368    2.7673 C   0  0  0  0  0  0  0  0  0  0  0  0
    2.6008   -2.2685    2.6173 C   0  0  0  0  0  0  0  0  0  0  0  0
    1.3151   -2.7552    1.9588 C   0  0  0  0  0  0  0  0  0  0  0  0
    0.6453   -3.6573    2.4549 O   0  0  0  0  0  0  0  0  0  0  0  0
    0.9931   -2.1599    0.7623 N   0  0  0  0  0  0  0  0  0  0  0  0
   -0.1887   -2.5398    0.0173 C   0  0  0  0  0  0  0  0  0  0  0  0
   -1.4529   -1.8267    0.5256 C   0  0  0  0  0  0  0  0  0  0  0  0
   -2.7220   -2.4692   -0.0603 C   0  0  0  0  0  0  0  0  0  0  0  0
   -3.3350   -1.6138   -1.1637 C   0  0  0  0  0  0  0  0  0  0  0  0
   -3.7696   -0.3160   -0.6389 N   0  0  0  0  0  0  0  0  0  0  0  0
   -4.2565    0.5399   -1.7391 C   0  0  0  0  0  0  0  0  0  0  0  0
   -5.0007    1.7748   -1.2819 C   0  0  0  0  0  0  0  0  0  0  0  0
   -5.9725    1.7193   -0.2710 C   0  0  0  0  0  0  0  0  0  0  0  0
   -6.6730    2.8687    0.1080 C   0  0  0  0  0  0  0  0  0  0  0  0
   -6.4170    4.0872   -0.5254 C   0  0  0  0  0  0  0  0  0  0  0  0
   -5.4527    4.1557   -1.5261 C   0  0  0  0  0  0  0  0  0  0  0  0
   -4.7623    3.0047   -1.9002 C   0  0  0  0  0  0  0  0  0  0  0  0
   -3.8624    3.0930   -2.8919 F   0  0  0  0  0  0  0  0  0  0  0  0
   -2.7629    0.3428    0.2145 C   0  0  0  0  0  0  0  0  0  0  0  0
   -1.3856   -0.3211    0.2159 C   0  0  0  0  0  0  0  0  0  0  0  0
    3.8208   -2.8140    1.8688 C   0  0  0  0  0  0  0  0  0  0  0  0
    4.0648   -2.1245    0.5227 C   0  0  0  0  0  0  0  0  0  0  0  0
    4.3010    1.3644   -0.3651 N   0  0  0  0  0  0  0  0  0  0  0  0
    5.9049    3.8687   -1.3980 H   0  0  0  0  0  0  0  0  0  0  0  0
    4.2108    4.1082   -1.9353 H   0  0  0  0  0  0  0  0  0  0  0  0
    4.5697    3.8572   -0.2197 H   0  0  0  0  0  0  0  0  0  0  0  0
    5.2620    2.0938   -3.5161 H   0  0  0  0  0  0  0  0  0  0  0  0
    4.9353   -0.3816   -3.6458 H   0  0  0  0  0  0  0  0  0  0  0  0
    4.6798   -0.1572    2.3181 H   0  0  0  0  0  0  0  0  0  0  0  0
    3.4314    1.0011    1.8256 H   0  0  0  0  0  0  0  0  0  0  0  0
    1.6409   -0.3082    2.5407 H   0  0  0  0  0  0  0  0  0  0  0  0
    2.8443   -0.4647    3.8162 H   0  0  0  0  0  0  0  0  0  0  0  0
    2.5981   -2.6991    3.6271 H   0  0  0  0  0  0  0  0  0  0  0  0
    1.5956   -1.4243    0.3919 H   0  0  0  0  0  0  0  0  0  0  0  0
   -0.0056   -2.3143   -1.0399 H   0  0  0  0  0  0  0  0  0  0  0  0
   -0.3049   -3.6257    0.1038 H   0  0  0  0  0  0  0  0  0  0  0  0
   -1.5016   -1.9534    1.6183 H   0  0  0  0  0  0  0  0  0  0  0  0
   -3.4579   -2.5972    0.7447 H   0  0  0  0  0  0  0  0  0  0  0  0
   -2.5187   -3.4766   -0.4425 H   0  0  0  0  0  0  0  0  0  0  0  0
   -2.6117   -1.4883   -1.9771 H   0  0  0  0  0  0  0  0  0  0  0  0
   -4.1969   -2.1456   -1.5822 H   0  0  0  0  0  0  0  0  0  0  0  0
   -3.4203    0.8090   -2.4011 H   0  0  0  0  0  0  0  0  0  0  0  0
   -4.9702   -0.0350   -2.3520 H   0  0  0  0  0  0  0  0  0  0  0  0
   -6.1720    0.7774    0.2394 H   0  0  0  0  0  0  0  0  0  0  0  0
   -7.4163    2.8108    0.9009 H   0  0  0  0  0  0  0  0  0  0  0  0
   -6.9605    4.9811   -0.2287 H   0  0  0  0  0  0  0  0  0  0  0  0
   -5.2299    5.0941   -2.0218 H   0  0  0  0  0  0  0  0  0  0  0  0
   -2.6298    1.4039   -0.0434 H   0  0  0  0  0  0  0  0  0  0  0  0
   -3.1463    0.3330    1.2446 H   0  0  0  0  0  0  0  0  0  0  0  0
   -0.7556    0.1700    0.9640 H   0  0  0  0  0  0  0  0  0  0  0  0
   -0.9035   -0.1443   -0.7501 H   0  0  0  0  0  0  0  0  0  0  0  0
    4.7057   -2.6655    2.5054 H   0  0  0  0  0  0  0  0  0  0  0  0
    3.7372   -3.8974    1.7060 H   0  0  0  0  0  0  0  0  0  0  0  0
    5.1330   -2.2302    0.2747 H   0  0  0  0  0  0  0  0  0  0  0  0
    3.4950   -2.6528   -0.2559 H   0  0  0  0  0  0  0  0  0  0  0  0
  1  2  1  0
  2  3  2  0
  3  4  1  0
  4  5  2  0
  5  6  1  0
  6  7  1  0
  7  8  1  0
  8  9  1  0
  9 10  1  0
 10 11  1  0
 11 12  2  0
 11 13  1  0
 13 14  1  0
 14 15  1  0
 15 16  1  0
 16 17  1  0
 17 18  1  0
 18 19  1  0
 19 20  1  0
 20 21  2  0
 21 22  1  0
 22 23  2  0
 23 24  1  0
 24 25  2  0
 25 26  1  0
 18 27  1  0
 27 28  1  0
 10 29  1  0
 29 30  1  0
  6 31  2  0
 31  2  1  0
 30  7  1  0
 28 15  1  0
 25 20  1  0
  1 32  1  0
  1 33  1  0
  1 34  1  0
  3 35  1  0
  4 36  1  0
  8 37  1  0
  8 38  1  0
  9 39  1  0
  9 40  1  0
 10 41  1  0
 13 42  1  0
 14 43  1  0
 14 44  1  0
 15 45  1  0
 16 46  1  0
 16 47  1  0
 17 48  1  0
 17 49  1  0
 19 50  1  0
 19 51  1  0
 21 52  1  0
 22 53  1  0
 23 54  1  0
 24 55  1  0
 27 56  1  0
 27 57  1  0
 28 58  1  0
 28 59  1  0
 29 60  1  0
 29 61  1  0
 30 62  1  0
 30 63  1  0
M  END
$$$$
