
     RDKit          3D

 49 52  0  0  0  0  0  0  0  0999 V2000
    7.8380    0.5758   -0.0697 C   0  0  0  0  0  0  0  0  0  0  0  0
    6.8898   -0.6472    0.8054 S   0  0  0  0  0  6  0  0  0  0  0  0
    7.7434   -1.2198    1.8246 O   0  0  0  0  0  0  0  0  0  0  0  0
    6.1930   -1.4774   -0.1509 O   0  0  0  0  0  0  0  0  0  0  0  0
    5.7940    0.3356    1.6456 N   0  0  0  0  0  0  0  0  0  0  0  0
    4.4517    0.3579    1.1699 C   0  0  0  0  0  0  0  0  0  0  0  0
    3.5105   -0.5168    1.7118 C   0  0  0  0  0  0  0  0  0  0  0  0
    2.2022   -0.5309    1.2179 C   0  0  0  0  0  0  0  0  0  0  0  0
    1.8392    0.3238    0.1714 C   0  0  0  0  0  0  0  0  0  0  0  0
    0.4620    0.3404   -0.3763 C   0  0  0  0  0  0  0  0  0  0  0  0
    0.0949    1.1429   -1.3271 N   0  0  0  0  0  0  0  0  0  0  0  0
   -1.3554    0.8849   -1.5598 N   0  0  0  0  0  0  0  0  0  0  0  0
   -1.9675    1.0831   -3.1428 S   0  0  0  0  0  6  0  0  0  0  0  0
   -0.8749    0.0287   -4.0737 C   0  0  0  0  0  0  0  0  0  0  0  0
   -3.2933    0.5005   -3.2035 O   0  0  0  0  0  0  0  0  0  0  0  0
   -1.7281    2.4454   -3.5729 O   0  0  0  0  0  0  0  0  0  0  0  0
   -1.7898   -0.3102   -0.7972 C   0  0  0  0  0  0  0  0  0  0  0  0
   -3.0713   -0.1107   -0.0157 C   0  0  0  0  0  0  0  0  0  0  0  0
   -3.3782    1.1084    0.5952 C   0  0  0  0  0  0  0  0  0  0  0  0
   -4.5555    1.2514    1.3315 C   0  0  0  0  0  0  0  0  0  0  0  0
   -5.4460    0.1985    1.4817 C   0  0  0  0  0  0  0  0  0  0  0  0
   -6.5698    0.3712    2.2071 N   0  0  0  0  0  0  0  0  0  0  0  0
   -7.3896   -0.6959    2.3072 C   0  0  0  0  0  0  0  0  0  0  0  0
   -7.0970   -1.9037    1.7129 C   0  0  0  0  0  0  0  0  0  0  0  0
   -5.9728   -2.1014    0.9914 N   0  0  0  0  0  0  0  0  0  0  0  0
   -5.1474   -1.0434    0.8703 C   0  0  0  0  0  0  0  0  0  0  0  0
   -3.9733   -1.1749    0.1380 C   0  0  0  0  0  0  0  0  0  0  0  0
   -0.6098   -0.5809    0.1467 C   0  0  0  0  0  0  0  0  0  0  0  0
    2.7954    1.1891   -0.3753 C   0  0  0  0  0  0  0  0  0  0  0  0
    4.1022    1.1999    0.1182 C   0  0  0  0  0  0  0  0  0  0  0  0
    8.2191    1.3076    0.6454 H   0  0  0  0  0  0  0  0  0  0  0  0
    7.2031    1.0507   -0.8189 H   0  0  0  0  0  0  0  0  0  0  0  0
    8.6733    0.0698   -0.5577 H   0  0  0  0  0  0  0  0  0  0  0  0
    5.8949    0.1450    2.6460 H   0  0  0  0  0  0  0  0  0  0  0  0
    3.7869   -1.2008    2.5113 H   0  0  0  0  0  0  0  0  0  0  0  0
    1.4913   -1.2181    1.6676 H   0  0  0  0  0  0  0  0  0  0  0  0
   -0.9458   -0.9915   -3.6938 H   0  0  0  0  0  0  0  0  0  0  0  0
    0.1450    0.4075   -3.9984 H   0  0  0  0  0  0  0  0  0  0  0  0
   -1.1977    0.0534   -5.1167 H   0  0  0  0  0  0  0  0  0  0  0  0
   -1.8946   -1.1609   -1.4814 H   0  0  0  0  0  0  0  0  0  0  0  0
   -2.7097    1.9625    0.4986 H   0  0  0  0  0  0  0  0  0  0  0  0
   -4.7855    2.2065    1.7981 H   0  0  0  0  0  0  0  0  0  0  0  0
   -8.2959   -0.5480    2.8828 H   0  0  0  0  0  0  0  0  0  0  0  0
   -7.7643   -2.7522    1.7961 H   0  0  0  0  0  0  0  0  0  0  0  0
   -3.7694   -2.1370   -0.3250 H   0  0  0  0  0  0  0  0  0  0  0  0
   -0.8215   -0.3349    1.1926 H   0  0  0  0  0  0  0  0  0  0  0  0
   -0.2900   -1.6252    0.0776 H   0  0  0  0  0  0  0  0  0  0  0  0
    2.5330    1.8644   -1.1895 H   0  0  0  0  0  0  0  0  0  0  0  0
    4.8311    1.8770   -0.3166 H   0  0  0  0  0  0  0  0  0  0  0  0
  1  2  1  0
  2  3  2  0
  2  4  2  0
  2  5  1  0
  5  6  1  0
  6  7  2  0
  7  8  1  0
  8  9  2  0
  9 10  1  0
 10 11  2  0
 11 12  1  0
 12 13  1  0
 13 14  1  0
 13 15  2  0
 13 16  2  0
 12 17  1  0
 17 18  1  0
 18 19  2  0
 19 20  1  0
 20 21  2  0
 21 22  1  0
 22 23  2  0
 23 24  1  0
 24 25  2  0
 25 26  1  0
 26 27  2  0
 17 28  1  0
  9 29  1  0
 29 30  2  0
 30  6  1  0
 28 10  1  0
 27 18  1  0
 26 21  1  0
  1 31  1  0
  1 32  1  0
  1 33  1  0
  5 34  1  0
  7 35  1  0
  8 36  1  0
 14 37  1  0
 14 38  1  0
 14 39  1  0
 17 40  1  0
 19 41  1  0
 20 42  1  0
 23 43  1  0
 24 44  1  0
 27 45  1  0
 28 46  1  0
 28 47  1  0
 29 48  1  0
 30 49  1  0
M  END
$$$$
