
     RDKit          3D

 34 33  0  0  0  0  0  0  0  0999 V2000
    5.8270    0.4395   -0.5693 C   0  0  0  0  0  0  0  0  0  0  0  0
    4.8398   -0.2271   -0.7198 C   0  0  0  0  0  0  0  0  0  0  0  0
    3.6119   -1.0497   -0.8810 C   0  0  0  0  0  0  0  0  0  0  0  0
    2.7630   -0.7601    0.1953 N   0  0  0  0  0  0  0  0  0  0  0  0
    3.1456   -1.1643    1.4789 C   0  0  0  0  0  0  0  0  0  0  0  0
    1.4997   -0.2094   -0.0191 C   0  0  0  0  0  0  0  0  0  0  0  0
    0.5189   -1.1383   -0.6970 C   0  0  0  0  0  0  0  0  0  0  0  0
   -0.8275   -0.4878   -0.8960 C   0  0  0  0  0  0  0  0  0  0  0  0
   -1.4265   -0.0989    0.3005 O   0  0  0  0  0  0  0  0  0  0  0  0
   -2.6552    0.5024    0.3086 C   0  0  0  0  0  0  0  0  0  0  0  0
   -3.3679    0.7569   -0.8362 C   0  0  0  0  0  0  0  0  0  0  0  0
   -4.6147    1.3681   -0.8005 C   0  0  0  0  0  0  0  0  0  0  0  0
   -5.1668    1.7353    0.3927 C   0  0  0  0  0  0  0  0  0  0  0  0
   -6.7325    2.5042    0.4376 Cl  0  0  0  0  0  0  0  0  0  0  0  0
   -4.4449    1.4775    1.5503 C   0  0  0  0  0  0  0  0  0  0  0  0
   -3.2086    0.8719    1.5273 C   0  0  0  0  0  0  0  0  0  0  0  0
   -2.3259    0.5607    3.0129 Cl  0  0  0  0  0  0  0  0  0  0  0  0
    0.6884    0.0000    0.0000 Cl  0  0  0  0  0  0  0  0  0  0  0  0
    6.7177    1.0301   -0.4175 H   0  0  0  0  0  0  0  0  0  0  0  0
    3.1166   -0.7000   -1.8308 H   0  0  0  0  0  0  0  0  0  0  0  0
    3.8645   -2.1142   -1.0624 H   0  0  0  0  0  0  0  0  0  0  0  0
    3.9746   -0.4910    1.8429 H   0  0  0  0  0  0  0  0  0  0  0  0
    2.3607   -1.1733    2.2451 H   0  0  0  0  0  0  0  0  0  0  0  0
    3.6056   -2.1959    1.5174 H   0  0  0  0  0  0  0  0  0  0  0  0
    1.1067    0.2373    0.9148 H   0  0  0  0  0  0  0  0  0  0  0  0
    1.6121    0.6582   -0.7388 H   0  0  0  0  0  0  0  0  0  0  0  0
    0.3715   -2.0129   -0.0311 H   0  0  0  0  0  0  0  0  0  0  0  0
    0.9628   -1.4669   -1.6519 H   0  0  0  0  0  0  0  0  0  0  0  0
   -0.6323    0.4674   -1.4673 H   0  0  0  0  0  0  0  0  0  0  0  0
   -1.4848   -1.1297   -1.4818 H   0  0  0  0  0  0  0  0  0  0  0  0
   -2.9805    0.4888   -1.8087 H   0  0  0  0  0  0  0  0  0  0  0  0
   -5.1428    1.5502   -1.7166 H   0  0  0  0  0  0  0  0  0  0  0  0
   -4.8879    1.7711    2.4996 H   0  0  0  0  0  0  0  0  0  0  0  0
   -0.6884    0.0000    0.0000 H   0  0  0  0  0  0  0  0  0  0  0  0
  1  2  3  0
  2  3  1  0
  3  4  1  0
  4  5  1  0
  4  6  1  0
  6  7  1  0
  7  8  1  0
  8  9  1  0
  9 10  1  0
 10 11  2  0
 11 12  1  0
 12 13  2  0
 13 14  1  0
 13 15  1  0
 15 16  2  0
 16 17  1  0
 16 10  1  0
  1 19  1  0
  3 20  1  0
  3 21  1  0
  5 22  1  0
  5 23  1  0
  5 24  1  0
  6 25  1  0
  6 26  1  0
  7 27  1  0
  7 28  1  0
  8 29  1  0
  8 30  1  0
 11 31  1  0
 12 32  1  0
 15 33  1  0
 18 34  1  0
M  END
$$$$
