
     RDKit          3D

 84 86  0  0  0  0  0  0  0  0999 V2000
   -2.1673    0.1602   -3.8153 C   0  0  0  0  0  0  0  0  0  0  0  0
   -1.6221   -1.0402   -3.0420 C   0  0  0  0  0  0  0  0  0  0  0  0
   -0.0976   -1.0122   -3.0002 C   0  0  0  0  0  0  0  0  0  0  0  0
   -2.2650   -1.1936   -1.6537 C   0  0  0  0  0  0  0  0  0  0  0  0
   -2.0597    0.0073   -0.7688 N   0  0  0  0  0  0  0  0  0  0  0  0
   -1.0255   -0.2515    0.2883 C   0  0  0  0  0  0  0  0  0  0  0  0
   -0.3586    0.9741    0.9531 C   0  0  1  0  0  0  0  0  0  0  0  0
    0.1519    0.4849    2.2187 O   0  0  0  0  0  0  0  0  0  0  0  0
    0.7906    1.6562    0.1481 C   0  0  2  0  0  0  0  0  0  0  0  0
    0.3330    2.4011   -1.1212 C   0  0  0  0  0  0  0  0  0  0  0  0
    0.0256    3.8591   -0.8671 C   0  0  0  0  0  0  0  0  0  0  0  0
   -1.2937    4.3271   -0.8736 C   0  0  0  0  0  0  0  0  0  0  0  0
   -1.5694    5.6725   -0.6216 C   0  0  0  0  0  0  0  0  0  0  0  0
   -0.5297    6.5644   -0.3672 C   0  0  0  0  0  0  0  0  0  0  0  0
    0.7884    6.1126   -0.3658 C   0  0  0  0  0  0  0  0  0  0  0  0
    1.0657    4.7678   -0.6157 C   0  0  0  0  0  0  0  0  0  0  0  0
    1.8830    0.7263   -0.1521 N   0  0  0  0  0  0  0  0  0  0  0  0
    2.8405    0.4053    0.7602 C   0  0  0  0  0  0  0  0  0  0  0  0
    2.9486    0.9052    1.8700 O   0  0  0  0  0  0  0  0  0  0  0  0
    3.6426   -0.5571    0.2491 O   0  0  0  0  0  0  0  0  0  0  0  0
    4.7031   -0.9713    1.1119 C   0  0  1  0  0  0  0  0  0  0  0  0
    4.2487   -1.7999    2.3070 C   0  0  0  0  0  0  0  0  0  0  0  0
    5.3135   -2.7087    2.6202 O   0  0  0  0  0  0  0  0  0  0  0  0
    6.2578   -2.6990    1.5437 C   0  0  1  0  0  0  0  0  0  0  0  0
    6.5177   -4.0209    1.0730 O   0  0  0  0  0  0  0  0  0  0  0  0
    5.9643   -4.1590   -0.2398 C   0  0  0  0  0  0  0  0  0  0  0  0
    4.9954   -3.0133   -0.4310 C   0  0  0  0  0  0  0  0  0  0  0  0
    5.6373   -1.9218    0.4036 C   0  0  1  0  0  0  0  0  0  0  0  0
   -3.5393    0.7462   -0.2582 S   0  0  0  0  0  6  0  0  0  0  0  0
   -3.2361    1.9037    0.5528 O   0  0  0  0  0  0  0  0  0  0  0  0
   -4.3801    0.8853   -1.4301 O   0  0  0  0  0  0  0  0  0  0  0  0
   -4.2970   -0.4637    0.8069 C   0  0  0  0  0  0  0  0  0  0  0  0
   -3.9586   -0.5015    2.1616 C   0  0  0  0  0  0  0  0  0  0  0  0
   -4.5669   -1.4417    2.9976 C   0  0  0  0  0  0  0  0  0  0  0  0
   -5.5613   -2.2957    2.5110 C   0  0  0  0  0  0  0  0  0  0  0  0
   -6.0760   -3.3124    3.3219 N   0  0  0  0  0  0  0  0  0  0  0  0
   -5.8774   -2.2571    1.1491 C   0  0  0  0  0  0  0  0  0  0  0  0
   -5.2714   -1.3269    0.3001 C   0  0  0  0  0  0  0  0  0  0  0  0
    0.8961    0.0563   -0.1006 C   0  0  0  0  0  0  0  0  0  0  0  0
   -0.5215   -0.4544    0.0548 C   0  0  0  0  0  0  0  0  0  0  0  0
   -1.4470    0.5632   -0.2977 O   0  0  0  0  0  0  0  0  0  0  0  0
   -1.9176    1.1079   -3.3288 H   0  0  0  0  0  0  0  0  0  0  0  0
   -1.7525    0.1856   -4.8289 H   0  0  0  0  0  0  0  0  0  0  0  0
   -3.2564    0.0997   -3.9087 H   0  0  0  0  0  0  0  0  0  0  0  0
   -1.9007   -1.9398   -3.6090 H   0  0  0  0  0  0  0  0  0  0  0  0
    0.2958   -1.8558   -2.4224 H   0  0  0  0  0  0  0  0  0  0  0  0
    0.3146   -1.0841   -4.0132 H   0  0  0  0  0  0  0  0  0  0  0  0
    0.2763   -0.0859   -2.5609 H   0  0  0  0  0  0  0  0  0  0  0  0
   -3.3314   -1.3879   -1.8072 H   0  0  0  0  0  0  0  0  0  0  0  0
   -1.8790   -2.0942   -1.1593 H   0  0  0  0  0  0  0  0  0  0  0  0
   -0.2316   -0.8775   -0.1392 H   0  0  0  0  0  0  0  0  0  0  0  0
   -1.4706   -0.8937    1.0582 H   0  0  0  0  0  0  0  0  0  0  0  0
   -1.0812    1.7418    1.2239 H   0  0  0  0  0  0  0  0  0  0  0  0
    0.9285    1.0279    2.4716 H   0  0  0  0  0  0  0  0  0  0  0  0
    1.2414    2.3900    0.8300 H   0  0  0  0  0  0  0  0  0  0  0  0
   -0.5293    1.9151   -1.5828 H   0  0  0  0  0  0  0  0  0  0  0  0
    1.1230    2.3708   -1.8854 H   0  0  0  0  0  0  0  0  0  0  0  0
   -2.1224    3.6509   -1.0706 H   0  0  0  0  0  0  0  0  0  0  0  0
   -2.5996    6.0214   -0.6226 H   0  0  0  0  0  0  0  0  0  0  0  0
   -0.7475    7.6107   -0.1705 H   0  0  0  0  0  0  0  0  0  0  0  0
    1.6007    6.8072   -0.1673 H   0  0  0  0  0  0  0  0  0  0  0  0
    2.1010    4.4325   -0.6088 H   0  0  0  0  0  0  0  0  0  0  0  0
    1.8537    0.1468   -0.9806 H   0  0  0  0  0  0  0  0  0  0  0  0
    5.2815   -0.0992    1.4473 H   0  0  0  0  0  0  0  0  0  0  0  0
    4.0417   -1.1801    3.1847 H   0  0  0  0  0  0  0  0  0  0  0  0
    3.3455   -2.3802    2.0890 H   0  0  0  0  0  0  0  0  0  0  0  0
    7.1887   -2.2489    1.9057 H   0  0  0  0  0  0  0  0  0  0  0  0
    6.7881   -4.1047   -0.9615 H   0  0  0  0  0  0  0  0  0  0  0  0
    5.4832   -5.1367   -0.3367 H   0  0  0  0  0  0  0  0  0  0  0  0
    4.0099   -3.2972   -0.0429 H   0  0  0  0  0  0  0  0  0  0  0  0
    4.8698   -2.7379   -1.4829 H   0  0  0  0  0  0  0  0  0  0  0  0
    6.3917   -1.4036   -0.1996 H   0  0  0  0  0  0  0  0  0  0  0  0
   -3.2173    0.1809    2.5729 H   0  0  0  0  0  0  0  0  0  0  0  0
   -4.2625   -1.4928    4.0406 H   0  0  0  0  0  0  0  0  0  0  0  0
   -6.0311   -3.1133    4.3150 H   0  0  0  0  0  0  0  0  0  0  0  0
   -6.9923   -3.6449    3.0367 H   0  0  0  0  0  0  0  0  0  0  0  0
   -6.6066   -2.9519    0.7379 H   0  0  0  0  0  0  0  0  0  0  0  0
   -5.5606   -1.2907   -0.7483 H   0  0  0  0  0  0  0  0  0  0  0  0
    1.0739    0.3959   -1.1265 H   0  0  0  0  0  0  0  0  0  0  0  0
    1.6205   -0.7256    0.1452 H   0  0  0  0  0  0  0  0  0  0  0  0
    1.0714    0.9174    0.5539 H   0  0  0  0  0  0  0  0  0  0  0  0
   -0.6934   -1.3122   -0.6021 H   0  0  0  0  0  0  0  0  0  0  0  0
   -0.7158   -0.7642    1.0864 H   0  0  0  0  0  0  0  0  0  0  0  0
   -1.2842    1.3236    0.2866 H   0  0  0  0  0  0  0  0  0  0  0  0
  1  2  1  0
  2  3  1  0
  2  4  1  0
  4  5  1  0
  5  6  1  0
  6  7  1  0
  7  8  1  0
  7  9  1  0
  9 10  1  0
 10 11  1  0
 11 12  2  0
 12 13  1  0
 13 14  2  0
 14 15  1  0
 15 16  2  0
  9 17  1  0
 17 18  1  0
 18 19  2  0
 18 20  1  0
 20 21  1  0
 21 22  1  0
 22 23  1  0
 23 24  1  0
 24 25  1  0
 25 26  1  0
 26 27  1  0
 27 28  1  0
  5 29  1  0
 29 30  2  0
 29 31  2  0
 29 32  1  0
 32 33  2  0
 33 34  1  0
 34 35  2  0
 35 36  1  0
 35 37  1  0
 37 38  2  0
 39 40  1  0
 40 41  1  0
 16 11  1  0
 28 21  1  0
 38 32  1  0
 28 24  1  0
  1 42  1  0
  1 43  1  0
  1 44  1  0
  2 45  1  0
  3 46  1  0
  3 47  1  0
  3 48  1  0
  4 49  1  0
  4 50  1  0
  6 51  1  0
  6 52  1  0
  7 53  1  1
  8 54  1  0
  9 55  1  1
 10 56  1  0
 10 57  1  0
 12 58  1  0
 13 59  1  0
 14 60  1  0
 15 61  1  0
 16 62  1  0
 17 63  1  0
 21 64  1  1
 22 65  1  0
 22 66  1  0
 24 67  1  1
 26 68  1  0
 26 69  1  0
 27 70  1  0
 27 71  1  0
 28 72  1  6
 33 73  1  0
 34 74  1  0
 36 75  1  0
 36 76  1  0
 37 77  1  0
 38 78  1  0
 39 79  1  0
 39 80  1  0
 39 81  1  0
 40 82  1  0
 40 83  1  0
 41 84  1  0
M  END
$$$$
