
     RDKit          3D

 34 35  0  0  0  0  0  0  0  0999 V2000
    2.5286   -1.7485   -2.2491 O   0  0  0  0  0  0  0  0  0  0  0  0
    2.9755   -1.9447   -0.8872 S   0  0  0  0  0  6  0  0  0  0  0  0
    4.1096   -2.7982   -0.5979 O   0  0  0  0  0  0  0  0  0  0  0  0
    1.6788   -2.5707    0.0253 N   0  0  0  0  0  0  0  0  0  0  0  0
    0.4735   -1.8068    0.0024 C   0  0  0  0  0  0  0  0  0  0  0  0
    0.2142   -0.9320    1.0531 C   0  0  0  0  0  0  0  0  0  0  0  0
   -0.9325   -0.1300    1.0376 C   0  0  0  0  0  0  0  0  0  0  0  0
   -1.8385   -0.1862   -0.0350 C   0  0  0  0  0  0  0  0  0  0  0  0
   -3.1076    0.6821   -0.1145 C   0  0  0  0  0  0  0  0  0  0  0  0
   -4.1811   -0.2330   -0.5093 O   0  0  0  0  0  0  0  0  0  0  0  0
   -3.5057    1.3967    1.1832 C   0  0  0  0  0  0  0  0  0  0  0  0
   -4.6839    2.0508    1.0774 F   0  0  0  0  0  0  0  0  0  0  0  0
   -3.6731    0.4853    2.1808 F   0  0  0  0  0  0  0  0  0  0  0  0
   -2.5878    2.2866    1.6160 F   0  0  0  0  0  0  0  0  0  0  0  0
   -2.9372    1.8213   -1.1291 C   0  0  0  0  0  0  0  0  0  0  0  0
   -1.9274    2.6574   -0.7905 F   0  0  0  0  0  0  0  0  0  0  0  0
   -2.6544    1.3536   -2.3713 F   0  0  0  0  0  0  0  0  0  0  0  0
   -4.0530    2.5765   -1.2518 F   0  0  0  0  0  0  0  0  0  0  0  0
   -1.5477   -1.0780   -1.0897 C   0  0  0  0  0  0  0  0  0  0  0  0
   -0.4031   -1.8797   -1.0735 C   0  0  0  0  0  0  0  0  0  0  0  0
    3.4251   -0.3569   -0.2196 C   0  0  0  0  0  0  0  0  0  0  0  0
    4.2727   -0.0083    0.8165 C   0  0  0  0  0  0  0  0  0  0  0  0
    4.3255    1.3995    1.0279 C   0  0  0  0  0  0  0  0  0  0  0  0
    3.5167    2.0808    0.1460 C   0  0  0  0  0  0  0  0  0  0  0  0
    2.7045    1.0252   -0.9275 S   0  0  0  0  0  0  0  0  0  0  0  0
    1.5434   -3.5352   -0.2819 H   0  0  0  0  0  0  0  0  0  0  0  0
    0.9031   -0.8654    1.8923 H   0  0  0  0  0  0  0  0  0  0  0  0
   -1.0776    0.5371    1.8853 H   0  0  0  0  0  0  0  0  0  0  0  0
   -4.2698   -0.8919    0.2054 H   0  0  0  0  0  0  0  0  0  0  0  0
   -2.2131   -1.1480   -1.9519 H   0  0  0  0  0  0  0  0  0  0  0  0
   -0.2002   -2.5354   -1.9169 H   0  0  0  0  0  0  0  0  0  0  0  0
    4.8296   -0.7418    1.3884 H   0  0  0  0  0  0  0  0  0  0  0  0
    4.9285    1.8880    1.7842 H   0  0  0  0  0  0  0  0  0  0  0  0
    3.3646    3.1495    0.0748 H   0  0  0  0  0  0  0  0  0  0  0  0
  1  2  2  0
  2  3  2  0
  2  4  1  0
  4  5  1  0
  5  6  2  0
  6  7  1  0
  7  8  2  0
  8  9  1  0
  9 10  1  0
  9 11  1  0
 11 12  1  0
 11 13  1  0
 11 14  1  0
  9 15  1  0
 15 16  1  0
 15 17  1  0
 15 18  1  0
  8 19  1  0
 19 20  2  0
  2 21  1  0
 21 22  2  0
 22 23  1  0
 23 24  2  0
 24 25  1  0
 20  5  1  0
 25 21  1  0
  4 26  1  0
  6 27  1  0
  7 28  1  0
 10 29  1  0
 19 30  1  0
 20 31  1  0
 22 32  1  0
 23 33  1  0
 24 34  1  0
M  END
$$$$
