
     RDKit          3D

 44 45  0  0  0  0  0  0  0  0999 V2000
    0.5798   -2.7791   -0.0021 C   0  0  0  0  0  0  0  0  0  0  0  0
   -0.0770   -1.3920   -0.0279 C   0  0  0  0  0  0  0  0  0  0  0  0
    0.5962   -0.4403   -1.0484 C   0  0  0  0  0  0  0  0  0  0  0  0
    2.0097    0.0239   -0.7955 C   0  0  0  0  0  0  0  0  0  0  0  0
    3.1043   -0.8295   -1.0173 C   0  0  0  0  0  0  0  0  0  0  0  0
    4.4160   -0.3936   -0.7994 C   0  0  0  0  0  0  0  0  0  0  0  0
    4.6345    0.9083   -0.3703 C   0  0  0  0  0  0  0  0  0  0  0  0
    5.8917    1.3940   -0.1398 O   0  0  0  0  0  0  0  0  0  0  0  0
    3.5603    1.7683   -0.1682 C   0  0  0  0  0  0  0  0  0  0  0  0
    3.7816    3.0513    0.2446 O   0  0  0  0  0  0  0  0  0  0  0  0
    2.2565    1.3422   -0.3824 C   0  0  0  0  0  0  0  0  0  0  0  0
   -0.3376   -0.8471    1.4117 C   0  0  0  0  0  0  0  0  0  0  0  0
    0.9119   -0.7352    2.2948 C   0  0  0  0  0  0  0  0  0  0  0  0
   -1.1078    0.4953    1.4508 C   0  0  0  0  0  0  0  0  0  0  0  0
   -2.4780    0.4647    0.8103 C   0  0  0  0  0  0  0  0  0  0  0  0
   -3.4819   -0.3841    1.3098 C   0  0  0  0  0  0  0  0  0  0  0  0
   -4.7495   -0.4136    0.7240 C   0  0  0  0  0  0  0  0  0  0  0  0
   -5.0150    0.4130   -0.3556 C   0  0  0  0  0  0  0  0  0  0  0  0
   -6.2537    0.3854   -0.9294 O   0  0  0  0  0  0  0  0  0  0  0  0
   -4.0374    1.2692   -0.8530 C   0  0  0  0  0  0  0  0  0  0  0  0
   -4.3697    2.0638   -1.9161 O   0  0  0  0  0  0  0  0  0  0  0  0
   -2.7716    1.3049   -0.2766 C   0  0  0  0  0  0  0  0  0  0  0  0
    0.6339   -3.1993   -1.0123 H   0  0  0  0  0  0  0  0  0  0  0  0
    1.5927   -2.7580    0.4068 H   0  0  0  0  0  0  0  0  0  0  0  0
   -0.0101   -3.4715    0.6085 H   0  0  0  0  0  0  0  0  0  0  0  0
   -1.0752   -1.5772   -0.4525 H   0  0  0  0  0  0  0  0  0  0  0  0
    0.5878   -0.9292   -2.0333 H   0  0  0  0  0  0  0  0  0  0  0  0
   -0.0410    0.4408   -1.1882 H   0  0  0  0  0  0  0  0  0  0  0  0
    2.9425   -1.8445   -1.3741 H   0  0  0  0  0  0  0  0  0  0  0  0
    5.2393   -1.0781   -0.9750 H   0  0  0  0  0  0  0  0  0  0  0  0
    6.5271    0.6804   -0.3213 H   0  0  0  0  0  0  0  0  0  0  0  0
    4.7542    3.1149    0.3257 H   0  0  0  0  0  0  0  0  0  0  0  0
    1.4419    2.0421   -0.2226 H   0  0  0  0  0  0  0  0  0  0  0  0
   -0.9697   -1.5994    1.9054 H   0  0  0  0  0  0  0  0  0  0  0  0
    1.5889    0.0519    1.9605 H   0  0  0  0  0  0  0  0  0  0  0  0
    0.6234   -0.4912    3.3240 H   0  0  0  0  0  0  0  0  0  0  0  0
    1.4674   -1.6755    2.3400 H   0  0  0  0  0  0  0  0  0  0  0  0
   -1.2516    0.8019    2.4961 H   0  0  0  0  0  0  0  0  0  0  0  0
   -0.5009    1.2882    1.0002 H   0  0  0  0  0  0  0  0  0  0  0  0
   -3.2838   -1.0283    2.1636 H   0  0  0  0  0  0  0  0  0  0  0  0
   -5.5214   -1.0724    1.1092 H   0  0  0  0  0  0  0  0  0  0  0  0
   -6.2009    1.0439   -1.6504 H   0  0  0  0  0  0  0  0  0  0  0  0
   -3.5974    2.6138   -2.1330 H   0  0  0  0  0  0  0  0  0  0  0  0
   -2.0103    1.9767   -0.6611 H   0  0  0  0  0  0  0  0  0  0  0  0
  1  2  1  0
  2  3  1  0
  3  4  1  0
  4  5  2  0
  5  6  1  0
  6  7  2  0
  7  8  1  0
  7  9  1  0
  9 10  1  0
  9 11  2  0
  2 12  1  0
 12 13  1  0
 12 14  1  0
 14 15  1  0
 15 16  2  0
 16 17  1  0
 17 18  2  0
 18 19  1  0
 18 20  1  0
 20 21  1  0
 20 22  2  0
 11  4  1  0
 22 15  1  0
  1 23  1  0
  1 24  1  0
  1 25  1  0
  2 26  1  0
  3 27  1  0
  3 28  1  0
  5 29  1  0
  6 30  1  0
  8 31  1  0
 10 32  1  0
 11 33  1  0
 12 34  1  0
 13 35  1  0
 13 36  1  0
 13 37  1  0
 14 38  1  0
 14 39  1  0
 16 40  1  0
 17 41  1  0
 19 42  1  0
 21 43  1  0
 22 44  1  0
M  END
$$$$
