
     RDKit          3D

 51 54  0  0  0  0  0  0  0  0999 V2000
    3.4115   -3.7290   -0.5441 O   0  0  0  0  0  0  0  0  0  0  0  0
    3.0491   -2.5819   -0.3217 C   0  0  0  0  0  0  0  0  0  0  0  0
    3.9868   -1.6532    0.3346 C   0  0  0  0  0  0  0  0  0  0  0  0
    3.6107   -0.3915    0.5790 C   0  0  0  0  0  0  0  0  0  0  0  0
    4.5109    0.5738    1.2392 C   0  0  0  0  0  0  0  0  0  0  0  0
    5.8641    0.6820    0.8778 C   0  0  0  0  0  0  0  0  0  0  0  0
    6.7018    1.6098    1.5056 C   0  0  0  0  0  0  0  0  0  0  0  0
    6.1849    2.4373    2.4955 C   0  0  0  0  0  0  0  0  0  0  0  0
    6.9639    3.3555    3.1336 O   0  0  0  0  0  0  0  0  0  0  0  0
    4.8484    2.3550    2.8634 C   0  0  0  0  0  0  0  0  0  0  0  0
    4.0129    1.4285    2.2348 C   0  0  0  0  0  0  0  0  0  0  0  0
    2.3626    0.1168    0.2690 O   0  0  0  0  0  0  0  0  0  0  0  0
    1.4538   -0.7075   -0.3464 C   0  0  0  0  0  0  0  0  0  0  0  0
    0.2150   -0.1367   -0.6460 C   0  0  0  0  0  0  0  0  0  0  0  0
   -0.7860   -0.8955   -1.2531 C   0  0  0  0  0  0  0  0  0  0  0  0
   -1.9506   -0.2229   -1.4838 O   0  0  0  0  0  0  0  0  0  0  0  0
   -3.1814   -0.9490   -1.4556 C   0  0  2  0  0  0  0  0  0  0  0  0
   -4.1991   -0.2113   -2.1460 O   0  0  0  0  0  0  0  0  0  0  0  0
   -4.5940    1.0381   -1.5488 C   0  0  2  0  0  0  0  0  0  0  0  0
   -4.0003    2.2399   -2.3038 C   0  0  0  0  0  0  0  0  0  0  0  0
   -2.6603    2.5413   -1.9240 O   0  0  0  0  0  0  0  0  0  0  0  0
   -4.3738    1.0962   -0.0318 C   0  0  1  0  0  0  0  0  0  0  0  0
   -5.2508    2.0548    0.5673 O   0  0  0  0  0  0  0  0  0  0  0  0
   -4.6422   -0.2930    0.5332 C   0  0  2  0  0  0  0  0  0  0  0  0
   -4.5972   -0.2395    1.9696 O   0  0  0  0  0  0  0  0  0  0  0  0
   -3.5979   -1.2822    0.0056 C   0  0  1  0  0  0  0  0  0  0  0  0
   -4.1701   -2.5991    0.1262 O   0  0  0  0  0  0  0  0  0  0  0  0
   -0.5255   -2.2188   -1.6055 C   0  0  0  0  0  0  0  0  0  0  0  0
    0.7207   -2.7876   -1.3101 C   0  0  0  0  0  0  0  0  0  0  0  0
    0.9423   -4.0892   -1.6599 O   0  0  0  0  0  0  0  0  0  0  0  0
    1.7153   -2.0394   -0.6674 C   0  0  0  0  0  0  0  0  0  0  0  0
    4.9556   -2.0577    0.5990 H   0  0  0  0  0  0  0  0  0  0  0  0
    6.2796    0.0536    0.0927 H   0  0  0  0  0  0  0  0  0  0  0  0
    7.7434    1.6720    1.2062 H   0  0  0  0  0  0  0  0  0  0  0  0
    7.8634    3.3077    2.7704 H   0  0  0  0  0  0  0  0  0  0  0  0
    4.4556    3.0103    3.6358 H   0  0  0  0  0  0  0  0  0  0  0  0
    2.9685    1.3768    2.5353 H   0  0  0  0  0  0  0  0  0  0  0  0
    0.0267    0.9068   -0.4009 H   0  0  0  0  0  0  0  0  0  0  0  0
   -3.0933   -1.8728   -2.0333 H   0  0  0  0  0  0  0  0  0  0  0  0
   -5.6747    1.0885   -1.7385 H   0  0  0  0  0  0  0  0  0  0  0  0
   -3.9936    2.0387   -3.3800 H   0  0  0  0  0  0  0  0  0  0  0  0
   -4.6043    3.1373   -2.1296 H   0  0  0  0  0  0  0  0  0  0  0  0
   -2.7078    3.1316   -1.1516 H   0  0  0  0  0  0  0  0  0  0  0  0
   -3.3547    1.4006    0.2313 H   0  0  0  0  0  0  0  0  0  0  0  0
   -5.2822    1.8087    1.5154 H   0  0  0  0  0  0  0  0  0  0  0  0
   -5.6614   -0.6138    0.2819 H   0  0  0  0  0  0  0  0  0  0  0  0
   -4.7744   -1.1528    2.2695 H   0  0  0  0  0  0  0  0  0  0  0  0
   -2.7245   -1.2827    0.6684 H   0  0  0  0  0  0  0  0  0  0  0  0
   -3.4660   -3.2447   -0.0624 H   0  0  0  0  0  0  0  0  0  0  0  0
   -1.2619   -2.8153   -2.1305 H   0  0  0  0  0  0  0  0  0  0  0  0
    0.2806   -4.3942   -2.3002 H   0  0  0  0  0  0  0  0  0  0  0  0
  1  2  2  0
  2  3  1  0
  3  4  2  0
  4  5  1  0
  5  6  2  0
  6  7  1  0
  7  8  2  0
  8  9  1  0
  8 10  1  0
 10 11  2  0
  4 12  1  0
 12 13  1  0
 13 14  2  0
 14 15  1  0
 15 16  1  0
 16 17  1  0
 17 18  1  0
 18 19  1  0
 19 20  1  0
 20 21  1  0
 19 22  1  0
 22 23  1  0
 22 24  1  0
 24 25  1  0
 24 26  1  0
 26 27  1  0
 15 28  2  0
 28 29  1  0
 29 30  1  0
 29 31  2  0
 31  2  1  0
 11  5  1  0
 31 13  1  0
 26 17  1  0
  3 32  1  0
  6 33  1  0
  7 34  1  0
  9 35  1  0
 10 36  1  0
 11 37  1  0
 14 38  1  0
 17 39  1  6
 19 40  1  1
 20 41  1  0
 20 42  1  0
 21 43  1  0
 22 44  1  6
 23 45  1  0
 24 46  1  1
 25 47  1  0
 26 48  1  1
 27 49  1  0
 28 50  1  0
 30 51  1  0
M  END
$$$$
