
     RDKit          3D

 44 46  0  0  0  0  0  0  0  0999 V2000
    3.1695   -1.8354   -1.0520 O   0  0  0  0  0  0  0  0  0  0  0  0
    3.2690   -0.7177   -0.5591 C   0  0  0  0  0  0  0  0  0  0  0  0
    2.1871    0.1042   -0.3041 N   0  0  0  0  0  0  0  0  0  0  0  0
    0.8524   -0.3010   -0.7119 C   0  0  0  0  0  0  0  0  0  0  0  0
   -0.2114    0.5625   -0.0369 C   0  0  0  0  0  0  0  0  0  0  0  0
   -1.6440    0.2203   -0.5093 C   0  0  0  0  0  0  0  0  0  0  0  0
   -2.1412   -1.1830   -0.1731 C   0  0  0  0  0  0  0  0  0  0  0  0
   -1.7703   -1.8648    0.9963 C   0  0  0  0  0  0  0  0  0  0  0  0
   -2.2609   -3.1455    1.2639 C   0  0  0  0  0  0  0  0  0  0  0  0
   -3.1368   -3.7607    0.3735 C   0  0  0  0  0  0  0  0  0  0  0  0
   -3.5277   -3.0946   -0.7841 C   0  0  0  0  0  0  0  0  0  0  0  0
   -3.0371   -1.8155   -1.0535 C   0  0  0  0  0  0  0  0  0  0  0  0
   -2.6253    1.2953   -0.0453 C   0  0  0  0  0  0  0  0  0  0  0  0
   -3.3083    2.0759   -0.9923 C   0  0  0  0  0  0  0  0  0  0  0  0
   -4.2044    3.0669   -0.5868 C   0  0  0  0  0  0  0  0  0  0  0  0
   -4.4318    3.2903    0.7690 C   0  0  0  0  0  0  0  0  0  0  0  0
   -3.7653    2.5222    1.7205 C   0  0  0  0  0  0  0  0  0  0  0  0
   -2.8682    1.5310    1.3174 C   0  0  0  0  0  0  0  0  0  0  0  0
    4.6089   -0.1694   -0.2454 C   0  0  0  0  0  0  0  0  0  0  0  0
    5.7284   -0.6371   -0.9365 C   0  0  0  0  0  0  0  0  0  0  0  0
    6.9866   -0.1203   -0.6352 C   0  0  0  0  0  0  0  0  0  0  0  0
    7.0808    0.8449    0.3552 C   0  0  0  0  0  0  0  0  0  0  0  0
    6.0211    1.3101    1.0538 N   0  0  0  0  0  0  0  0  0  0  0  0
    4.8102    0.7825    0.7452 C   0  0  0  0  0  0  0  0  0  0  0  0
    2.3588    1.0978   -0.2182 H   0  0  0  0  0  0  0  0  0  0  0  0
    0.7221   -1.3606   -0.4697 H   0  0  0  0  0  0  0  0  0  0  0  0
    0.8023   -0.1976   -1.8018 H   0  0  0  0  0  0  0  0  0  0  0  0
   -0.0004    1.6153   -0.2735 H   0  0  0  0  0  0  0  0  0  0  0  0
   -0.1131    0.4855    1.0530 H   0  0  0  0  0  0  0  0  0  0  0  0
   -1.6006    0.2717   -1.6079 H   0  0  0  0  0  0  0  0  0  0  0  0
   -1.0963   -1.4143    1.7195 H   0  0  0  0  0  0  0  0  0  0  0  0
   -1.9588   -3.6626    2.1711 H   0  0  0  0  0  0  0  0  0  0  0  0
   -3.5175   -4.7563    0.5842 H   0  0  0  0  0  0  0  0  0  0  0  0
   -4.2176   -3.5684   -1.4774 H   0  0  0  0  0  0  0  0  0  0  0  0
   -3.3644   -1.3094   -1.9595 H   0  0  0  0  0  0  0  0  0  0  0  0
   -3.1496    1.9171   -2.0566 H   0  0  0  0  0  0  0  0  0  0  0  0
   -4.7277    3.6627   -1.3301 H   0  0  0  0  0  0  0  0  0  0  0  0
   -5.1319    4.0594    1.0841 H   0  0  0  0  0  0  0  0  0  0  0  0
   -3.9471    2.6905    2.7788 H   0  0  0  0  0  0  0  0  0  0  0  0
   -2.3670    0.9384    2.0786 H   0  0  0  0  0  0  0  0  0  0  0  0
    5.6208   -1.3993   -1.7050 H   0  0  0  0  0  0  0  0  0  0  0  0
    7.8714   -0.4650   -1.1592 H   0  0  0  0  0  0  0  0  0  0  0  0
    8.0402    1.2785    0.6246 H   0  0  0  0  0  0  0  0  0  0  0  0
    3.9948    1.1557    1.3573 H   0  0  0  0  0  0  0  0  0  0  0  0
  1  2  2  0
  2  3  1  0
  3  4  1  0
  4  5  1  0
  5  6  1  0
  6  7  1  0
  7  8  2  0
  8  9  1  0
  9 10  2  0
 10 11  1  0
 11 12  2  0
  6 13  1  0
 13 14  2  0
 14 15  1  0
 15 16  2  0
 16 17  1  0
 17 18  2  0
  2 19  1  0
 19 20  2  0
 20 21  1  0
 21 22  2  0
 22 23  1  0
 23 24  2  0
 12  7  1  0
 18 13  1  0
 24 19  1  0
  3 25  1  0
  4 26  1  0
  4 27  1  0
  5 28  1  0
  5 29  1  0
  6 30  1  0
  8 31  1  0
  9 32  1  0
 10 33  1  0
 11 34  1  0
 12 35  1  0
 14 36  1  0
 15 37  1  0
 16 38  1  0
 17 39  1  0
 18 40  1  0
 20 41  1  0
 21 42  1  0
 22 43  1  0
 24 44  1  0
M  END
$$$$
