
     RDKit          3D

 30 30  0  0  0  0  0  0  0  0999 V2000
   -0.5491    1.9364   -2.3599 O   0  0  0  0  0  0  0  0  0  0  0  0
   -1.7463    2.1818   -2.0164 C   0  0  0  0  0  0  0  0  0  0  0  0
   -2.7594    2.3979   -2.7401 O   0  0  0  0  0  1  0  0  0  0  0  0
   -1.9767    2.2687   -0.5096 C   0  0  0  0  0  0  0  0  0  0  0  0
   -1.9977    0.9063    0.1538 C   0  0  0  0  0  0  0  0  0  0  0  0
   -3.2206    0.4251    0.6554 C   0  0  0  0  0  0  0  0  0  0  0  0
   -3.2893   -0.7936    1.3273 C   0  0  0  0  0  0  0  0  0  0  0  0
   -2.1346   -1.5446    1.5131 C   0  0  0  0  0  0  0  0  0  0  0  0
   -0.9151   -1.0856    1.0096 C   0  0  0  0  0  0  0  0  0  0  0  0
   -0.8293    0.1229    0.2987 C   0  0  0  0  0  0  0  0  0  0  0  0
    0.4112    0.6100   -0.2057 N   0  0  0  0  0  0  0  0  0  0  0  0
    1.6572   -0.0663   -0.1697 C   0  0  0  0  0  0  0  0  0  0  0  0
    2.1075   -0.8401   -1.2570 C   0  0  0  0  0  0  0  0  0  0  0  0
    1.1830   -1.0031   -2.7084 Cl  0  0  0  0  0  0  0  0  0  0  0  0
    3.3201   -1.5405   -1.1961 C   0  0  0  0  0  0  0  0  0  0  0  0
    4.1015   -1.4971   -0.0450 C   0  0  0  0  0  0  0  0  0  0  0  0
    3.6667   -0.7569    1.0505 C   0  0  0  0  0  0  0  0  0  0  0  0
    2.4554   -0.0542    0.9931 C   0  0  0  0  0  0  0  0  0  0  0  0
    2.0065    0.8486    2.4034 Cl  0  0  0  0  0  0  0  0  0  0  0  0
    0.0000    0.0000    0.0000 Na  0  0  0  0  0 15  0  0  0  0  0  0
   -2.9154    2.8034   -0.3169 H   0  0  0  0  0  0  0  0  0  0  0  0
   -1.1911    2.8839   -0.0528 H   0  0  0  0  0  0  0  0  0  0  0  0
   -4.1267    1.0108    0.5170 H   0  0  0  0  0  0  0  0  0  0  0  0
   -4.2424   -1.1495    1.7055 H   0  0  0  0  0  0  0  0  0  0  0  0
   -2.1784   -2.4911    2.0423 H   0  0  0  0  0  0  0  0  0  0  0  0
   -0.0320   -1.6968    1.1619 H   0  0  0  0  0  0  0  0  0  0  0  0
    0.2291    1.0134   -1.1539 H   0  0  0  0  0  0  0  0  0  0  0  0
    3.6511   -2.1262   -2.0501 H   0  0  0  0  0  0  0  0  0  0  0  0
    5.0413   -2.0401   -0.0016 H   0  0  0  0  0  0  0  0  0  0  0  0
    4.2734   -0.7234    1.9516 H   0  0  0  0  0  0  0  0  0  0  0  0
  1  2  2  0
  2  3  1  0
  2  4  1  0
  4  5  1  0
  5  6  2  0
  6  7  1  0
  7  8  2  0
  8  9  1  0
  9 10  2  0
 10 11  1  0
 11 12  1  0
 12 13  2  0
 13 14  1  0
 13 15  1  0
 15 16  2  0
 16 17  1  0
 17 18  2  0
 18 19  1  0
 10  5  1  0
 18 12  1  0
  4 21  1  0
  4 22  1  0
  6 23  1  0
  7 24  1  0
  8 25  1  0
  9 26  1  0
 11 27  1  0
 15 28  1  0
 16 29  1  0
 17 30  1  0
M  CHG  2   3  -1  20   1
M  END
$$$$
