
     RDKit          3D

 46 48  0  0  0  0  0  0  0  0999 V2000
   -5.8778    2.1442    0.6148 C   0  0  0  0  0  0  0  0  0  0  0  0
   -4.3947    1.8231    0.4891 C   0  0  0  0  0  0  0  0  0  0  0  0
   -4.1412    0.5614   -0.3364 C   0  0  1  0  0  0  0  0  0  0  0  0
   -2.6702    0.2357   -0.6487 C   0  0  1  0  0  0  0  0  0  0  0  0
   -1.6719    0.4129    0.5166 C   0  0  0  0  0  0  0  0  0  0  0  0
   -0.3205    0.4657    0.0257 O   0  0  0  0  0  0  0  0  0  0  0  0
    0.3678   -0.7327    0.0454 C   0  0  0  0  0  0  0  0  0  0  0  0
   -0.3455   -1.8778    0.0967 N   0  0  0  0  0  0  0  0  0  0  0  0
    0.3480   -3.0330    0.0917 C   0  0  0  0  0  0  0  0  0  0  0  0
    1.7272   -3.0979    0.0127 C   0  0  0  0  0  0  0  0  0  0  0  0
    2.4548   -1.9050   -0.0658 C   0  0  0  0  0  0  0  0  0  0  0  0
    3.8543   -1.9105   -0.1571 C   0  0  0  0  0  0  0  0  0  0  0  0
    4.5954   -0.7156   -0.2385 C   0  0  0  0  0  0  0  0  0  0  0  0
    6.0821   -0.8790   -0.3321 C   0  0  0  0  0  0  0  0  0  0  0  0
    6.8586    0.2384   -0.4063 N   0  0  0  0  0  0  0  0  0  0  0  0
    6.6065   -1.9879   -0.3429 O   0  0  0  0  0  0  0  0  0  0  0  0
    3.9188    0.5196   -0.2279 C   0  0  0  0  0  0  0  0  0  0  0  0
    4.6691    1.6665   -0.3089 O   0  0  0  0  0  0  0  0  0  0  0  0
    3.9881    2.9169   -0.2980 C   0  0  0  0  0  0  0  0  0  0  0  0
    2.5181    0.5229   -0.1354 C   0  0  0  0  0  0  0  0  0  0  0  0
    1.7708   -0.6769   -0.0535 C   0  0  0  0  0  0  0  0  0  0  0  0
   -2.7756   -1.1477   -1.0624 N   0  0  0  0  0  0  0  0  0  0  0  0
   -3.8081   -1.7915   -0.3964 C   0  0  0  0  0  0  0  0  0  0  0  0
   -3.9603   -3.0009   -0.3493 O   0  0  0  0  0  0  0  0  0  0  0  0
   -4.6460   -0.7375    0.3063 C   0  0  1  0  0  0  0  0  0  0  0  0
   -4.3933   -0.7071    1.6445 F   0  0  0  0  0  0  0  0  0  0  0  0
   -6.4129    1.3525    1.1481 H   0  0  0  0  0  0  0  0  0  0  0  0
   -6.3378    2.2689   -0.3706 H   0  0  0  0  0  0  0  0  0  0  0  0
   -6.0152    3.0761    1.1726 H   0  0  0  0  0  0  0  0  0  0  0  0
   -3.8904    2.6729    0.0140 H   0  0  0  0  0  0  0  0  0  0  0  0
   -3.9781    1.7233    1.4974 H   0  0  0  0  0  0  0  0  0  0  0  0
   -4.6563    0.6726   -1.3033 H   0  0  0  0  0  0  0  0  0  0  0  0
   -2.3228    0.8084   -1.5161 H   0  0  0  0  0  0  0  0  0  0  0  0
   -1.8234    1.3926    0.9796 H   0  0  0  0  0  0  0  0  0  0  0  0
   -1.7976   -0.3282    1.3160 H   0  0  0  0  0  0  0  0  0  0  0  0
   -0.2540   -3.9365    0.1518 H   0  0  0  0  0  0  0  0  0  0  0  0
    2.2208   -4.0650    0.0099 H   0  0  0  0  0  0  0  0  0  0  0  0
    4.3850   -2.8632   -0.1661 H   0  0  0  0  0  0  0  0  0  0  0  0
    7.8604    0.1287   -0.4711 H   0  0  0  0  0  0  0  0  0  0  0  0
    6.4525    1.1663   -0.4023 H   0  0  0  0  0  0  0  0  0  0  0  0
    3.3247    3.0124   -1.1637 H   0  0  0  0  0  0  0  0  0  0  0  0
    3.4445    3.0618    0.6412 H   0  0  0  0  0  0  0  0  0  0  0  0
    4.7425    3.7063   -0.3697 H   0  0  0  0  0  0  0  0  0  0  0  0
    1.9635    1.4570   -0.1232 H   0  0  0  0  0  0  0  0  0  0  0  0
   -1.9466   -1.7102   -1.2475 H   0  0  0  0  0  0  0  0  0  0  0  0
   -5.7132   -0.9031    0.1386 H   0  0  0  0  0  0  0  0  0  0  0  0
  1  2  1  0
  2  3  1  0
  3  4  1  0
  4  5  1  0
  5  6  1  0
  6  7  1  0
  7  8  2  0
  8  9  1  0
  9 10  2  0
 10 11  1  0
 11 12  2  0
 12 13  1  0
 13 14  1  0
 14 15  1  0
 14 16  2  0
 13 17  2  0
 17 18  1  0
 18 19  1  0
 17 20  1  0
 20 21  2  0
  4 22  1  0
 22 23  1  0
 23 24  2  0
 23 25  1  0
 25 26  1  0
 25  3  1  0
 21  7  1  0
 21 11  1  0
  1 27  1  0
  1 28  1  0
  1 29  1  0
  2 30  1  0
  2 31  1  0
  3 32  1  6
  4 33  1  6
  5 34  1  0
  5 35  1  0
  9 36  1  0
 10 37  1  0
 12 38  1  0
 15 39  1  0
 15 40  1  0
 19 41  1  0
 19 42  1  0
 19 43  1  0
 20 44  1  0
 22 45  1  0
 25 46  1  1
M  END
$$$$
