
     RDKit          3D

 43 45  0  0  0  0  0  0  0  0999 V2000
    7.4193   -0.5073    2.1816 C   0  0  0  0  0  0  0  0  0  0  0  0
    7.2607    0.1427    0.9269 O   0  0  0  0  0  0  0  0  0  0  0  0
    6.0166    0.1064    0.3615 C   0  0  0  0  0  0  0  0  0  0  0  0
    4.8840   -0.5008    0.9066 C   0  0  0  0  0  0  0  0  0  0  0  0
    3.6627   -0.4634    0.2208 C   0  0  0  0  0  0  0  0  0  0  0  0
    3.5670    0.1914   -1.0142 C   0  0  0  0  0  0  0  0  0  0  0  0
    2.2885    0.2566   -1.7790 C   0  0  0  0  0  0  0  0  0  0  0  0
    2.3343    0.3095   -3.0012 O   0  0  0  0  0  0  0  0  0  0  0  0
    1.1462    0.3268   -1.0016 N   0  0  0  0  0  0  0  0  0  0  0  0
   -0.1740    0.2504   -1.4153 C   0  0  0  0  0  0  0  0  0  0  0  0
   -0.5364    0.0654   -2.6432 N   0  0  0  0  0  0  0  0  0  0  0  0
   -1.8822    0.0178   -2.8731 C   0  0  0  0  0  0  0  0  0  0  0  0
   -2.8265    0.1348   -1.9325 C   0  0  0  0  0  0  0  0  0  0  0  0
   -2.5130    0.3203   -0.5935 N   0  0  0  0  0  0  0  0  0  0  0  0
   -3.5292    0.4446    0.4269 C   0  0  0  0  0  0  0  0  0  0  0  0
   -3.3297    1.3472    1.4894 C   0  0  0  0  0  0  0  0  0  0  0  0
   -4.2977    1.5379    2.4769 C   0  0  0  0  0  0  0  0  0  0  0  0
   -5.4888    0.8284    2.4234 C   0  0  0  0  0  0  0  0  0  0  0  0
   -5.7098   -0.0825    1.3903 C   0  0  0  0  0  0  0  0  0  0  0  0
   -4.7409   -0.2932    0.3961 C   0  0  0  0  0  0  0  0  0  0  0  0
   -4.8828   -1.2361   -0.5930 O   0  0  0  0  0  0  0  0  0  0  0  0
   -6.0103   -2.1006   -0.5423 C   0  0  0  0  0  0  0  0  0  0  0  0
   -1.1551    0.3921   -0.2467 C   0  0  0  0  0  0  0  0  0  0  0  0
   -0.6488    0.5197    0.8674 O   0  0  0  0  0  0  0  0  0  0  0  0
    4.7067    0.7827   -1.5680 C   0  0  0  0  0  0  0  0  0  0  0  0
    5.9210    0.7435   -0.8783 C   0  0  0  0  0  0  0  0  0  0  0  0
    8.4626   -0.3891    2.4899 H   0  0  0  0  0  0  0  0  0  0  0  0
    7.2160   -1.5801    2.0988 H   0  0  0  0  0  0  0  0  0  0  0  0
    6.7906   -0.0432    2.9486 H   0  0  0  0  0  0  0  0  0  0  0  0
    4.9185   -1.0200    1.8591 H   0  0  0  0  0  0  0  0  0  0  0  0
    2.8087   -0.9763    0.6555 H   0  0  0  0  0  0  0  0  0  0  0  0
    1.2472    0.4505    0.0001 H   0  0  0  0  0  0  0  0  0  0  0  0
   -2.1711   -0.1133   -3.9134 H   0  0  0  0  0  0  0  0  0  0  0  0
   -3.8732    0.1229   -2.2160 H   0  0  0  0  0  0  0  0  0  0  0  0
   -2.4279    1.9518    1.5492 H   0  0  0  0  0  0  0  0  0  0  0  0
   -4.1197    2.2488    3.2800 H   0  0  0  0  0  0  0  0  0  0  0  0
   -6.2463    0.9781    3.1888 H   0  0  0  0  0  0  0  0  0  0  0  0
   -6.6511   -0.6224    1.3963 H   0  0  0  0  0  0  0  0  0  0  0  0
   -6.9401   -1.5420   -0.6904 H   0  0  0  0  0  0  0  0  0  0  0  0
   -6.0320   -2.6714    0.3919 H   0  0  0  0  0  0  0  0  0  0  0  0
   -5.9190   -2.8155   -1.3656 H   0  0  0  0  0  0  0  0  0  0  0  0
    4.6536    1.2768   -2.5365 H   0  0  0  0  0  0  0  0  0  0  0  0
    6.8014    1.2101   -1.3146 H   0  0  0  0  0  0  0  0  0  0  0  0
  1  2  1  0
  2  3  1  0
  3  4  2  0
  4  5  1  0
  5  6  2  0
  6  7  1  0
  7  8  2  0
  7  9  1  0
  9 10  1  0
 10 11  2  0
 11 12  1  0
 12 13  2  0
 13 14  1  0
 14 15  1  0
 15 16  2  0
 16 17  1  0
 17 18  2  0
 18 19  1  0
 19 20  2  0
 20 21  1  0
 21 22  1  0
 14 23  1  0
 23 24  2  0
  6 25  1  0
 25 26  2  0
 26  3  1  0
 23 10  1  0
 20 15  1  0
  1 27  1  0
  1 28  1  0
  1 29  1  0
  4 30  1  0
  5 31  1  0
  9 32  1  0
 12 33  1  0
 13 34  1  0
 16 35  1  0
 17 36  1  0
 18 37  1  0
 19 38  1  0
 22 39  1  0
 22 40  1  0
 22 41  1  0
 25 42  1  0
 26 43  1  0
M  END
$$$$
