
     RDKit          3D

 51 53  0  0  0  0  0  0  0  0999 V2000
    4.4413   -3.6848   -1.0059 C   0  0  0  0  0  0  0  0  0  0  0  0
    5.0656   -2.5547   -0.4336 O   0  0  0  0  0  0  0  0  0  0  0  0
    4.3681   -1.3855   -0.1877 C   0  0  0  0  0  0  0  0  0  0  0  0
    3.0344   -1.3403   -0.5148 C   0  0  0  0  0  0  0  0  0  0  0  0
    2.2870   -0.2006   -0.2924 C   0  0  0  0  0  0  0  0  0  0  0  0
    0.9821   -0.1326   -0.6038 N   0  0  0  0  0  0  0  0  0  0  0  0
    0.2202    0.9729   -0.3976 C   0  0  0  0  0  0  0  0  0  0  0  0
   -1.1668    0.9811   -0.7519 N   0  0  0  0  0  0  0  0  0  0  0  0
   -1.9198    2.1911   -0.5054 C   0  0  0  0  0  0  0  0  0  0  0  0
   -3.2925    1.9878   -1.1183 C   0  0  0  0  0  0  0  0  0  0  0  0
   -3.8610    0.7418   -0.6256 N   0  0  0  0  0  0  0  0  0  0  0  0
   -5.1407    0.7116   -0.0265 C   0  0  0  0  0  0  0  0  0  0  0  0
   -5.7857    1.7751    0.0776 O   0  0  0  0  0  0  0  0  0  0  0  0
   -5.6871   -0.5355    0.4556 C   0  0  0  0  0  0  0  0  0  0  0  0
   -6.9364   -0.6872    1.0631 C   0  0  0  0  0  0  0  0  0  0  0  0
   -7.0926   -2.0137    1.3787 C   0  0  0  0  0  0  0  0  0  0  0  0
   -5.9370   -2.6306    0.9555 C   0  0  0  0  0  0  0  0  0  0  0  0
   -5.1500   -1.7283    0.4250 O   0  0  0  0  0  0  0  0  0  0  0  0
   -3.1165   -0.4944   -0.7438 C   0  0  0  0  0  0  0  0  0  0  0  0
   -1.7807   -0.1927   -1.3373 C   0  0  0  0  0  0  0  0  0  0  0  0
    0.8275    2.0350    0.1454 N   0  0  0  0  0  0  0  0  0  0  0  0
    2.1257    2.0765    0.4950 C   0  0  0  0  0  0  0  0  0  0  0  0
    2.7324    3.2281    1.0704 N   0  0  0  0  0  0  0  0  0  0  0  0
    2.8689    0.9330    0.2701 C   0  0  0  0  0  0  0  0  0  0  0  0
    4.2096    0.8509    0.5856 C   0  0  0  0  0  0  0  0  0  0  0  0
    4.9685   -0.2906    0.3656 C   0  0  0  0  0  0  0  0  0  0  0  0
    6.3145   -0.3695    0.6836 O   0  0  0  0  0  0  0  0  0  0  0  0
    6.9368    0.7566    1.2538 C   0  0  0  0  0  0  0  0  0  0  0  0
    0.6834    0.0000    0.0000 Cl  0  0  0  0  0  0  0  0  0  0  0  0
    5.1450   -4.5059   -1.1617 H   0  0  0  0  0  0  0  0  0  0  0  0
    3.9024   -3.4157   -1.9606 H   0  0  0  0  0  0  0  0  0  0  0  0
    3.6144   -3.9746   -0.2955 H   0  0  0  0  0  0  0  0  0  0  0  0
    2.5916   -2.2232   -0.9502 H   0  0  0  0  0  0  0  0  0  0  0  0
   -1.4558    3.0940   -0.9231 H   0  0  0  0  0  0  0  0  0  0  0  0
   -2.0245    2.3354    0.5868 H   0  0  0  0  0  0  0  0  0  0  0  0
   -3.9278    2.8192   -0.7900 H   0  0  0  0  0  0  0  0  0  0  0  0
   -3.2376    2.0171   -2.2213 H   0  0  0  0  0  0  0  0  0  0  0  0
   -7.6654    0.0933    1.2583 H   0  0  0  0  0  0  0  0  0  0  0  0
   -7.9712   -2.4079    1.8586 H   0  0  0  0  0  0  0  0  0  0  0  0
   -5.7434   -3.7023    1.0621 H   0  0  0  0  0  0  0  0  0  0  0  0
   -2.9521   -0.9615    0.2673 H   0  0  0  0  0  0  0  0  0  0  0  0
   -3.7083   -1.1993   -1.3347 H   0  0  0  0  0  0  0  0  0  0  0  0
   -1.7892   -0.1305   -2.4522 H   0  0  0  0  0  0  0  0  0  0  0  0
   -1.1129   -1.0685   -1.1038 H   0  0  0  0  0  0  0  0  0  0  0  0
    2.8408    3.3758    2.0830 H   0  0  0  0  0  0  0  0  0  0  0  0
    3.0785    3.9507    0.3708 H   0  0  0  0  0  0  0  0  0  0  0  0
    4.6665    1.7202    1.0198 H   0  0  0  0  0  0  0  0  0  0  0  0
    6.6640    1.6294    0.6117 H   0  0  0  0  0  0  0  0  0  0  0  0
    6.5240    0.9124    2.2644 H   0  0  0  0  0  0  0  0  0  0  0  0
    8.0449    0.6413    1.2734 H   0  0  0  0  0  0  0  0  0  0  0  0
   -0.6834    0.0000    0.0000 H   0  0  0  0  0  0  0  0  0  0  0  0
  1  2  1  0
  2  3  1  0
  3  4  2  0
  4  5  1  0
  5  6  2  0
  6  7  1  0
  7  8  1  0
  8  9  1  0
  9 10  1  0
 10 11  1  0
 11 12  1  0
 12 13  2  0
 12 14  1  0
 14 15  2  0
 15 16  1  0
 16 17  2  0
 17 18  1  0
 11 19  1  0
 19 20  1  0
  7 21  2  0
 21 22  1  0
 22 23  1  0
 22 24  2  0
 24 25  1  0
 25 26  2  0
 26 27  1  0
 27 28  1  0
 26  3  1  0
 24  5  1  0
 20  8  1  0
 18 14  1  0
  1 30  1  0
  1 31  1  0
  1 32  1  0
  4 33  1  0
  9 34  1  0
  9 35  1  0
 10 36  1  0
 10 37  1  0
 15 38  1  0
 16 39  1  0
 17 40  1  0
 19 41  1  0
 19 42  1  0
 20 43  1  0
 20 44  1  0
 23 45  1  0
 23 46  1  0
 25 47  1  0
 28 48  1  0
 28 49  1  0
 28 50  1  0
 29 51  1  0
M  END
$$$$
