
     RDKit          3D

 33 33  0  0  0  0  0  0  0  0999 V2000
   -0.9897   -1.0762   -2.0235 C   0  0  0  0  0  0  0  0  0  0  0  0
   -1.7193   -0.2181   -1.0596 C   0  0  0  0  0  0  0  0  0  0  0  0
   -2.6956    0.6313   -1.4893 C   0  0  0  0  0  0  0  0  0  0  0  0
   -3.3571    1.4194   -0.5576 C   0  0  0  0  0  0  0  0  0  0  0  0
   -3.0406    1.3552    0.7960 C   0  0  0  0  0  0  0  0  0  0  0  0
   -2.0525    0.4951    1.2282 C   0  0  0  0  0  0  0  0  0  0  0  0
   -1.6800    0.3923    2.6643 C   0  0  0  0  0  0  0  0  0  0  0  0
   -1.3923   -0.2939    0.2843 C   0  0  0  0  0  0  0  0  0  0  0  0
   -0.3559   -1.2065    0.6769 N   0  0  0  0  0  0  0  0  0  0  0  0
    0.9720   -0.6489    0.6784 C   0  0  0  0  0  0  0  0  0  0  0  0
    1.2189    0.5308    0.2566 N   0  0  0  0  0  0  0  0  0  0  0  0
    2.6022    1.0279    0.2911 C   0  0  0  0  0  0  0  0  0  0  0  0
    3.4016    0.0263   -0.5477 C   0  0  0  0  0  0  0  0  0  0  0  0
    3.8118   -1.0962    0.3581 C   0  0  0  0  0  0  0  0  0  0  0  0
    2.3431   -1.6206    1.2871 S   0  0  0  0  0  0  0  0  0  0  0  0
    0.6874    0.0000    0.0000 Cl  0  0  0  0  0  0  0  0  0  0  0  0
   -1.7240   -1.8492   -2.3795 H   0  0  0  0  0  0  0  0  0  0  0  0
   -0.6512   -0.5294   -2.9224 H   0  0  0  0  0  0  0  0  0  0  0  0
   -0.1810   -1.6375   -1.5272 H   0  0  0  0  0  0  0  0  0  0  0  0
   -2.9413    0.6791   -2.5519 H   0  0  0  0  0  0  0  0  0  0  0  0
   -4.1318    2.0967   -0.8795 H   0  0  0  0  0  0  0  0  0  0  0  0
   -3.5640    1.9717    1.4922 H   0  0  0  0  0  0  0  0  0  0  0  0
   -1.4201   -0.6362    2.9585 H   0  0  0  0  0  0  0  0  0  0  0  0
   -0.8013    1.0487    2.8660 H   0  0  0  0  0  0  0  0  0  0  0  0
   -2.5591    0.7574    3.2501 H   0  0  0  0  0  0  0  0  0  0  0  0
   -0.5456   -2.1969    0.9411 H   0  0  0  0  0  0  0  0  0  0  0  0
    2.9938    1.0194    1.3230 H   0  0  0  0  0  0  0  0  0  0  0  0
    2.6632    2.0394   -0.1015 H   0  0  0  0  0  0  0  0  0  0  0  0
    4.2586    0.5225   -1.0308 H   0  0  0  0  0  0  0  0  0  0  0  0
    2.7410   -0.3679   -1.3528 H   0  0  0  0  0  0  0  0  0  0  0  0
    4.5820   -0.7014    1.0524 H   0  0  0  0  0  0  0  0  0  0  0  0
    4.2143   -1.9344   -0.2657 H   0  0  0  0  0  0  0  0  0  0  0  0
   -0.6874    0.0000    0.0000 H   0  0  0  0  0  0  0  0  0  0  0  0
  1  2  1  0
  2  3  2  0
  3  4  1  0
  4  5  2  0
  5  6  1  0
  6  7  1  0
  6  8  2  0
  8  9  1  0
  9 10  1  0
 10 11  2  0
 11 12  1  0
 12 13  1  0
 13 14  1  0
 14 15  1  0
  8  2  1  0
 15 10  1  0
  1 17  1  0
  1 18  1  0
  1 19  1  0
  3 20  1  0
  4 21  1  0
  5 22  1  0
  7 23  1  0
  7 24  1  0
  7 25  1  0
  9 26  1  0
 12 27  1  0
 12 28  1  0
 13 29  1  0
 13 30  1  0
 14 31  1  0
 14 32  1  0
 16 33  1  0
M  END
$$$$
