
     RDKit          3D

 46 49  0  0  0  0  0  0  0  0999 V2000
   -1.8594    2.0690   -0.1103 O   0  0  0  0  0  0  0  0  0  0  0  0
   -1.4133    0.9280   -0.1801 C   0  0  0  0  0  0  0  0  0  0  0  0
   -2.1524   -0.1602   -0.5878 N   0  0  0  0  0  0  0  0  0  0  0  0
   -3.5556   -0.0800   -0.9217 C   0  0  0  0  0  0  0  0  0  0  0  0
   -4.4429   -0.0596    0.3244 C   0  0  0  0  0  0  0  0  0  0  0  0
   -5.9071   -0.0141   -0.0335 C   0  0  0  0  0  0  0  0  0  0  0  0
   -6.5320    1.2124   -0.2967 C   0  0  0  0  0  0  0  0  0  0  0  0
   -7.8817    1.2569   -0.6481 C   0  0  0  0  0  0  0  0  0  0  0  0
   -8.6175    0.0771   -0.7429 C   0  0  0  0  0  0  0  0  0  0  0  0
   -8.0041   -1.1481   -0.4877 C   0  0  0  0  0  0  0  0  0  0  0  0
   -6.6540   -1.1950   -0.1364 C   0  0  0  0  0  0  0  0  0  0  0  0
   -0.0286    0.5824    0.1800 C   0  0  0  0  0  0  0  0  0  0  0  0
    0.9957    1.4899    0.6153 C   0  0  0  0  0  0  0  0  0  0  0  0
    2.0811    0.6905    0.8304 C   0  0  0  0  0  0  0  0  0  0  0  0
    1.6924   -0.5621    0.5121 N   0  0  0  0  0  0  0  0  0  0  0  0
    0.4231   -0.7010    0.1461 N   0  0  0  0  0  0  0  0  0  0  0  0
    2.6979   -1.5871    0.7138 C   0  0  0  0  0  0  0  0  0  0  0  0
    3.9772   -0.7348    0.9149 C   0  0  1  0  0  0  0  0  0  0  0  0
    4.6879   -0.7238   -0.3334 O   0  0  0  0  0  0  0  0  0  0  0  0
    6.0139   -0.4057   -0.3249 C   0  0  0  0  0  0  0  0  0  0  0  0
    6.7589    0.0424    0.7616 C   0  0  0  0  0  0  0  0  0  0  0  0
    8.1148    0.3298    0.5950 C   0  0  0  0  0  0  0  0  0  0  0  0
    8.6811    0.1604   -0.6579 C   0  0  0  0  0  0  0  0  0  0  0  0
    7.9920   -0.2671   -1.7343 N   0  0  0  0  0  0  0  0  0  0  0  0
    6.6778   -0.5349   -1.5414 C   0  0  0  0  0  0  0  0  0  0  0  0
    3.4845    0.7054    1.2813 C   0  0  0  0  0  0  0  0  0  0  0  0
   -1.6693   -1.0544   -0.5458 H   0  0  0  0  0  0  0  0  0  0  0  0
   -3.7862   -0.9478   -1.5494 H   0  0  0  0  0  0  0  0  0  0  0  0
   -3.7182    0.8215   -1.5240 H   0  0  0  0  0  0  0  0  0  0  0  0
   -4.1968    0.8019    0.9583 H   0  0  0  0  0  0  0  0  0  0  0  0
   -4.2405   -0.9437    0.9429 H   0  0  0  0  0  0  0  0  0  0  0  0
   -5.9680    2.1410   -0.2291 H   0  0  0  0  0  0  0  0  0  0  0  0
   -8.3583    2.2129   -0.8484 H   0  0  0  0  0  0  0  0  0  0  0  0
   -9.6686    0.1128   -1.0164 H   0  0  0  0  0  0  0  0  0  0  0  0
   -8.5777   -2.0681   -0.5628 H   0  0  0  0  0  0  0  0  0  0  0  0
   -6.1895   -2.1590    0.0576 H   0  0  0  0  0  0  0  0  0  0  0  0
    0.9057    2.5595    0.7460 H   0  0  0  0  0  0  0  0  0  0  0  0
    2.4177   -2.1328    1.6194 H   0  0  0  0  0  0  0  0  0  0  0  0
    2.7259   -2.2360   -0.1647 H   0  0  0  0  0  0  0  0  0  0  0  0
    4.5922   -1.1907    1.6994 H   0  0  0  0  0  0  0  0  0  0  0  0
    6.3248    0.1888    1.7436 H   0  0  0  0  0  0  0  0  0  0  0  0
    8.7167    0.6820    1.4258 H   0  0  0  0  0  0  0  0  0  0  0  0
    9.7320    0.3724   -0.8330 H   0  0  0  0  0  0  0  0  0  0  0  0
    6.1467   -0.8724   -2.4276 H   0  0  0  0  0  0  0  0  0  0  0  0
    3.5214    0.8514    2.3659 H   0  0  0  0  0  0  0  0  0  0  0  0
    4.0603    1.4898    0.7830 H   0  0  0  0  0  0  0  0  0  0  0  0
  1  2  2  0
  2  3  1  0
  3  4  1  0
  4  5  1  0
  5  6  1  0
  6  7  2  0
  7  8  1  0
  8  9  2  0
  9 10  1  0
 10 11  2  0
  2 12  1  0
 12 13  1  0
 13 14  2  0
 14 15  1  0
 15 16  1  0
 15 17  1  0
 17 18  1  0
 18 19  1  0
 19 20  1  0
 20 21  2  0
 21 22  1  0
 22 23  2  0
 23 24  1  0
 24 25  2  0
 18 26  1  0
 11  6  1  0
 16 12  2  0
 25 20  1  0
 26 14  1  0
  3 27  1  0
  4 28  1  0
  4 29  1  0
  5 30  1  0
  5 31  1  0
  7 32  1  0
  8 33  1  0
  9 34  1  0
 10 35  1  0
 11 36  1  0
 13 37  1  0
 17 38  1  0
 17 39  1  0
 18 40  1  1
 21 41  1  0
 22 42  1  0
 23 43  1  0
 25 44  1  0
 26 45  1  0
 26 46  1  0
M  END
$$$$
