
     RDKit          3D

 44 46  0  0  0  0  0  0  0  0999 V2000
    5.5923   -0.9035    0.6563 C   0  0  0  0  0  0  0  0  0  0  0  0
    4.2235   -1.3143    1.2014 C   0  0  0  0  0  0  0  0  0  0  0  0
    3.9152   -2.7777    0.8803 C   0  0  0  0  0  0  0  0  0  0  0  0
    3.1490   -0.3941    0.7936 N   0  0  0  0  0  0  0  0  0  0  0  0
    2.8611   -0.3751   -0.6531 C   0  0  0  0  0  0  0  0  0  0  0  0
    1.8726    0.7603   -0.9982 C   0  0  0  0  0  0  0  0  0  0  0  0
    2.3943    1.9872   -0.4543 O   0  0  0  0  0  0  0  0  0  0  0  0
    0.4646    0.5053   -0.4417 C   0  0  0  0  0  0  0  0  0  0  0  0
   -0.4626    1.3806   -1.1091 O   0  0  0  0  0  0  0  0  0  0  0  0
   -1.3882    1.8635   -0.2089 C   0  0  0  0  0  0  0  0  0  0  0  0
   -1.0993    3.0702    0.4394 C   0  0  0  0  0  0  0  0  0  0  0  0
   -1.9946    3.6030    1.3625 C   0  0  0  0  0  0  0  0  0  0  0  0
   -3.1981    2.9529    1.6539 C   0  0  0  0  0  0  0  0  0  0  0  0
   -3.4794    1.7598    0.9736 C   0  0  0  0  0  0  0  0  0  0  0  0
   -4.5750    0.9335    1.0556 N   0  0  0  0  0  0  0  0  0  0  0  0
   -4.4572   -0.1313    0.1944 C   0  0  0  0  0  0  0  0  0  0  0  0
   -5.3348   -1.1955   -0.0480 C   0  0  0  0  0  0  0  0  0  0  0  0
   -4.9583   -2.1404   -1.0067 C   0  0  0  0  0  0  0  0  0  0  0  0
   -3.7554   -2.0205   -1.6975 C   0  0  0  0  0  0  0  0  0  0  0  0
   -2.8908   -0.9501   -1.4411 C   0  0  0  0  0  0  0  0  0  0  0  0
   -3.2406    0.0139   -0.4716 C   0  0  0  0  0  0  0  0  0  0  0  0
   -2.6111    1.1992    0.0341 C   0  0  0  0  0  0  0  0  0  0  0  0
    6.3829   -1.4917    1.1353 H   0  0  0  0  0  0  0  0  0  0  0  0
    5.6739   -1.0644   -0.4236 H   0  0  0  0  0  0  0  0  0  0  0  0
    5.7969    0.1526    0.8638 H   0  0  0  0  0  0  0  0  0  0  0  0
    4.2852   -1.2311    2.2942 H   0  0  0  0  0  0  0  0  0  0  0  0
    2.9348   -3.0685    1.2739 H   0  0  0  0  0  0  0  0  0  0  0  0
    3.9242   -2.9723   -0.1974 H   0  0  0  0  0  0  0  0  0  0  0  0
    4.6622   -3.4341    1.3401 H   0  0  0  0  0  0  0  0  0  0  0  0
    2.3007   -0.6576    1.2991 H   0  0  0  0  0  0  0  0  0  0  0  0
    2.4576   -1.3348   -0.9936 H   0  0  0  0  0  0  0  0  0  0  0  0
    3.7851   -0.1738   -1.2054 H   0  0  0  0  0  0  0  0  0  0  0  0
    1.8249    0.8896   -2.0855 H   0  0  0  0  0  0  0  0  0  0  0  0
    2.8570    1.7200    0.3668 H   0  0  0  0  0  0  0  0  0  0  0  0
    0.4576    0.6543    0.6469 H   0  0  0  0  0  0  0  0  0  0  0  0
    0.1537   -0.5229   -0.6581 H   0  0  0  0  0  0  0  0  0  0  0  0
   -0.1659    3.5841    0.2215 H   0  0  0  0  0  0  0  0  0  0  0  0
   -1.7536    4.5377    1.8635 H   0  0  0  0  0  0  0  0  0  0  0  0
   -3.8919    3.3710    2.3762 H   0  0  0  0  0  0  0  0  0  0  0  0
   -5.3669    1.0936    1.6600 H   0  0  0  0  0  0  0  0  0  0  0  0
   -6.2782   -1.2866    0.4809 H   0  0  0  0  0  0  0  0  0  0  0  0
   -5.6194   -2.9771   -1.2211 H   0  0  0  0  0  0  0  0  0  0  0  0
   -3.4855   -2.7599   -2.4474 H   0  0  0  0  0  0  0  0  0  0  0  0
   -1.9627   -0.8549   -1.9965 H   0  0  0  0  0  0  0  0  0  0  0  0
  1  2  1  0
  2  3  1  0
  2  4  1  0
  4  5  1  0
  5  6  1  0
  6  7  1  0
  6  8  1  0
  8  9  1  0
  9 10  1  0
 10 11  2  0
 11 12  1  0
 12 13  2  0
 13 14  1  0
 14 15  1  0
 15 16  1  0
 16 17  2  0
 17 18  1  0
 18 19  2  0
 19 20  1  0
 20 21  2  0
 21 22  1  0
 22 10  1  0
 22 14  2  0
 21 16  1  0
  1 23  1  0
  1 24  1  0
  1 25  1  0
  2 26  1  0
  3 27  1  0
  3 28  1  0
  3 29  1  0
  4 30  1  0
  5 31  1  0
  5 32  1  0
  6 33  1  0
  7 34  1  0
  8 35  1  0
  8 36  1  0
 11 37  1  0
 12 38  1  0
 13 39  1  0
 15 40  1  0
 17 41  1  0
 18 42  1  0
 19 43  1  0
 20 44  1  0
M  END
$$$$
