
     RDKit          3D

 24 25  0  0  0  0  0  0  0  0999 V2000
   -1.0341   -0.5334   -1.6030 N   0  0  0  0  0  0  0  0  0  0  0  0
   -1.0495    0.0607   -0.2490 C   0  0  1  0  0  0  0  0  0  0  0  0
   -2.1610    1.1255   -0.1335 C   0  0  0  0  0  0  0  0  0  0  0  0
   -2.1614    2.1202    0.5740 O   0  0  0  0  0  0  0  0  0  0  0  0
   -3.2424    0.8447   -0.9008 O   0  0  0  0  0  0  0  0  0  0  0  0
   -1.2705   -1.0210    0.8320 C   0  0  0  0  0  0  0  0  0  0  0  0
    0.1244   -1.5651    1.1632 C   0  0  0  0  0  0  0  0  0  0  0  0
    1.0325   -0.3875    0.9612 C   0  0  1  0  0  0  0  0  0  0  0  0
    1.6212   -0.0848   -0.3940 C   0  0  2  0  0  0  0  0  0  0  0  0
    2.8382    0.7305   -0.5426 C   0  0  0  0  0  0  0  0  0  0  0  0
    2.9883    1.5812   -1.4028 O   0  0  0  0  0  0  0  0  0  0  0  0
    3.7996    0.4386    0.3530 O   0  0  0  0  0  0  0  0  0  0  0  0
    0.3371    0.5946    0.0609 C   0  0  1  0  0  0  0  0  0  0  0  0
   -0.8159    0.2065   -2.2715 H   0  0  0  0  0  0  0  0  0  0  0  0
   -1.9977   -0.8007   -1.8224 H   0  0  0  0  0  0  0  0  0  0  0  0
   -3.8569    1.5859   -0.7133 H   0  0  0  0  0  0  0  0  0  0  0  0
   -1.9572   -1.8151    0.5187 H   0  0  0  0  0  0  0  0  0  0  0  0
   -1.7004   -0.5689    1.7361 H   0  0  0  0  0  0  0  0  0  0  0  0
    0.1665   -1.9397    2.1905 H   0  0  0  0  0  0  0  0  0  0  0  0
    0.3946   -2.3846    0.4881 H   0  0  0  0  0  0  0  0  0  0  0  0
    1.5089   -0.0248    1.8612 H   0  0  0  0  0  0  0  0  0  0  0  0
    1.5398   -0.8548   -1.1538 H   0  0  0  0  0  0  0  0  0  0  0  0
    4.5278    1.0487    0.1175 H   0  0  0  0  0  0  0  0  0  0  0  0
    0.3681    1.6433    0.3303 H   0  0  0  0  0  0  0  0  0  0  0  0
  2  1  1  6
  2  3  1  0
  3  4  2  0
  3  5  1  0
  2  6  1  0
  6  7  1  0
  7  8  1  0
  8  9  1  0
  9 10  1  0
 10 11  2  0
 10 12  1  0
  9 13  1  0
 13  2  1  0
 13  8  1  0
  1 14  1  0
  1 15  1  0
  5 16  1  0
  6 17  1  0
  6 18  1  0
  7 19  1  0
  7 20  1  0
  8 21  1  1
  9 22  1  6
 12 23  1  0
 13 24  1  1
M  END
$$$$
