
     RDKit          3D

 69 71  0  0  0  0  0  0  0  0999 V2000
    4.1372   -2.0302    2.5735 C   0  0  0  0  0  0  0  0  0  0  0  0
    2.9101   -1.4019    2.2144 O   0  0  0  0  0  0  0  0  0  0  0  0
    3.0968   -0.3373    1.2698 C   0  0  0  0  0  0  0  0  0  0  0  0
    3.1293   -0.8708   -0.1714 C   0  0  2  0  0  0  0  0  0  0  0  0
    3.7488    0.0752   -1.0997 N   0  0  0  0  0  0  0  0  0  0  0  0
    5.1084    0.2857   -1.1270 C   0  0  0  0  0  0  0  0  0  0  0  0
    5.8410   -0.2771   -0.3139 O   0  0  0  0  0  0  0  0  0  0  0  0
    5.5753    1.1859   -2.1616 C   0  0  0  0  0  0  0  0  0  0  0  0
    4.8860    2.0408   -3.0000 C   0  0  0  0  0  0  0  0  0  0  0  0
    5.6537    2.7754   -3.8850 N   0  0  0  0  0  0  0  0  0  0  0  0
    6.9249    2.4815   -3.7127 C   0  0  0  0  0  0  0  0  0  0  0  0
    8.0324    3.0895   -4.5014 C   0  0  0  0  0  0  0  0  0  0  0  0
    7.2572    1.3154   -2.4955 S   0  0  0  0  0  0  0  0  0  0  0  0
    1.7016   -1.1366   -0.6881 C   0  0  0  0  0  0  0  0  0  0  0  0
    1.3063   -0.6764   -1.7624 O   0  0  0  0  0  0  0  0  0  0  0  0
    0.9317   -1.9632    0.0972 N   0  0  0  0  0  0  0  0  0  0  0  0
   -0.5061   -2.0729   -0.1413 C   0  0  1  0  0  0  0  0  0  0  0  0
   -1.0512   -3.3864    0.4375 C   0  0  0  0  0  0  0  0  0  0  0  0
   -0.7681   -3.4608    1.8393 O   0  0  0  0  0  0  0  0  0  0  0  0
   -1.3616   -4.6018    2.4399 C   0  0  0  0  0  0  0  0  0  0  0  0
   -1.2257   -0.8566    0.4869 C   0  0  0  0  0  0  0  0  0  0  0  0
   -0.6578   -0.0510    1.2225 O   0  0  0  0  0  0  0  0  0  0  0  0
   -2.5595   -0.7275    0.1444 N   0  0  0  0  0  0  0  0  0  0  0  0
   -3.4110    0.2573    0.8169 C   0  0  1  0  0  0  0  0  0  0  0  0
   -4.4690    0.8265   -0.1365 C   0  0  0  0  0  0  0  0  0  0  0  0
   -3.8986    1.6496   -1.2682 C   0  0  0  0  0  0  0  0  0  0  0  0
   -3.9905    1.1941   -2.5913 C   0  0  0  0  0  0  0  0  0  0  0  0
   -3.4877    1.9641   -3.6420 C   0  0  0  0  0  0  0  0  0  0  0  0
   -2.8886    3.1965   -3.3828 C   0  0  0  0  0  0  0  0  0  0  0  0
   -2.7861    3.6547   -2.0715 C   0  0  0  0  0  0  0  0  0  0  0  0
   -3.2896    2.8881   -1.0176 C   0  0  0  0  0  0  0  0  0  0  0  0
   -4.1307   -0.4915    1.9373 C   0  0  0  0  0  0  0  0  0  0  0  0
   -4.5813   -1.6295    1.7982 O   0  0  0  0  0  0  0  0  0  0  0  0
   -4.3314    0.2364    3.2223 C   0  0  1  0  0  0  0  0  0  0  0  0
   -5.4769    1.1938    3.3625 C   0  0  0  0  0  0  0  0  0  0  0  0
   -3.7565   -0.3855    4.4847 C   0  0  0  0  0  0  0  0  0  0  0  0
   -3.1167    0.7141    3.8254 O   0  0  0  0  0  0  0  0  0  0  0  0
    4.6112   -2.4934    1.7044 H   0  0  0  0  0  0  0  0  0  0  0  0
    4.8180   -1.3093    3.0341 H   0  0  0  0  0  0  0  0  0  0  0  0
    3.9195   -2.8137    3.3048 H   0  0  0  0  0  0  0  0  0  0  0  0
    4.0019    0.2234    1.5272 H   0  0  0  0  0  0  0  0  0  0  0  0
    2.2566    0.3543    1.3953 H   0  0  0  0  0  0  0  0  0  0  0  0
    3.6784   -1.8171   -0.2383 H   0  0  0  0  0  0  0  0  0  0  0  0
    3.1492    0.4140   -1.8446 H   0  0  0  0  0  0  0  0  0  0  0  0
    3.8114    2.1922   -3.0098 H   0  0  0  0  0  0  0  0  0  0  0  0
    7.9957    2.7301   -5.5350 H   0  0  0  0  0  0  0  0  0  0  0  0
    9.0198    2.8504   -4.0900 H   0  0  0  0  0  0  0  0  0  0  0  0
    7.9287    4.1800   -4.5157 H   0  0  0  0  0  0  0  0  0  0  0  0
    1.2002   -2.0325    1.0811 H   0  0  0  0  0  0  0  0  0  0  0  0
   -0.6882   -2.0456   -1.2234 H   0  0  0  0  0  0  0  0  0  0  0  0
   -2.1334   -3.4678    0.2795 H   0  0  0  0  0  0  0  0  0  0  0  0
   -0.5623   -4.2343   -0.0602 H   0  0  0  0  0  0  0  0  0  0  0  0
   -1.0451   -4.6386    3.4847 H   0  0  0  0  0  0  0  0  0  0  0  0
   -1.0295   -5.5177    1.9426 H   0  0  0  0  0  0  0  0  0  0  0  0
   -2.4506   -4.5228    2.4081 H   0  0  0  0  0  0  0  0  0  0  0  0
   -3.0384   -1.5320   -0.2442 H   0  0  0  0  0  0  0  0  0  0  0  0
   -2.7928    1.0521    1.2438 H   0  0  0  0  0  0  0  0  0  0  0  0
   -5.0763    0.0095   -0.5464 H   0  0  0  0  0  0  0  0  0  0  0  0
   -5.1755    1.4606    0.4115 H   0  0  0  0  0  0  0  0  0  0  0  0
   -4.4552    0.2351   -2.8140 H   0  0  0  0  0  0  0  0  0  0  0  0
   -3.5692    1.6076   -4.6652 H   0  0  0  0  0  0  0  0  0  0  0  0
   -2.4986    3.7953   -4.2021 H   0  0  0  0  0  0  0  0  0  0  0  0
   -2.3175    4.6160   -1.8682 H   0  0  0  0  0  0  0  0  0  0  0  0
   -3.1976    3.2668   -0.0025 H   0  0  0  0  0  0  0  0  0  0  0  0
   -5.5416    1.6027    4.3776 H   0  0  0  0  0  0  0  0  0  0  0  0
   -5.3470    2.0388    2.6779 H   0  0  0  0  0  0  0  0  0  0  0  0
   -6.4231    0.6925    3.1394 H   0  0  0  0  0  0  0  0  0  0  0  0
   -4.2485   -0.1969    5.4321 H   0  0  0  0  0  0  0  0  0  0  0  0
   -3.2968   -1.3671    4.4125 H   0  0  0  0  0  0  0  0  0  0  0  0
  1  2  1  0
  2  3  1  0
  3  4  1  0
  4  5  1  0
  5  6  1  0
  6  7  2  0
  6  8  1  0
  8  9  2  0
  9 10  1  0
 10 11  2  0
 11 12  1  0
 11 13  1  0
  4 14  1  0
 14 15  2  0
 14 16  1  0
 16 17  1  0
 17 18  1  0
 18 19  1  0
 19 20  1  0
 17 21  1  0
 21 22  2  0
 21 23  1  0
 23 24  1  0
 24 25  1  0
 25 26  1  0
 26 27  2  0
 27 28  1  0
 28 29  2  0
 29 30  1  0
 30 31  2  0
 24 32  1  0
 32 33  2  0
 32 34  1  0
 34 35  1  1
 34 36  1  0
 36 37  1  0
 13  8  1  0
 31 26  1  0
 37 34  1  0
  1 38  1  0
  1 39  1  0
  1 40  1  0
  3 41  1  0
  3 42  1  0
  4 43  1  1
  5 44  1  0
  9 45  1  0
 12 46  1  0
 12 47  1  0
 12 48  1  0
 16 49  1  0
 17 50  1  6
 18 51  1  0
 18 52  1  0
 20 53  1  0
 20 54  1  0
 20 55  1  0
 23 56  1  0
 24 57  1  1
 25 58  1  0
 25 59  1  0
 27 60  1  0
 28 61  1  0
 29 62  1  0
 30 63  1  0
 31 64  1  0
 35 65  1  0
 35 66  1  0
 35 67  1  0
 36 68  1  0
 36 69  1  0
M  END
$$$$
