
     RDKit          3D

 40 42  0  0  0  0  0  0  0  0999 V2000
   -4.5843   -3.2617    0.2744 C   0  0  0  0  0  0  0  0  0  0  0  0
   -3.8746   -1.9650    0.0393 C   0  0  0  0  0  0  0  0  0  0  0  0
   -2.5343   -1.9754    0.0707 N   0  0  0  0  0  0  0  0  0  0  0  0
   -1.9313   -0.7894   -0.1191 C   0  0  0  0  0  0  0  0  0  0  0  0
   -0.5470   -0.7408   -0.0879 O   0  0  0  0  0  0  0  0  0  0  0  0
    0.0597   -2.0285    0.0411 C   0  0  0  0  0  0  0  0  0  0  0  0
    1.5878   -1.9169    0.0660 C   0  0  0  0  0  0  0  0  0  0  0  0
    2.2878   -2.9222   -0.0166 O   0  0  0  0  0  0  0  0  0  0  0  0
    2.0259   -0.6119    0.2120 N   0  0  0  0  0  0  0  0  0  0  0  0
    3.3484   -0.1253    0.2919 C   0  0  0  0  0  0  0  0  0  0  0  0
    4.4622   -0.9710    0.2382 C   0  0  0  0  0  0  0  0  0  0  0  0
    5.7596   -0.4581    0.3199 C   0  0  0  0  0  0  0  0  0  0  0  0
    5.9617    0.9092    0.4568 C   0  0  0  0  0  0  0  0  0  0  0  0
    4.8654    1.7663    0.5127 C   0  0  0  0  0  0  0  0  0  0  0  0
    3.5531    1.2657    0.4324 C   0  0  0  0  0  0  0  0  0  0  0  0
    2.4124    2.2459    0.4986 C   0  0  0  0  0  0  0  0  0  0  0  0
   -2.6088    0.4120   -0.3297 C   0  0  0  0  0  0  0  0  0  0  0  0
   -1.9949    1.6725   -0.5336 C   0  0  0  0  0  0  0  0  0  0  0  0
   -2.7706    2.8112   -0.7330 C   0  0  0  0  0  0  0  0  0  0  0  0
   -4.1552    2.6999   -0.7303 C   0  0  0  0  0  0  0  0  0  0  0  0
   -4.7531    1.4513   -0.5299 C   0  0  0  0  0  0  0  0  0  0  0  0
   -4.0013    0.2995   -0.3297 C   0  0  0  0  0  0  0  0  0  0  0  0
   -4.6301   -0.8683   -0.1444 N   0  0  0  0  0  0  0  0  0  0  0  0
   -3.9769   -4.1024   -0.0748 H   0  0  0  0  0  0  0  0  0  0  0  0
   -4.7784   -3.3865    1.3436 H   0  0  0  0  0  0  0  0  0  0  0  0
   -5.5375   -3.2817   -0.2627 H   0  0  0  0  0  0  0  0  0  0  0  0
   -0.2035   -2.6565   -0.8186 H   0  0  0  0  0  0  0  0  0  0  0  0
   -0.2375   -2.5019    0.9846 H   0  0  0  0  0  0  0  0  0  0  0  0
    1.2784    0.0705    0.2520 H   0  0  0  0  0  0  0  0  0  0  0  0
    4.3579   -2.0461    0.1320 H   0  0  0  0  0  0  0  0  0  0  0  0
    6.6094   -1.1345    0.2757 H   0  0  0  0  0  0  0  0  0  0  0  0
    6.9708    1.3076    0.5203 H   0  0  0  0  0  0  0  0  0  0  0  0
    5.0423    2.8344    0.6205 H   0  0  0  0  0  0  0  0  0  0  0  0
    1.7667    2.0217    1.3539 H   0  0  0  0  0  0  0  0  0  0  0  0
    1.8261    2.2088   -0.4253 H   0  0  0  0  0  0  0  0  0  0  0  0
    2.7686    3.2746    0.6193 H   0  0  0  0  0  0  0  0  0  0  0  0
   -0.9115    1.7611   -0.5405 H   0  0  0  0  0  0  0  0  0  0  0  0
   -2.2986    3.7775   -0.8910 H   0  0  0  0  0  0  0  0  0  0  0  0
   -4.7762    3.5789   -0.8849 H   0  0  0  0  0  0  0  0  0  0  0  0
   -5.8385    1.3753   -0.5311 H   0  0  0  0  0  0  0  0  0  0  0  0
  1  2  1  0
  2  3  2  0
  3  4  1  0
  4  5  1  0
  5  6  1  0
  6  7  1  0
  7  8  2  0
  7  9  1  0
  9 10  1  0
 10 11  2  0
 11 12  1  0
 12 13  2  0
 13 14  1  0
 14 15  2  0
 15 16  1  0
  4 17  2  0
 17 18  1  0
 18 19  2  0
 19 20  1  0
 20 21  2  0
 21 22  1  0
 22 23  2  0
 23  2  1  0
 15 10  1  0
 22 17  1  0
  1 24  1  0
  1 25  1  0
  1 26  1  0
  6 27  1  0
  6 28  1  0
  9 29  1  0
 11 30  1  0
 12 31  1  0
 13 32  1  0
 14 33  1  0
 16 34  1  0
 16 35  1  0
 16 36  1  0
 18 37  1  0
 19 38  1  0
 20 39  1  0
 21 40  1  0
M  END
$$$$
