
     RDKit          3D

 54 57  0  0  0  0  0  0  0  0999 V2000
    5.3656   -3.2672    0.7043 C   0  0  0  0  0  0  0  0  0  0  0  0
    4.9636   -1.8094    0.8995 C   0  0  0  0  0  0  0  0  0  0  0  0
    3.7858   -1.4292    0.1059 N   0  0  0  0  0  0  0  0  0  0  0  0
    2.5538   -2.0873    0.5856 C   0  0  0  0  0  0  0  0  0  0  0  0
    1.2955   -1.6228   -0.1861 C   0  0  0  0  0  0  0  0  0  0  0  0
    1.0927   -0.1581   -0.1241 N   0  0  0  0  0  0  0  0  0  0  0  0
   -0.0943    0.2752   -0.9162 C   0  0  0  0  0  0  0  0  0  0  0  0
   -0.3554    1.7895   -0.8720 C   0  0  0  0  0  0  0  0  0  0  0  0
   -0.6970    2.4768   -2.0486 C   0  0  0  0  0  0  0  0  0  0  0  0
   -0.9568    3.8500   -2.0254 C   0  0  0  0  0  0  0  0  0  0  0  0
   -0.8940    4.5684   -0.8228 C   0  0  0  0  0  0  0  0  0  0  0  0
   -1.1538    6.0531   -0.7995 C   0  0  0  0  0  0  0  0  0  0  0  0
   -1.6922    6.4879    0.3744 F   0  0  0  0  0  0  0  0  0  0  0  0
   -2.0155    6.4619   -1.7741 F   0  0  0  0  0  0  0  0  0  0  0  0
   -0.0169    6.7812   -0.9807 F   0  0  0  0  0  0  0  0  0  0  0  0
   -0.5512    3.8873    0.3529 C   0  0  0  0  0  0  0  0  0  0  0  0
   -0.2912    2.5152    0.3278 C   0  0  0  0  0  0  0  0  0  0  0  0
   -1.3948   -0.4890   -0.6280 C   0  0  0  0  0  0  0  0  0  0  0  0
   -2.0960   -1.0501   -1.7113 C   0  0  0  0  0  0  0  0  0  0  0  0
   -3.2953   -1.7387   -1.5165 C   0  0  0  0  0  0  0  0  0  0  0  0
   -3.8282   -1.8826   -0.2273 C   0  0  0  0  0  0  0  0  0  0  0  0
   -5.0280   -2.5670    0.0095 C   0  0  0  0  0  0  0  0  0  0  0  0
   -5.5125   -2.6835    1.3069 C   0  0  0  0  0  0  0  0  0  0  0  0
   -4.7790   -2.1107    2.3288 C   0  0  0  0  0  0  0  0  0  0  0  0
   -3.6186   -1.4433    2.1421 N   0  0  0  0  0  0  0  0  0  0  0  0
   -3.1538   -1.3312    0.8773 C   0  0  0  0  0  0  0  0  0  0  0  0
   -1.9568   -0.6456    0.6497 C   0  0  0  0  0  0  0  0  0  0  0  0
   -1.3253   -0.1274    1.7592 O   0  0  0  0  0  0  0  0  0  0  0  0
    2.3328    0.4931   -0.6083 C   0  0  0  0  0  0  0  0  0  0  0  0
    3.5855    0.0337    0.1706 C   0  0  0  0  0  0  0  0  0  0  0  0
    4.6295   -3.9547    1.1315 H   0  0  0  0  0  0  0  0  0  0  0  0
    6.3213   -3.4595    1.2033 H   0  0  0  0  0  0  0  0  0  0  0  0
    5.4889   -3.5046   -0.3576 H   0  0  0  0  0  0  0  0  0  0  0  0
    4.8073   -1.6094    1.9672 H   0  0  0  0  0  0  0  0  0  0  0  0
    5.8184   -1.1983    0.5826 H   0  0  0  0  0  0  0  0  0  0  0  0
    2.4065   -1.8973    1.6574 H   0  0  0  0  0  0  0  0  0  0  0  0
    2.6332   -3.1717    0.4529 H   0  0  0  0  0  0  0  0  0  0  0  0
    1.3746   -1.9550   -1.2305 H   0  0  0  0  0  0  0  0  0  0  0  0
    0.4448   -2.1493    0.2595 H   0  0  0  0  0  0  0  0  0  0  0  0
    0.1669    0.0479   -1.9615 H   0  0  0  0  0  0  0  0  0  0  0  0
   -0.7642    1.9443   -2.9949 H   0  0  0  0  0  0  0  0  0  0  0  0
   -1.2151    4.3584   -2.9532 H   0  0  0  0  0  0  0  0  0  0  0  0
   -0.4889    4.4200    1.3005 H   0  0  0  0  0  0  0  0  0  0  0  0
   -0.0304    2.0043    1.2536 H   0  0  0  0  0  0  0  0  0  0  0  0
   -1.7112   -0.9516   -2.7248 H   0  0  0  0  0  0  0  0  0  0  0  0
   -3.8103   -2.1593   -2.3775 H   0  0  0  0  0  0  0  0  0  0  0  0
   -5.5867   -3.0092   -0.8114 H   0  0  0  0  0  0  0  0  0  0  0  0
   -6.4385   -3.2076    1.5147 H   0  0  0  0  0  0  0  0  0  0  0  0
   -5.1150   -2.1744    3.3602 H   0  0  0  0  0  0  0  0  0  0  0  0
   -1.9099   -0.3773    2.5059 H   0  0  0  0  0  0  0  0  0  0  0  0
    2.4831    0.2875   -1.6771 H   0  0  0  0  0  0  0  0  0  0  0  0
    2.2690    1.5805   -0.4946 H   0  0  0  0  0  0  0  0  0  0  0  0
    3.5014    0.3673    1.2141 H   0  0  0  0  0  0  0  0  0  0  0  0
    4.4567    0.5390   -0.2641 H   0  0  0  0  0  0  0  0  0  0  0  0
  1  2  1  0
  2  3  1  0
  3  4  1  0
  4  5  1  0
  5  6  1  0
  6  7  1  0
  7  8  1  0
  8  9  2  0
  9 10  1  0
 10 11  2  0
 11 12  1  0
 12 13  1  0
 12 14  1  0
 12 15  1  0
 11 16  1  0
 16 17  2  0
  7 18  1  0
 18 19  2  0
 19 20  1  0
 20 21  2  0
 21 22  1  0
 22 23  2  0
 23 24  1  0
 24 25  2  0
 25 26  1  0
 26 27  2  0
 27 28  1  0
  6 29  1  0
 29 30  1  0
 30  3  1  0
 17  8  1  0
 27 18  1  0
 26 21  1  0
  1 31  1  0
  1 32  1  0
  1 33  1  0
  2 34  1  0
  2 35  1  0
  4 36  1  0
  4 37  1  0
  5 38  1  0
  5 39  1  0
  7 40  1  0
  9 41  1  0
 10 42  1  0
 16 43  1  0
 17 44  1  0
 19 45  1  0
 20 46  1  0
 22 47  1  0
 23 48  1  0
 24 49  1  0
 28 50  1  0
 29 51  1  0
 29 52  1  0
 30 53  1  0
 30 54  1  0
M  END
$$$$
