
     RDKit          3D

 45 48  0  0  0  0  0  0  0  0999 V2000
    9.9799    1.3459    0.1861 O   0  0  0  0  0  0  0  0  0  0  0  0
    9.0500    0.5579    0.1033 C   0  0  0  0  0  0  0  0  0  0  0  0
    8.8076   -0.0761   -1.0605 O   0  0  0  0  0  0  0  0  0  0  0  0
    8.1504    0.1534    1.2249 C   0  0  0  0  0  0  0  0  0  0  0  0
    6.7673    0.3702    0.8888 N   0  0  0  0  0  0  0  0  0  0  0  0
    6.2754    1.6041    0.6756 N   0  0  0  0  0  0  0  0  0  0  0  0
    4.9698    1.4276    0.5322 N   0  0  0  0  0  0  0  0  0  0  0  0
    4.7329    0.0870    0.7068 C   0  0  0  0  0  0  0  0  0  0  0  0
    3.3167   -0.5338    0.6344 C   0  0  0  0  0  0  0  0  0  0  0  0
    2.1461    0.1454    0.3995 C   0  0  0  0  0  0  0  0  0  0  0  0
    1.1291   -0.8399    0.4272 C   0  0  0  0  0  0  0  0  0  0  0  0
   -0.2004   -0.5942    0.2394 N   0  0  0  0  0  0  0  0  0  0  0  0
   -0.7150    0.6914   -0.2315 C   0  0  0  0  0  0  0  0  0  0  0  0
   -1.9192    0.4750   -1.1438 C   0  0  0  0  0  0  0  0  0  0  0  0
   -3.0479   -0.2780   -0.4330 C   0  0  0  0  0  0  0  0  0  0  0  0
   -3.9959    0.6822    0.0721 O   0  0  0  0  0  0  0  0  0  0  0  0
   -5.2519    0.5357   -0.4554 C   0  0  0  0  0  0  0  0  0  0  0  0
   -5.4717    0.7598   -1.8160 C   0  0  0  0  0  0  0  0  0  0  0  0
   -6.7615    0.6552   -2.3237 C   0  0  0  0  0  0  0  0  0  0  0  0
   -6.9734    0.8733   -3.6287 F   0  0  0  0  0  0  0  0  0  0  0  0
   -7.8376    0.3438   -1.4990 C   0  0  0  0  0  0  0  0  0  0  0  0
   -7.6243    0.1426   -0.1357 C   0  0  0  0  0  0  0  0  0  0  0  0
   -6.3319    0.2483    0.3878 C   0  0  0  0  0  0  0  0  0  0  0  0
   -6.0917   -0.0142    2.2512 Br  0  0  0  0  0  0  0  0  0  0  0  0
   -2.5467   -1.0959    0.7590 C   0  0  0  0  0  0  0  0  0  0  0  0
   -1.1633   -1.6701    0.4921 C   0  0  0  0  0  0  0  0  0  0  0  0
    1.6647   -2.0429    0.6753 N   0  0  0  0  0  0  0  0  0  0  0  0
    3.0260   -1.8508    0.7990 O   0  0  0  0  0  0  0  0  0  0  0  0
    5.8489   -0.6144    0.9574 N   0  0  0  0  0  0  0  0  0  0  0  0
    9.4603    0.2987   -1.6908 H   0  0  0  0  0  0  0  0  0  0  0  0
    8.3698    0.7558    2.1118 H   0  0  0  0  0  0  0  0  0  0  0  0
    8.3125   -0.9014    1.4676 H   0  0  0  0  0  0  0  0  0  0  0  0
    2.0544    1.2077    0.2404 H   0  0  0  0  0  0  0  0  0  0  0  0
    0.0375    1.2384   -0.8115 H   0  0  0  0  0  0  0  0  0  0  0  0
   -0.9864    1.3185    0.6268 H   0  0  0  0  0  0  0  0  0  0  0  0
   -1.5930   -0.1154   -2.0102 H   0  0  0  0  0  0  0  0  0  0  0  0
   -2.2693    1.4410   -1.5241 H   0  0  0  0  0  0  0  0  0  0  0  0
   -3.5137   -0.9638   -1.1546 H   0  0  0  0  0  0  0  0  0  0  0  0
   -4.6599    1.0336   -2.4805 H   0  0  0  0  0  0  0  0  0  0  0  0
   -8.8350    0.2716   -1.9215 H   0  0  0  0  0  0  0  0  0  0  0  0
   -8.4686   -0.0892    0.5098 H   0  0  0  0  0  0  0  0  0  0  0  0
   -2.5225   -0.4741    1.6638 H   0  0  0  0  0  0  0  0  0  0  0  0
   -3.2579   -1.9027    0.9720 H   0  0  0  0  0  0  0  0  0  0  0  0
   -0.8677   -2.2602    1.3681 H   0  0  0  0  0  0  0  0  0  0  0  0
   -1.1929   -2.3469   -0.3704 H   0  0  0  0  0  0  0  0  0  0  0  0
  1  2  2  0
  2  3  1  0
  2  4  1  0
  4  5  1  0
  5  6  1  0
  6  7  2  0
  7  8  1  0
  8  9  1  0
  9 10  2  0
 10 11  1  0
 11 12  1  0
 12 13  1  0
 13 14  1  0
 14 15  1  0
 15 16  1  0
 16 17  1  0
 17 18  2  0
 18 19  1  0
 19 20  1  0
 19 21  2  0
 21 22  1  0
 22 23  2  0
 23 24  1  0
 15 25  1  0
 25 26  1  0
 11 27  2  0
 27 28  1  0
  8 29  2  0
 29  5  1  0
 28  9  1  0
 26 12  1  0
 23 17  1  0
  3 30  1  0
  4 31  1  0
  4 32  1  0
 10 33  1  0
 13 34  1  0
 13 35  1  0
 14 36  1  0
 14 37  1  0
 15 38  1  0
 18 39  1  0
 21 40  1  0
 22 41  1  0
 25 42  1  0
 25 43  1  0
 26 44  1  0
 26 45  1  0
M  END
$$$$
