
     RDKit          3D

 46 46  0  0  0  0  0  0  0  0999 V2000
   -4.8404   -0.4150    1.7717 C   0  0  0  0  0  0  0  0  0  0  0  0
   -5.0000   -0.1666    0.2708 C   0  0  0  0  0  0  0  0  0  0  0  0
   -6.2402    0.6970    0.0214 C   0  0  0  0  0  0  0  0  0  0  0  0
   -3.7630    0.5141   -0.3484 C   0  0  0  0  0  0  0  0  0  0  0  0
   -2.4548   -0.2820   -0.2541 C   0  0  2  0  0  0  0  0  0  0  0  0
   -1.3407    0.5515   -0.7146 N   0  0  0  0  0  0  0  0  0  0  0  0
   -0.0427    0.3002   -0.3118 C   0  0  0  0  0  0  0  0  0  0  0  0
    0.2359   -0.4966    0.5775 O   0  0  0  0  0  0  0  0  0  0  0  0
    1.0006    1.1058   -1.1153 C   0  0  1  0  0  0  0  0  0  0  0  0
    0.5450    2.4682   -1.2321 O   0  0  0  0  0  0  0  0  0  0  0  0
    2.4100    1.0772   -0.4715 C   0  0  2  0  0  0  0  0  0  0  0  0
    3.2591    2.1450   -1.0674 N   0  0  0  0  0  0  0  0  0  0  0  0
    3.0863   -0.3039   -0.6369 C   0  0  0  0  0  0  0  0  0  0  0  0
    4.1569   -0.5661    0.3970 C   0  0  0  0  0  0  0  0  0  0  0  0
    3.8167   -1.1338    1.6332 C   0  0  0  0  0  0  0  0  0  0  0  0
    4.7992   -1.3724    2.5961 C   0  0  0  0  0  0  0  0  0  0  0  0
    6.1275   -1.0422    2.3342 C   0  0  0  0  0  0  0  0  0  0  0  0
    6.4746   -0.4694    1.1117 C   0  0  0  0  0  0  0  0  0  0  0  0
    5.4937   -0.2290    0.1481 C   0  0  0  0  0  0  0  0  0  0  0  0
   -2.4992   -1.5208   -1.1531 C   0  0  0  0  0  0  0  0  0  0  0  0
   -2.1533   -1.5791   -2.3249 O   0  0  0  0  0  0  0  0  0  0  0  0
   -2.9963   -2.6106   -0.5344 O   0  0  0  0  0  0  0  0  0  0  0  0
   -4.0417   -1.1347    1.9763 H   0  0  0  0  0  0  0  0  0  0  0  0
   -5.7623   -0.8281    2.1958 H   0  0  0  0  0  0  0  0  0  0  0  0
   -4.6100    0.5144    2.3053 H   0  0  0  0  0  0  0  0  0  0  0  0
   -5.1689   -1.1313   -0.2223 H   0  0  0  0  0  0  0  0  0  0  0  0
   -7.1369    0.2173    0.4282 H   0  0  0  0  0  0  0  0  0  0  0  0
   -6.4009    0.8465   -1.0519 H   0  0  0  0  0  0  0  0  0  0  0  0
   -6.1402    1.6829    0.4900 H   0  0  0  0  0  0  0  0  0  0  0  0
   -3.6188    1.4913    0.1332 H   0  0  0  0  0  0  0  0  0  0  0  0
   -3.9730    0.7283   -1.4057 H   0  0  0  0  0  0  0  0  0  0  0  0
   -2.2340   -0.5931    0.7717 H   0  0  0  0  0  0  0  0  0  0  0  0
   -1.4477    1.0438   -1.5963 H   0  0  0  0  0  0  0  0  0  0  0  0
    1.0382    0.6923   -2.1312 H   0  0  0  0  0  0  0  0  0  0  0  0
    0.5235    2.8258   -0.3238 H   0  0  0  0  0  0  0  0  0  0  0  0
    2.3059    1.3214    0.5939 H   0  0  0  0  0  0  0  0  0  0  0  0
    2.6926    2.9937   -1.1473 H   0  0  0  0  0  0  0  0  0  0  0  0
    3.4820    1.8986   -2.0314 H   0  0  0  0  0  0  0  0  0  0  0  0
    3.5159   -0.4041   -1.6443 H   0  0  0  0  0  0  0  0  0  0  0  0
    2.3523   -1.1154   -0.5734 H   0  0  0  0  0  0  0  0  0  0  0  0
    2.7815   -1.3910    1.8516 H   0  0  0  0  0  0  0  0  0  0  0  0
    4.5254   -1.8128    3.5509 H   0  0  0  0  0  0  0  0  0  0  0  0
    6.8911   -1.2255    3.0845 H   0  0  0  0  0  0  0  0  0  0  0  0
    7.5086   -0.2029    0.9098 H   0  0  0  0  0  0  0  0  0  0  0  0
    5.7759    0.2322   -0.7951 H   0  0  0  0  0  0  0  0  0  0  0  0
   -2.9335   -3.3213   -1.2070 H   0  0  0  0  0  0  0  0  0  0  0  0
  1  2  1  0
  2  3  1  0
  2  4  1  0
  4  5  1  0
  5  6  1  0
  6  7  1  0
  7  8  2  0
  7  9  1  0
  9 10  1  0
  9 11  1  0
 11 12  1  0
 11 13  1  0
 13 14  1  0
 14 15  2  0
 15 16  1  0
 16 17  2  0
 17 18  1  0
 18 19  2  0
  5 20  1  0
 20 21  2  0
 20 22  1  0
 19 14  1  0
  1 23  1  0
  1 24  1  0
  1 25  1  0
  2 26  1  0
  3 27  1  0
  3 28  1  0
  3 29  1  0
  4 30  1  0
  4 31  1  0
  5 32  1  1
  6 33  1  0
  9 34  1  6
 10 35  1  0
 11 36  1  1
 12 37  1  0
 12 38  1  0
 13 39  1  0
 13 40  1  0
 15 41  1  0
 16 42  1  0
 17 43  1  0
 18 44  1  0
 19 45  1  0
 22 46  1  0
M  END
$$$$
