
     RDKit          3D

 77 79  0  0  0  0  0  0  0  0999 V2000
    6.1190    3.1516   -1.0014 C   0  0  0  0  0  0  0  0  0  0  0  0
    5.6072    2.0613   -0.2386 O   0  0  0  0  0  0  0  0  0  0  0  0
    6.0625    0.8272   -0.6422 C   0  0  0  0  0  0  0  0  0  0  0  0
    7.4333    0.6224   -0.8844 C   0  0  0  0  0  0  0  0  0  0  0  0
    7.9176   -0.6421   -1.2199 C   0  0  0  0  0  0  0  0  0  0  0  0
    7.0401   -1.7127   -1.3087 C   0  0  0  0  0  0  0  0  0  0  0  0
    5.6821   -1.5166   -1.0473 C   0  0  0  0  0  0  0  0  0  0  0  0
    5.1517   -0.2536   -0.7004 C   0  0  0  0  0  0  0  0  0  0  0  0
    3.7707   -0.1721   -0.4731 N   0  0  0  0  0  0  0  0  0  0  0  0
    3.0572    1.1037   -0.6112 C   0  0  0  0  0  0  0  0  0  0  0  0
    1.5447    0.8180   -0.8047 C   0  0  0  0  0  0  0  0  0  0  0  0
    0.9094   -0.0835    0.1962 N   0  0  0  0  0  0  0  0  0  0  0  0
    0.2195   -1.2036   -0.4826 C   0  0  0  0  0  0  0  0  0  0  0  0
   -0.8685   -1.8891    0.3782 C   0  0  0  0  0  0  0  0  0  0  0  0
   -2.1602   -1.1800    0.3603 N   0  0  0  0  0  0  0  0  0  0  0  0
   -3.0102   -1.5242   -0.6894 C   0  0  0  0  0  0  0  0  0  0  0  0
   -2.5891   -2.2211   -1.6302 O   0  0  0  0  0  0  0  0  0  0  0  0
   -4.5024   -1.1670   -0.7227 C   0  0  0  0  0  0  0  0  0  0  0  0
   -5.2650   -1.3525    0.5936 C   0  0  0  0  0  0  0  0  0  0  0  0
   -6.7766   -1.2369    0.3778 C   0  0  0  0  0  0  0  0  0  0  0  0
   -7.1838   -0.1424   -0.6157 C   0  0  0  0  0  0  0  0  0  0  0  0
   -6.0613    0.8457   -0.9180 C   0  0  0  0  0  0  0  0  0  0  0  0
   -4.8256    0.1337   -1.4705 C   0  0  0  0  0  0  0  0  0  0  0  0
   -2.3130   -0.0247    1.1881 C   0  0  0  0  0  0  0  0  0  0  0  0
   -1.5923    0.1235    2.3748 C   0  0  0  0  0  0  0  0  0  0  0  0
   -1.7375    1.2782    3.1522 C   0  0  0  0  0  0  0  0  0  0  0  0
   -2.5911    2.2775    2.7274 C   0  0  0  0  0  0  0  0  0  0  0  0
   -3.2680    2.0704    1.5441 C   0  0  0  0  0  0  0  0  0  0  0  0
   -3.1502    0.9516    0.7886 N   0  0  0  0  0  0  0  0  0  0  0  0
    1.9121   -0.5451    1.1811 C   0  0  0  0  0  0  0  0  0  0  0  0
    3.2604   -1.0498    0.6030 C   0  0  0  0  0  0  0  0  0  0  0  0
   -1.6525   -0.7167   -0.5335 O   0  0  0  0  0  0  0  0  0  0  0  0
   -1.4773   -0.0549    0.4698 C   0  0  0  0  0  0  0  0  0  0  0  0
   -2.3698   -0.0229    1.4725 O   0  0  0  0  0  0  0  0  0  0  0  0
   -0.3630    0.8506    0.7749 C   0  0  0  0  0  0  0  0  0  0  0  0
    0.8869    0.6839    0.3251 C   0  0  0  0  0  0  0  0  0  0  0  0
    1.3388   -0.4921   -0.4238 C   0  0  0  0  0  0  0  0  0  0  0  0
    1.0471   -1.6541   -0.2247 O   0  0  0  0  0  0  0  0  0  0  0  0
    2.1989   -0.1174   -1.3805 O   0  0  0  0  0  0  0  0  0  0  0  0
    7.0914    3.4704   -0.6133 H   0  0  0  0  0  0  0  0  0  0  0  0
    6.1807    2.9144   -2.0713 H   0  0  0  0  0  0  0  0  0  0  0  0
    5.4243    3.9887   -0.8872 H   0  0  0  0  0  0  0  0  0  0  0  0
    8.1461    1.4383   -0.7903 H   0  0  0  0  0  0  0  0  0  0  0  0
    8.9785   -0.7877   -1.4045 H   0  0  0  0  0  0  0  0  0  0  0  0
    7.4029   -2.7006   -1.5757 H   0  0  0  0  0  0  0  0  0  0  0  0
    5.0142   -2.3725   -1.1425 H   0  0  0  0  0  0  0  0  0  0  0  0
    3.4058    1.6534   -1.4948 H   0  0  0  0  0  0  0  0  0  0  0  0
    3.1975    1.7355    0.2750 H   0  0  0  0  0  0  0  0  0  0  0  0
    1.4168    0.4239   -1.8238 H   0  0  0  0  0  0  0  0  0  0  0  0
    1.0049    1.7742   -0.7831 H   0  0  0  0  0  0  0  0  0  0  0  0
   -0.2738   -0.8356   -1.3911 H   0  0  0  0  0  0  0  0  0  0  0  0
    0.9524   -1.9532   -0.8077 H   0  0  0  0  0  0  0  0  0  0  0  0
   -0.5410   -2.0946    1.3990 H   0  0  0  0  0  0  0  0  0  0  0  0
   -1.0297   -2.8923   -0.0407 H   0  0  0  0  0  0  0  0  0  0  0  0
   -4.9211   -1.9630   -1.3646 H   0  0  0  0  0  0  0  0  0  0  0  0
   -5.0293   -2.3280    1.0384 H   0  0  0  0  0  0  0  0  0  0  0  0
   -4.9774   -0.6077    1.3397 H   0  0  0  0  0  0  0  0  0  0  0  0
   -7.1681   -2.1976    0.0166 H   0  0  0  0  0  0  0  0  0  0  0  0
   -7.2609   -1.0567    1.3476 H   0  0  0  0  0  0  0  0  0  0  0  0
   -7.5024   -0.6129   -1.5556 H   0  0  0  0  0  0  0  0  0  0  0  0
   -8.0588    0.3943   -0.2310 H   0  0  0  0  0  0  0  0  0  0  0  0
   -6.4050    1.5926   -1.6428 H   0  0  0  0  0  0  0  0  0  0  0  0
   -5.8062    1.3911   -0.0035 H   0  0  0  0  0  0  0  0  0  0  0  0
   -5.0144   -0.1217   -2.5231 H   0  0  0  0  0  0  0  0  0  0  0  0
   -3.9770    0.8216   -1.5052 H   0  0  0  0  0  0  0  0  0  0  0  0
   -0.9176   -0.6367    2.7435 H   0  0  0  0  0  0  0  0  0  0  0  0
   -1.1758    1.3851    4.0762 H   0  0  0  0  0  0  0  0  0  0  0  0
   -2.7246    3.1892    3.3000 H   0  0  0  0  0  0  0  0  0  0  0  0
   -3.9455    2.8229    1.1498 H   0  0  0  0  0  0  0  0  0  0  0  0
    1.4978   -1.3142    1.8423 H   0  0  0  0  0  0  0  0  0  0  0  0
    2.1200    0.3032    1.8472 H   0  0  0  0  0  0  0  0  0  0  0  0
    3.9810   -1.1025    1.4348 H   0  0  0  0  0  0  0  0  0  0  0  0
    3.1213   -2.0691    0.2134 H   0  0  0  0  0  0  0  0  0  0  0  0
   -3.0593   -0.6575    1.1844 H   0  0  0  0  0  0  0  0  0  0  0  0
   -0.6171    1.7152    1.3770 H   0  0  0  0  0  0  0  0  0  0  0  0
    1.6498    1.4265    0.5281 H   0  0  0  0  0  0  0  0  0  0  0  0
    2.4175   -0.9606   -1.8279 H   0  0  0  0  0  0  0  0  0  0  0  0
  1  2  1  0
  2  3  1  0
  3  4  2  0
  4  5  1  0
  5  6  2  0
  6  7  1  0
  7  8  2  0
  8  9  1  0
  9 10  1  0
 10 11  1  0
 11 12  1  0
 12 13  1  0
 13 14  1  0
 14 15  1  0
 15 16  1  0
 16 17  2  0
 16 18  1  0
 18 19  1  0
 19 20  1  0
 20 21  1  0
 21 22  1  0
 22 23  1  0
 15 24  1  0
 24 25  2  0
 25 26  1  0
 26 27  2  0
 27 28  1  0
 28 29  2  0
 12 30  1  0
 30 31  1  0
 32 33  2  0
 33 34  1  0
 33 35  1  0
 35 36  2  0
 36 37  1  0
 37 38  2  0
 37 39  1  0
  8  3  1  0
 31  9  1  0
 23 18  1  0
 29 24  1  0
  1 40  1  0
  1 41  1  0
  1 42  1  0
  4 43  1  0
  5 44  1  0
  6 45  1  0
  7 46  1  0
 10 47  1  0
 10 48  1  0
 11 49  1  0
 11 50  1  0
 13 51  1  0
 13 52  1  0
 14 53  1  0
 14 54  1  0
 18 55  1  0
 19 56  1  0
 19 57  1  0
 20 58  1  0
 20 59  1  0
 21 60  1  0
 21 61  1  0
 22 62  1  0
 22 63  1  0
 23 64  1  0
 23 65  1  0
 25 66  1  0
 26 67  1  0
 27 68  1  0
 28 69  1  0
 30 70  1  0
 30 71  1  0
 31 72  1  0
 31 73  1  0
 34 74  1  0
 35 75  1  0
 36 76  1  0
 39 77  1  0
M  END
$$$$
