
     RDKit          3D

 49 51  0  0  0  0  0  0  0  0999 V2000
    5.9559   -2.1507    3.3533 C   0  0  0  0  0  0  0  0  0  0  0  0
    6.3468   -1.4985    2.1507 O   0  0  0  0  0  0  0  0  0  0  0  0
    5.5712   -1.7172    1.0463 C   0  0  0  0  0  0  0  0  0  0  0  0
    5.8766   -0.9126   -0.0523 C   0  0  0  0  0  0  0  0  0  0  0  0
    5.1664   -1.0368   -1.2481 C   0  0  0  0  0  0  0  0  0  0  0  0
    4.1425   -1.9848   -1.3667 C   0  0  0  0  0  0  0  0  0  0  0  0
    3.3615   -2.1018   -2.6498 C   0  0  0  0  0  0  0  0  0  0  0  0
    2.2318   -1.2039   -2.6400 N   0  0  0  0  0  0  0  0  0  0  0  0
    2.3013    0.0698   -3.1852 C   0  0  0  0  0  0  0  0  0  0  0  0
    3.2792    0.4395   -3.8326 O   0  0  0  0  0  0  0  0  0  0  0  0
    1.1396    0.8973   -2.9155 C   0  0  0  0  0  0  0  0  0  0  0  0
    0.9376    2.1369   -3.3108 N   0  0  0  0  0  0  0  0  0  0  0  0
   -0.2989    2.5075   -2.8222 N   0  0  0  0  0  0  0  0  0  0  0  0
   -0.7675    1.4717   -2.1564 C   0  0  0  0  0  0  0  0  0  0  0  0
   -2.0301    1.3127   -1.4446 C   0  0  0  0  0  0  0  0  0  0  0  0
   -2.3336    0.1454   -0.7223 C   0  0  0  0  0  0  0  0  0  0  0  0
   -3.5556    0.0146   -0.0534 C   0  0  0  0  0  0  0  0  0  0  0  0
   -4.4815    1.0614   -0.0921 C   0  0  0  0  0  0  0  0  0  0  0  0
   -6.0627    0.8684    0.7097 S   0  0  0  0  0  6  0  0  0  0  0  0
   -7.0040    1.7248    0.0189 O   0  0  0  0  0  0  0  0  0  0  0  0
   -6.3003   -0.5540    0.8377 O   0  0  0  0  0  0  0  0  0  0  0  0
   -5.7919    1.5085    2.2611 N   0  0  0  0  0  0  0  0  0  0  0  0
   -5.6405    2.9730    2.3642 C   0  0  0  0  0  0  0  0  0  0  0  0
   -4.8801    0.7646    3.1465 C   0  0  0  0  0  0  0  0  0  0  0  0
   -4.2079    2.2226   -0.8194 C   0  0  0  0  0  0  0  0  0  0  0  0
   -2.9821    2.3469   -1.4825 C   0  0  0  0  0  0  0  0  0  0  0  0
    0.0941    0.4042   -2.1679 O   0  0  0  0  0  0  0  0  0  0  0  0
    3.8312   -2.7859   -0.2584 C   0  0  0  0  0  0  0  0  0  0  0  0
    4.5445   -2.6554    0.9396 C   0  0  0  0  0  0  0  0  0  0  0  0
    4.9388   -1.8658    3.6459 H   0  0  0  0  0  0  0  0  0  0  0  0
    6.0471   -3.2366    3.2623 H   0  0  0  0  0  0  0  0  0  0  0  0
    6.6330   -1.8240    4.1488 H   0  0  0  0  0  0  0  0  0  0  0  0
    6.6712   -0.1720    0.0248 H   0  0  0  0  0  0  0  0  0  0  0  0
    5.4151   -0.3851   -2.0860 H   0  0  0  0  0  0  0  0  0  0  0  0
    4.0066   -1.9050   -3.5130 H   0  0  0  0  0  0  0  0  0  0  0  0
    2.9705   -3.1187   -2.7641 H   0  0  0  0  0  0  0  0  0  0  0  0
    1.4633   -1.4106   -2.0167 H   0  0  0  0  0  0  0  0  0  0  0  0
   -1.6264   -0.6811   -0.6799 H   0  0  0  0  0  0  0  0  0  0  0  0
   -3.7813   -0.9057    0.4829 H   0  0  0  0  0  0  0  0  0  0  0  0
   -4.6660    3.2972    1.9868 H   0  0  0  0  0  0  0  0  0  0  0  0
   -5.7258    3.2827    3.4128 H   0  0  0  0  0  0  0  0  0  0  0  0
   -6.4332    3.4893    1.8194 H   0  0  0  0  0  0  0  0  0  0  0  0
   -5.0992    1.0155    4.1902 H   0  0  0  0  0  0  0  0  0  0  0  0
   -3.8368    1.0186    2.9347 H   0  0  0  0  0  0  0  0  0  0  0  0
   -5.0158   -0.3164    3.0460 H   0  0  0  0  0  0  0  0  0  0  0  0
   -4.9395    3.0263   -0.8843 H   0  0  0  0  0  0  0  0  0  0  0  0
   -2.7770    3.2585   -2.0444 H   0  0  0  0  0  0  0  0  0  0  0  0
    3.0329   -3.5261   -0.3191 H   0  0  0  0  0  0  0  0  0  0  0  0
    4.2790   -3.3089    1.7669 H   0  0  0  0  0  0  0  0  0  0  0  0
  1  2  1  0
  2  3  1  0
  3  4  2  0
  4  5  1  0
  5  6  2  0
  6  7  1  0
  7  8  1  0
  8  9  1  0
  9 10  2  0
  9 11  1  0
 11 12  2  0
 12 13  1  0
 13 14  2  0
 14 15  1  0
 15 16  2  0
 16 17  1  0
 17 18  2  0
 18 19  1  0
 19 20  2  0
 19 21  2  0
 19 22  1  0
 22 23  1  0
 22 24  1  0
 18 25  1  0
 25 26  2  0
 14 27  1  0
  6 28  1  0
 28 29  2  0
 29  3  1  0
 27 11  1  0
 26 15  1  0
  1 30  1  0
  1 31  1  0
  1 32  1  0
  4 33  1  0
  5 34  1  0
  7 35  1  0
  7 36  1  0
  8 37  1  0
 16 38  1  0
 17 39  1  0
 23 40  1  0
 23 41  1  0
 23 42  1  0
 24 43  1  0
 24 44  1  0
 24 45  1  0
 25 46  1  0
 26 47  1  0
 28 48  1  0
 29 49  1  0
M  END
$$$$
