
     RDKit          3D

 46 49  0  0  0  0  0  0  0  0999 V2000
   -2.5310    3.9874    0.8324 C   0  0  0  0  0  0  0  0  0  0  0  0
   -3.7605    3.3421    0.5216 O   0  0  0  0  0  0  0  0  0  0  0  0
   -3.6997    2.0127    0.1995 C   0  0  0  0  0  0  0  0  0  0  0  0
   -4.9171    1.4562   -0.1877 C   0  0  0  0  0  0  0  0  0  0  0  0
   -4.9934    0.1161   -0.5530 C   0  0  0  0  0  0  0  0  0  0  0  0
   -3.8457   -0.6773   -0.5284 C   0  0  0  0  0  0  0  0  0  0  0  0
   -2.6063   -0.1517   -0.1270 C   0  0  0  0  0  0  0  0  0  0  0  0
   -1.4118   -0.9594   -0.1369 N   0  0  0  0  0  0  0  0  0  0  0  0
   -0.2047   -0.4294   -0.6000 C   0  0  0  0  0  0  0  0  0  0  0  0
   -0.0534    0.7379   -0.9710 O   0  0  0  0  0  0  0  0  0  0  0  0
    0.9717   -1.3445   -0.7034 C   0  0  0  0  0  0  0  0  0  0  0  0
    2.2441   -0.9028   -1.3593 C   0  0  0  0  0  0  0  0  0  0  0  0
    2.9245   -1.6628   -2.0447 O   0  0  0  0  0  0  0  0  0  0  0  0
    2.5703    0.4154   -1.1671 N   0  0  0  0  0  0  0  0  0  0  0  0
    3.7126    1.0268   -1.8017 C   0  0  0  0  0  0  0  0  0  0  0  0
    4.3850    1.8962   -0.7885 C   0  0  0  0  0  0  0  0  0  0  0  0
    5.3038    1.5170    0.1722 C   0  0  0  0  0  0  0  0  0  0  0  0
    5.7305    2.6105    0.9759 C   0  0  0  0  0  0  0  0  0  0  0  0
    5.1266    3.7900    0.6003 C   0  0  0  0  0  0  0  0  0  0  0  0
    4.0418    3.5713   -0.7022 S   0  0  0  0  0  0  0  0  0  0  0  0
    0.8881   -2.5991   -0.2359 C   0  0  0  0  0  0  0  0  0  0  0  0
    1.9563   -3.4721   -0.2462 O   0  0  0  0  0  0  0  0  0  0  0  0
   -0.3472   -3.0929    0.3752 C   0  0  0  0  0  0  0  0  0  0  0  0
   -0.4151   -4.3608    0.9754 C   0  0  0  0  0  0  0  0  0  0  0  0
   -1.5963   -4.7961    1.5629 C   0  0  0  0  0  0  0  0  0  0  0  0
   -2.6765   -3.9454    1.5380 C   0  0  0  0  0  0  0  0  0  0  0  0
   -2.6402   -2.7206    0.9773 N   0  0  0  0  0  0  0  0  0  0  0  0
   -1.4901   -2.2886    0.3945 C   0  0  0  0  0  0  0  0  0  0  0  0
   -2.5550    1.2088    0.2317 C   0  0  0  0  0  0  0  0  0  0  0  0
   -2.7436    5.0507    0.9873 H   0  0  0  0  0  0  0  0  0  0  0  0
   -2.1067    3.5950    1.7629 H   0  0  0  0  0  0  0  0  0  0  0  0
   -1.8138    3.9104    0.0059 H   0  0  0  0  0  0  0  0  0  0  0  0
   -5.8098    2.0749   -0.2118 H   0  0  0  0  0  0  0  0  0  0  0  0
   -5.9422   -0.3102   -0.8658 H   0  0  0  0  0  0  0  0  0  0  0  0
   -3.9342   -1.7099   -0.8554 H   0  0  0  0  0  0  0  0  0  0  0  0
    1.8474    1.0386   -0.8181 H   0  0  0  0  0  0  0  0  0  0  0  0
    3.3523    1.5949   -2.6675 H   0  0  0  0  0  0  0  0  0  0  0  0
    4.4102    0.2645   -2.1681 H   0  0  0  0  0  0  0  0  0  0  0  0
    5.6468    0.4957    0.2920 H   0  0  0  0  0  0  0  0  0  0  0  0
    6.4449    2.5367    1.7863 H   0  0  0  0  0  0  0  0  0  0  0  0
    5.2659    4.7735    1.0291 H   0  0  0  0  0  0  0  0  0  0  0  0
    1.7190   -4.2291   -0.8122 H   0  0  0  0  0  0  0  0  0  0  0  0
    0.4559   -5.0109    1.0164 H   0  0  0  0  0  0  0  0  0  0  0  0
   -1.6637   -5.7663    2.0378 H   0  0  0  0  0  0  0  0  0  0  0  0
   -3.6265   -4.2229    1.9870 H   0  0  0  0  0  0  0  0  0  0  0  0
   -1.6131    1.6295    0.5654 H   0  0  0  0  0  0  0  0  0  0  0  0
  1  2  1  0
  2  3  1  0
  3  4  2  0
  4  5  1  0
  5  6  2  0
  6  7  1  0
  7  8  1  0
  8  9  1  0
  9 10  2  0
  9 11  1  0
 11 12  1  0
 12 13  2  0
 12 14  1  0
 14 15  1  0
 15 16  1  0
 16 17  2  0
 17 18  1  0
 18 19  2  0
 19 20  1  0
 11 21  2  0
 21 22  1  0
 21 23  1  0
 23 24  2  0
 24 25  1  0
 25 26  2  0
 26 27  1  0
 27 28  2  0
  7 29  2  0
 29  3  1  0
 28  8  1  0
 20 16  1  0
 28 23  1  0
  1 30  1  0
  1 31  1  0
  1 32  1  0
  4 33  1  0
  5 34  1  0
  6 35  1  0
 14 36  1  0
 15 37  1  0
 15 38  1  0
 17 39  1  0
 18 40  1  0
 19 41  1  0
 22 42  1  0
 24 43  1  0
 25 44  1  0
 26 45  1  0
 29 46  1  0
M  END
$$$$
