
     RDKit          3D

 47 48  0  0  0  0  0  0  0  0999 V2000
    7.8945    1.6800   -0.6355 C   0  0  0  0  0  0  0  0  0  0  0  0
    6.4909    1.2219   -0.3458 C   0  0  0  0  0  0  0  0  0  0  0  0
    5.6464    2.0388    0.4206 C   0  0  0  0  0  0  0  0  0  0  0  0
    4.3369    1.6489    0.7141 C   0  0  0  0  0  0  0  0  0  0  0  0
    3.8509    0.4262    0.2415 C   0  0  0  0  0  0  0  0  0  0  0  0
    2.5252    0.0077    0.5250 N   0  0  0  0  0  0  0  0  0  0  0  0
    1.5531    0.6558    1.2480 C   0  0  0  0  0  0  0  0  0  0  0  0
    0.4607   -0.1837    1.2157 C   0  0  0  0  0  0  0  0  0  0  0  0
   -0.8398    0.0321    1.8300 C   0  0  0  0  0  0  0  0  0  0  0  0
   -1.1097    1.0385    2.4768 O   0  0  0  0  0  0  0  0  0  0  0  0
   -1.7284   -0.9984    1.6109 N   0  0  0  0  0  0  0  0  0  0  0  0
   -3.0928   -0.9631    2.0853 C   0  0  0  0  0  0  0  0  0  0  0  0
   -4.0189   -0.1608    1.1764 C   0  0  0  0  0  0  0  0  0  0  0  0
   -4.2059   -0.8164   -0.1901 C   0  0  0  0  0  0  0  0  0  0  0  0
   -5.0816   -0.0345   -1.0023 O   0  0  0  0  0  0  0  0  0  0  0  0
   -6.4708   -0.3248   -0.8271 C   0  0  0  0  0  0  0  0  0  0  0  0
   -7.2458    0.9280   -1.2171 C   0  0  0  0  0  0  0  0  0  0  0  0
   -6.8714   -1.4961   -1.7183 C   0  0  0  0  0  0  0  0  0  0  0  0
    0.7814   -1.3016    0.4901 N   0  0  0  0  0  0  0  0  0  0  0  0
    2.0346   -1.1774    0.0761 N   0  0  0  0  0  0  0  0  0  0  0  0
    4.6896   -0.3983   -0.5245 C   0  0  0  0  0  0  0  0  0  0  0  0
    6.0085   -0.0127   -0.8215 C   0  0  0  0  0  0  0  0  0  0  0  0
    6.8734   -0.9269   -1.6469 C   0  0  0  0  0  0  0  0  0  0  0  0
    8.0627    1.7349   -1.7157 H   0  0  0  0  0  0  0  0  0  0  0  0
    8.0852    2.6769   -0.2237 H   0  0  0  0  0  0  0  0  0  0  0  0
    8.6181    0.9923   -0.1866 H   0  0  0  0  0  0  0  0  0  0  0  0
    6.0060    2.9946    0.7981 H   0  0  0  0  0  0  0  0  0  0  0  0
    3.7307    2.3236    1.3109 H   0  0  0  0  0  0  0  0  0  0  0  0
    1.6911    1.6190    1.7125 H   0  0  0  0  0  0  0  0  0  0  0  0
   -1.4092   -1.7699    1.0329 H   0  0  0  0  0  0  0  0  0  0  0  0
   -3.0978   -0.5213    3.0881 H   0  0  0  0  0  0  0  0  0  0  0  0
   -3.4367   -1.9989    2.1736 H   0  0  0  0  0  0  0  0  0  0  0  0
   -3.6414    0.8601    1.0392 H   0  0  0  0  0  0  0  0  0  0  0  0
   -4.9921   -0.0544    1.6690 H   0  0  0  0  0  0  0  0  0  0  0  0
   -3.2452   -0.8559   -0.7142 H   0  0  0  0  0  0  0  0  0  0  0  0
   -4.5686   -1.8456   -0.0950 H   0  0  0  0  0  0  0  0  0  0  0  0
   -6.6886   -0.5596    0.2209 H   0  0  0  0  0  0  0  0  0  0  0  0
   -8.3244    0.7802   -1.1062 H   0  0  0  0  0  0  0  0  0  0  0  0
   -6.9436    1.7725   -0.5882 H   0  0  0  0  0  0  0  0  0  0  0  0
   -7.0346    1.2161   -2.2530 H   0  0  0  0  0  0  0  0  0  0  0  0
   -6.3352   -2.4076   -1.4364 H   0  0  0  0  0  0  0  0  0  0  0  0
   -7.9450   -1.6970   -1.6487 H   0  0  0  0  0  0  0  0  0  0  0  0
   -6.6186   -1.2951   -2.7652 H   0  0  0  0  0  0  0  0  0  0  0  0
    4.3246   -1.3540   -0.8999 H   0  0  0  0  0  0  0  0  0  0  0  0
    7.1574   -0.4369   -2.5835 H   0  0  0  0  0  0  0  0  0  0  0  0
    7.7744   -1.2038   -1.0907 H   0  0  0  0  0  0  0  0  0  0  0  0
    6.3497   -1.8536   -1.9044 H   0  0  0  0  0  0  0  0  0  0  0  0
  1  2  1  0
  2  3  2  0
  3  4  1  0
  4  5  2  0
  5  6  1  0
  6  7  1  0
  7  8  2  0
  8  9  1  0
  9 10  2  0
  9 11  1  0
 11 12  1  0
 12 13  1  0
 13 14  1  0
 14 15  1  0
 15 16  1  0
 16 17  1  0
 16 18  1  0
  8 19  1  0
 19 20  2  0
  5 21  1  0
 21 22  2  0
 22 23  1  0
 22  2  1  0
 20  6  1  0
  1 24  1  0
  1 25  1  0
  1 26  1  0
  3 27  1  0
  4 28  1  0
  7 29  1  0
 11 30  1  0
 12 31  1  0
 12 32  1  0
 13 33  1  0
 13 34  1  0
 14 35  1  0
 14 36  1  0
 16 37  1  0
 17 38  1  0
 17 39  1  0
 17 40  1  0
 18 41  1  0
 18 42  1  0
 18 43  1  0
 21 44  1  0
 23 45  1  0
 23 46  1  0
 23 47  1  0
M  END
$$$$
