
     RDKit          3D

 60 64  0  0  0  0  0  0  0  0999 V2000
   -4.8099   -0.6211    4.2467 N   0  0  0  0  0  0  0  0  0  0  0  0
   -4.8564   -0.7806    3.0977 C   0  0  0  0  0  0  0  0  0  0  0  0
   -4.9223   -0.9883    1.6809 C   0  0  0  0  0  0  0  0  0  0  0  0
   -5.1518   -2.2702    1.1755 C   0  0  0  0  0  0  0  0  0  0  0  0
   -5.2198   -2.5003   -0.2023 C   0  0  0  0  0  0  0  0  0  0  0  0
   -5.0417   -1.4021   -1.0518 C   0  0  0  0  0  0  0  0  0  0  0  0
   -5.0515   -1.3382   -2.4256 N   0  0  0  0  0  0  0  0  0  0  0  0
   -4.8180   -0.0560   -2.8415 C   0  0  0  0  0  0  0  0  0  0  0  0
   -4.6623    0.7449   -1.7251 C   0  0  0  0  0  0  0  0  0  0  0  0
   -4.4036    2.2176   -1.7364 C   0  0  0  0  0  0  0  0  0  0  0  0
   -3.0576    2.6676   -1.1593 C   0  0  0  0  0  0  0  0  0  0  0  0
   -1.8173    2.1739   -1.9192 C   0  0  0  0  0  0  0  0  0  0  0  0
   -1.3100    0.7804   -1.5119 C   0  0  0  0  0  0  0  0  0  0  0  0
   -1.0186    0.6541   -0.0761 N   0  0  0  0  0  0  0  0  0  0  0  0
   -0.8239   -0.7590    0.3252 C   0  0  0  0  0  0  0  0  0  0  0  0
    0.6521   -1.2010    0.4185 C   0  0  0  0  0  0  0  0  0  0  0  0
    1.3737   -0.3994    1.4317 N   0  0  0  0  0  0  0  0  0  0  0  0
    2.7682   -0.5246    1.3472 C   0  0  0  0  0  0  0  0  0  0  0  0
    3.4305   -1.2174    2.3724 C   0  0  0  0  0  0  0  0  0  0  0  0
    4.8192   -1.3982    2.3740 C   0  0  0  0  0  0  0  0  0  0  0  0
    5.5126   -0.8521    1.2999 C   0  0  0  0  0  0  0  0  0  0  0  0
    6.8594   -0.9204    1.1116 O   0  0  0  0  0  0  0  0  0  0  0  0
    7.1374   -0.2638   -0.0610 C   0  0  0  0  0  0  0  0  0  0  0  0
    8.5036   -0.1821   -0.5217 C   0  0  0  0  0  0  0  0  0  0  0  0
    9.4195   -0.8097    0.2753 N   0  0  0  0  0  0  0  0  0  0  0  0
    8.8620    0.3855   -1.5490 O   0  0  0  0  0  0  0  0  0  0  0  0
    5.9652    0.2196   -0.6125 C   0  0  0  0  0  0  0  0  0  0  0  0
    4.9119   -0.1561    0.2599 C   0  0  0  0  0  0  0  0  0  0  0  0
    3.5147    0.0120    0.2810 C   0  0  0  0  0  0  0  0  0  0  0  0
    0.8793    0.9894    1.5889 C   0  0  0  0  0  0  0  0  0  0  0  0
    0.1355    1.4917    0.3299 C   0  0  0  0  0  0  0  0  0  0  0  0
   -4.8105   -0.1082   -0.5825 C   0  0  0  0  0  0  0  0  0  0  0  0
   -4.7543    0.0994    0.8112 C   0  0  0  0  0  0  0  0  0  0  0  0
   -5.2836   -3.1104    1.8561 H   0  0  0  0  0  0  0  0  0  0  0  0
   -5.4009   -3.4970   -0.5917 H   0  0  0  0  0  0  0  0  0  0  0  0
   -5.2010   -2.1296   -3.0364 H   0  0  0  0  0  0  0  0  0  0  0  0
   -4.7803    0.1818   -3.8976 H   0  0  0  0  0  0  0  0  0  0  0  0
   -5.2036    2.7067   -1.1667 H   0  0  0  0  0  0  0  0  0  0  0  0
   -4.4935    2.5955   -2.7626 H   0  0  0  0  0  0  0  0  0  0  0  0
   -2.9885    2.4168   -0.0965 H   0  0  0  0  0  0  0  0  0  0  0  0
   -3.0491    3.7650   -1.2028 H   0  0  0  0  0  0  0  0  0  0  0  0
   -2.0180    2.1802   -2.9976 H   0  0  0  0  0  0  0  0  0  0  0  0
   -1.0092    2.8998   -1.7633 H   0  0  0  0  0  0  0  0  0  0  0  0
   -0.4181    0.5369   -2.1043 H   0  0  0  0  0  0  0  0  0  0  0  0
   -2.0635    0.0443   -1.8013 H   0  0  0  0  0  0  0  0  0  0  0  0
   -1.2821   -0.8767    1.3160 H   0  0  0  0  0  0  0  0  0  0  0  0
   -1.3736   -1.4433   -0.3328 H   0  0  0  0  0  0  0  0  0  0  0  0
    1.1124   -1.1112   -0.5742 H   0  0  0  0  0  0  0  0  0  0  0  0
    0.6920   -2.2576    0.7089 H   0  0  0  0  0  0  0  0  0  0  0  0
    2.8447   -1.6265    3.1939 H   0  0  0  0  0  0  0  0  0  0  0  0
    5.3267   -1.9322    3.1670 H   0  0  0  0  0  0  0  0  0  0  0  0
    9.1174   -1.3498    1.0746 H   0  0  0  0  0  0  0  0  0  0  0  0
   10.3809   -0.8442   -0.0283 H   0  0  0  0  0  0  0  0  0  0  0  0
    5.8919    0.7733   -1.5389 H   0  0  0  0  0  0  0  0  0  0  0  0
    3.0252    0.5452   -0.5264 H   0  0  0  0  0  0  0  0  0  0  0  0
    0.1892    1.0042    2.4415 H   0  0  0  0  0  0  0  0  0  0  0  0
    1.6906    1.6841    1.8404 H   0  0  0  0  0  0  0  0  0  0  0  0
    0.8653    1.5503   -0.4875 H   0  0  0  0  0  0  0  0  0  0  0  0
   -0.2181    2.5117    0.5172 H   0  0  0  0  0  0  0  0  0  0  0  0
   -4.5685    1.0956    1.2038 H   0  0  0  0  0  0  0  0  0  0  0  0
  1  2  3  0
  2  3  1  0
  3  4  2  0
  4  5  1  0
  5  6  2  0
  6  7  1  0
  7  8  1  0
  8  9  2  0
  9 10  1  0
 10 11  1  0
 11 12  1  0
 12 13  1  0
 13 14  1  0
 14 15  1  0
 15 16  1  0
 16 17  1  0
 17 18  1  0
 18 19  2  0
 19 20  1  0
 20 21  2  0
 21 22  1  0
 22 23  1  0
 23 24  1  0
 24 25  1  0
 24 26  2  0
 23 27  2  0
 27 28  1  0
 28 29  2  0
 17 30  1  0
 30 31  1  0
  9 32  1  0
 32 33  2  0
 33  3  1  0
 32  6  1  0
 31 14  1  0
 29 18  1  0
 28 21  1  0
  4 34  1  0
  5 35  1  0
  7 36  1  0
  8 37  1  0
 10 38  1  0
 10 39  1  0
 11 40  1  0
 11 41  1  0
 12 42  1  0
 12 43  1  0
 13 44  1  0
 13 45  1  0
 15 46  1  0
 15 47  1  0
 16 48  1  0
 16 49  1  0
 19 50  1  0
 20 51  1  0
 25 52  1  0
 25 53  1  0
 27 54  1  0
 29 55  1  0
 30 56  1  0
 30 57  1  0
 31 58  1  0
 31 59  1  0
 33 60  1  0
M  END
$$$$
