
     RDKit          3D

 58 61  0  0  0  0  0  0  0  0999 V2000
    2.0646   -1.6035    0.6314 C   0  0  0  0  0  0  0  0  0  0  0  0
    1.9477   -0.0616    0.5385 C   0  0  0  0  0  0  0  0  0  0  0  0
    2.7700    0.5595    1.7126 C   0  0  0  0  0  0  0  0  0  0  0  0
    4.2800    0.4332    1.5717 C   0  0  0  0  0  0  0  0  0  0  0  0
    4.7454    1.0484    0.2606 C   0  0  0  0  0  0  0  0  0  0  0  0
    6.1557    0.8950    0.1373 O   0  0  0  0  0  0  0  0  0  0  0  0
    4.0793    0.3526   -0.9156 C   0  0  0  0  0  0  0  0  0  0  0  0
    2.5424    0.3451   -0.8507 C   0  0  0  0  0  0  0  0  0  0  0  0
    1.9448    1.6635   -1.3384 C   0  0  0  0  0  0  0  0  0  0  0  0
    0.4882    1.4145   -1.7119 C   0  0  0  0  0  0  0  0  0  0  0  0
   -0.3404    0.7475   -0.5961 C   0  0  0  0  0  0  0  0  0  0  0  0
    0.4550    0.4638    0.7078 C   0  0  0  0  0  0  0  0  0  0  0  0
   -0.3863   -0.2920    1.7669 C   0  0  0  0  0  0  0  0  0  0  0  0
   -1.8715   -0.3678    1.4105 C   0  0  0  0  0  0  0  0  0  0  0  0
   -2.1065   -1.0384    0.0365 C   0  0  0  0  0  0  0  0  0  0  0  0
   -1.8666   -2.5648    0.1805 C   0  0  0  0  0  0  0  0  0  0  0  0
   -3.5435   -0.8464   -0.5257 C   0  0  0  0  0  0  0  0  0  0  0  0
   -4.2504    0.4390   -0.0958 C   0  0  0  0  0  0  0  0  0  0  0  0
   -4.0095    1.5418   -0.5921 O   0  0  0  0  0  0  0  0  0  0  0  0
   -5.2989    0.3054    1.0048 C   0  0  0  0  0  0  0  0  0  0  0  0
   -5.7393    1.5731    1.4667 O   0  0  0  0  0  0  0  0  0  0  0  0
   -3.3604   -0.8872   -2.0420 C   0  0  0  0  0  0  0  0  0  0  0  0
   -2.0455   -0.1637   -2.2830 C   0  0  0  0  0  0  0  0  0  0  0  0
   -1.1512   -0.4786   -1.0686 C   0  0  0  0  0  0  0  0  0  0  0  0
    1.3586   -2.0939   -0.0450 H   0  0  0  0  0  0  0  0  0  0  0  0
    3.0645   -1.9546    0.3556 H   0  0  0  0  0  0  0  0  0  0  0  0
    1.8894   -1.9747    1.6458 H   0  0  0  0  0  0  0  0  0  0  0  0
    2.5463    1.6314    1.7959 H   0  0  0  0  0  0  0  0  0  0  0  0
    2.4599    0.1121    2.6655 H   0  0  0  0  0  0  0  0  0  0  0  0
    4.5938   -0.6157    1.6365 H   0  0  0  0  0  0  0  0  0  0  0  0
    4.7737    0.9376    2.4115 H   0  0  0  0  0  0  0  0  0  0  0  0
    4.5229    2.1214    0.2375 H   0  0  0  0  0  0  0  0  0  0  0  0
    6.5666    1.3537    0.8899 H   0  0  0  0  0  0  0  0  0  0  0  0
    4.4233    0.8059   -1.8543 H   0  0  0  0  0  0  0  0  0  0  0  0
    4.4442   -0.6823   -0.9661 H   0  0  0  0  0  0  0  0  0  0  0  0
    2.2330   -0.4149   -1.5852 H   0  0  0  0  0  0  0  0  0  0  0  0
    2.4738    2.0271   -2.2273 H   0  0  0  0  0  0  0  0  0  0  0  0
    2.0266    2.4477   -0.5773 H   0  0  0  0  0  0  0  0  0  0  0  0
    0.0267    2.3714   -1.9869 H   0  0  0  0  0  0  0  0  0  0  0  0
    0.4660    0.8030   -2.6225 H   0  0  0  0  0  0  0  0  0  0  0  0
   -1.0877    1.5107   -0.3260 H   0  0  0  0  0  0  0  0  0  0  0  0
    0.5534    1.4773    1.1297 H   0  0  0  0  0  0  0  0  0  0  0  0
   -0.2780    0.2172    2.7333 H   0  0  0  0  0  0  0  0  0  0  0  0
   -0.0323   -1.3077    1.9413 H   0  0  0  0  0  0  0  0  0  0  0  0
   -2.2671    0.6537    1.4323 H   0  0  0  0  0  0  0  0  0  0  0  0
   -2.4075   -0.9151    2.1959 H   0  0  0  0  0  0  0  0  0  0  0  0
   -2.5422   -2.9973    0.9274 H   0  0  0  0  0  0  0  0  0  0  0  0
   -2.0381   -3.0932   -0.7637 H   0  0  0  0  0  0  0  0  0  0  0  0
   -0.8433   -2.7928    0.4905 H   0  0  0  0  0  0  0  0  0  0  0  0
   -4.2045   -1.6717   -0.2313 H   0  0  0  0  0  0  0  0  0  0  0  0
   -4.8758   -0.2390    1.8523 H   0  0  0  0  0  0  0  0  0  0  0  0
   -6.1596   -0.2388    0.6070 H   0  0  0  0  0  0  0  0  0  0  0  0
   -5.4772    2.2193    0.7788 H   0  0  0  0  0  0  0  0  0  0  0  0
   -3.2817   -1.9243   -2.3883 H   0  0  0  0  0  0  0  0  0  0  0  0
   -4.1835   -0.4169   -2.5898 H   0  0  0  0  0  0  0  0  0  0  0  0
   -1.5820   -0.4923   -3.2194 H   0  0  0  0  0  0  0  0  0  0  0  0
   -2.2271    0.9130   -2.3769 H   0  0  0  0  0  0  0  0  0  0  0  0
   -0.4382   -1.2561   -1.3726 H   0  0  0  0  0  0  0  0  0  0  0  0
  1  2  1  0
  2  3  1  0
  3  4  1  0
  4  5  1  0
  5  6  1  0
  5  7  1  0
  7  8  1  0
  8  9  1  0
  9 10  1  0
 10 11  1  0
 11 12  1  0
 12 13  1  0
 13 14  1  0
 14 15  1  0
 15 16  1  0
 15 17  1  0
 17 18  1  0
 18 19  2  0
 18 20  1  0
 20 21  1  0
 17 22  1  0
 22 23  1  0
 23 24  1  0
  8  2  1  0
 24 11  1  0
 12  2  1  0
 24 15  1  0
  1 25  1  0
  1 26  1  0
  1 27  1  0
  3 28  1  0
  3 29  1  0
  4 30  1  0
  4 31  1  0
  5 32  1  0
  6 33  1  0
  7 34  1  0
  7 35  1  0
  8 36  1  0
  9 37  1  0
  9 38  1  0
 10 39  1  0
 10 40  1  0
 11 41  1  0
 12 42  1  0
 13 43  1  0
 13 44  1  0
 14 45  1  0
 14 46  1  0
 16 47  1  0
 16 48  1  0
 16 49  1  0
 17 50  1  0
 20 51  1  0
 20 52  1  0
 21 53  1  0
 22 54  1  0
 22 55  1  0
 23 56  1  0
 23 57  1  0
 24 58  1  0
M  END
$$$$
