
     RDKit          3D

 88 88  0  0  0  0  0  0  0  0999 V2000
    9.7582   -2.5830   -1.1518 C   0  0  0  0  0  0  0  0  0  0  0  0
    8.8960   -2.5326    0.1005 C   0  0  0  0  0  0  0  0  0  0  0  0
    8.6520   -1.0923    0.5517 C   0  0  0  0  0  0  0  0  0  0  0  0
    7.8883   -0.9878    1.8754 C   0  0  0  0  0  0  0  0  0  0  0  0
    6.5001   -1.6347    1.8988 C   0  0  0  0  0  0  0  0  0  0  0  0
    5.5355   -1.0470    0.8658 C   0  0  0  0  0  0  0  0  0  0  0  0
    4.1396   -1.6600    1.0044 C   0  0  0  0  0  0  0  0  0  0  0  0
    3.1640   -1.2011   -0.0836 C   0  0  0  0  0  0  0  0  0  0  0  0
    2.8766    0.3029   -0.1247 C   0  0  0  0  0  0  0  0  0  0  0  0
    2.3201    0.9061    1.1689 C   0  0  0  0  0  0  0  0  0  0  0  0
    1.0377    0.2564    1.7077 C   0  0  0  0  0  0  0  0  0  0  0  0
   -0.1498    0.2873    0.7304 C   0  0  1  0  0  0  0  0  0  0  0  0
   -1.3930   -0.3283    1.3905 C   0  0  0  0  0  0  0  0  0  0  0  0
   -2.4908   -0.5971    0.3645 C   0  0  2  0  0  0  0  0  0  0  0  0
   -3.2238    0.6134    0.0250 O   0  0  0  0  0  0  0  0  0  0  0  0
   -4.4126    0.0820    0.4061 C   0  0  0  0  0  0  0  0  0  0  0  0
   -5.5065    0.5902    0.3335 O   0  0  0  0  0  0  0  0  0  0  0  0
   -3.7865   -1.2343    0.9161 C   0  0  1  0  0  0  0  0  0  0  0  0
   -4.2016   -2.5277    0.2276 C   0  0  0  0  0  0  0  0  0  0  0  0
   -5.3880   -3.2047    0.9180 C   0  0  0  0  0  0  0  0  0  0  0  0
   -6.7405   -2.5030    0.7705 C   0  0  0  0  0  0  0  0  0  0  0  0
   -7.2238   -2.2878   -0.6677 C   0  0  0  0  0  0  0  0  0  0  0  0
   -7.3339   -3.5517   -1.5241 C   0  0  0  0  0  0  0  0  0  0  0  0
   -8.3138   -4.5751   -0.9720 C   0  0  0  0  0  0  0  0  0  0  0  0
   -0.4156    1.6683    0.4228 O   0  0  0  0  0  0  0  0  0  0  0  0
   -0.6021    1.9798   -0.8918 C   0  0  0  0  0  0  0  0  0  0  0  0
   -0.6390    1.1690   -1.8117 O   0  0  0  0  0  0  0  0  0  0  0  0
   -0.7897    3.4945   -1.0588 C   0  0  2  0  0  0  0  0  0  0  0  0
   -2.2599    3.8608   -0.8192 C   0  0  0  0  0  0  0  0  0  0  0  0
   -2.4999    5.3390   -0.4469 C   0  0  0  0  0  0  0  0  0  0  0  0
   -3.9773    5.5460   -0.0985 C   0  0  0  0  0  0  0  0  0  0  0  0
   -2.0942    6.3161   -1.5494 C   0  0  0  0  0  0  0  0  0  0  0  0
   -0.3539    3.8452   -2.4107 N   0  0  0  0  0  0  0  0  0  0  0  0
    0.9678    4.1084   -2.6647 C   0  0  0  0  0  0  0  0  0  0  0  0
    1.8415    4.2307   -1.8194 O   0  0  0  0  0  0  0  0  0  0  0  0
    9.2824   -2.0451   -1.9779 H   0  0  0  0  0  0  0  0  0  0  0  0
    9.9114   -3.6205   -1.4645 H   0  0  0  0  0  0  0  0  0  0  0  0
   10.7400   -2.1347   -0.9700 H   0  0  0  0  0  0  0  0  0  0  0  0
    7.9443   -3.0314   -0.1114 H   0  0  0  0  0  0  0  0  0  0  0  0
    9.3903   -3.0958    0.9005 H   0  0  0  0  0  0  0  0  0  0  0  0
    8.1209   -0.5413   -0.2329 H   0  0  0  0  0  0  0  0  0  0  0  0
    9.6185   -0.5879    0.6783 H   0  0  0  0  0  0  0  0  0  0  0  0
    8.4939   -1.4419    2.6697 H   0  0  0  0  0  0  0  0  0  0  0  0
    7.7890    0.0737    2.1344 H   0  0  0  0  0  0  0  0  0  0  0  0
    6.5885   -2.7175    1.7533 H   0  0  0  0  0  0  0  0  0  0  0  0
    6.0779   -1.4946    2.9019 H   0  0  0  0  0  0  0  0  0  0  0  0
    5.9094   -1.2353   -0.1466 H   0  0  0  0  0  0  0  0  0  0  0  0
    5.4844    0.0392    1.0002 H   0  0  0  0  0  0  0  0  0  0  0  0
    4.2226   -2.7526    0.9440 H   0  0  0  0  0  0  0  0  0  0  0  0
    3.7320   -1.4371    1.9968 H   0  0  0  0  0  0  0  0  0  0  0  0
    3.5594   -1.5019   -1.0623 H   0  0  0  0  0  0  0  0  0  0  0  0
    2.2222   -1.7488    0.0393 H   0  0  0  0  0  0  0  0  0  0  0  0
    3.7939    0.8415   -0.3912 H   0  0  0  0  0  0  0  0  0  0  0  0
    2.1778    0.4987   -0.9465 H   0  0  0  0  0  0  0  0  0  0  0  0
    3.0876    0.8573    1.9506 H   0  0  0  0  0  0  0  0  0  0  0  0
    2.1390    1.9749    0.9995 H   0  0  0  0  0  0  0  0  0  0  0  0
    0.7610    0.7991    2.6214 H   0  0  0  0  0  0  0  0  0  0  0  0
    1.2442   -0.7772    2.0081 H   0  0  0  0  0  0  0  0  0  0  0  0
    0.1137   -0.2885   -0.1637 H   0  0  0  0  0  0  0  0  0  0  0  0
   -1.1172   -1.2825    1.8557 H   0  0  0  0  0  0  0  0  0  0  0  0
   -1.7700    0.3299    2.1831 H   0  0  0  0  0  0  0  0  0  0  0  0
   -2.1153   -1.0869   -0.5436 H   0  0  0  0  0  0  0  0  0  0  0  0
   -3.8049   -1.3050    2.0106 H   0  0  0  0  0  0  0  0  0  0  0  0
   -3.3582   -3.2285    0.2790 H   0  0  0  0  0  0  0  0  0  0  0  0
   -4.3984   -2.3673   -0.8381 H   0  0  0  0  0  0  0  0  0  0  0  0
   -5.4751   -4.2271    0.5310 H   0  0  0  0  0  0  0  0  0  0  0  0
   -5.1705   -3.3085    1.9885 H   0  0  0  0  0  0  0  0  0  0  0  0
   -6.7041   -1.5337    1.2797 H   0  0  0  0  0  0  0  0  0  0  0  0
   -7.4914   -3.0871    1.3166 H   0  0  0  0  0  0  0  0  0  0  0  0
   -8.2065   -1.8000   -0.6300 H   0  0  0  0  0  0  0  0  0  0  0  0
   -6.5583   -1.5813   -1.1765 H   0  0  0  0  0  0  0  0  0  0  0  0
   -6.3501   -4.0171   -1.6487 H   0  0  0  0  0  0  0  0  0  0  0  0
   -7.6655   -3.2597   -2.5282 H   0  0  0  0  0  0  0  0  0  0  0  0
   -7.9730   -4.9821   -0.0153 H   0  0  0  0  0  0  0  0  0  0  0  0
   -8.4162   -5.4121   -1.6704 H   0  0  0  0  0  0  0  0  0  0  0  0
   -9.3043   -4.1319   -0.8272 H   0  0  0  0  0  0  0  0  0  0  0  0
   -0.1362    3.9968   -0.3356 H   0  0  0  0  0  0  0  0  0  0  0  0
   -2.8618    3.5949   -1.6985 H   0  0  0  0  0  0  0  0  0  0  0  0
   -2.6450    3.2503    0.0077 H   0  0  0  0  0  0  0  0  0  0  0  0
   -1.9113    5.5723    0.4493 H   0  0  0  0  0  0  0  0  0  0  0  0
   -4.1624    6.5779    0.2186 H   0  0  0  0  0  0  0  0  0  0  0  0
   -4.6212    5.3349   -0.9591 H   0  0  0  0  0  0  0  0  0  0  0  0
   -4.2808    4.8874    0.7223 H   0  0  0  0  0  0  0  0  0  0  0  0
   -2.3871    7.3393   -1.2896 H   0  0  0  0  0  0  0  0  0  0  0  0
   -1.0101    6.3248   -1.6938 H   0  0  0  0  0  0  0  0  0  0  0  0
   -2.5690    6.0616   -2.5027 H   0  0  0  0  0  0  0  0  0  0  0  0
   -0.8903    3.4608   -3.1801 H   0  0  0  0  0  0  0  0  0  0  0  0
    1.1688    4.2005   -3.7450 H   0  0  0  0  0  0  0  0  0  0  0  0
  1  2  1  0
  2  3  1  0
  3  4  1  0
  4  5  1  0
  5  6  1  0
  6  7  1  0
  7  8  1  0
  8  9  1  0
  9 10  1  0
 10 11  1  0
 11 12  1  0
 12 13  1  0
 13 14  1  0
 14 15  1  0
 15 16  1  0
 16 17  2  0
 16 18  1  0
 18 19  1  0
 19 20  1  0
 20 21  1  0
 21 22  1  0
 22 23  1  0
 23 24  1  0
 12 25  1  0
 25 26  1  0
 26 27  2  0
 26 28  1  0
 28 29  1  0
 29 30  1  0
 30 31  1  0
 30 32  1  0
 28 33  1  0
 33 34  1  0
 34 35  2  0
 18 14  1  0
  1 36  1  0
  1 37  1  0
  1 38  1  0
  2 39  1  0
  2 40  1  0
  3 41  1  0
  3 42  1  0
  4 43  1  0
  4 44  1  0
  5 45  1  0
  5 46  1  0
  6 47  1  0
  6 48  1  0
  7 49  1  0
  7 50  1  0
  8 51  1  0
  8 52  1  0
  9 53  1  0
  9 54  1  0
 10 55  1  0
 10 56  1  0
 11 57  1  0
 11 58  1  0
 12 59  1  6
 13 60  1  0
 13 61  1  0
 14 62  1  6
 18 63  1  1
 19 64  1  0
 19 65  1  0
 20 66  1  0
 20 67  1  0
 21 68  1  0
 21 69  1  0
 22 70  1  0
 22 71  1  0
 23 72  1  0
 23 73  1  0
 24 74  1  0
 24 75  1  0
 24 76  1  0
 28 77  1  1
 29 78  1  0
 29 79  1  0
 30 80  1  0
 31 81  1  0
 31 82  1  0
 31 83  1  0
 32 84  1  0
 32 85  1  0
 32 86  1  0
 33 87  1  0
 34 88  1  0
M  END
$$$$
