
     RDKit          3D

 38 38  0  0  0  0  0  0  0  0999 V2000
    0.6848    0.0000    0.0000 Cl  0  0  0  0  0  0  0  0  0  0  0  0
    6.1422    0.9070    2.1634 N   0  0  0  0  0  0  0  0  0  0  0  0
    5.9103    0.0611    1.2290 C   0  0  0  0  0  0  0  0  0  0  0  0
    6.8561   -0.9211    0.8769 N   0  0  0  0  0  0  0  0  0  0  0  0
    4.6445    0.1300    0.5271 C   0  0  0  0  0  0  0  0  0  0  0  0
    3.6854    1.0736    0.8262 C   0  0  0  0  0  0  0  0  0  0  0  0
    2.4821    1.0935    0.1123 C   0  0  0  0  0  0  0  0  0  0  0  0
    2.2365    0.1894   -0.8831 C   0  0  0  0  0  0  0  0  0  0  0  0
    1.0546    0.1979   -1.6166 N   0  0  0  0  0  0  0  0  0  0  0  0
   -0.0744    0.2398   -1.1642 N   0  0  0  0  0  0  0  0  0  0  0  0
   -0.5975    0.2901    0.0950 N   0  0  0  0  0  0  0  0  0  0  0  0
   -2.0199    0.1036    0.2105 C   0  0  0  0  0  0  0  0  0  0  0  0
   -2.8833    1.1680   -0.0474 C   0  0  0  0  0  0  0  0  0  0  0  0
   -4.2475    1.0438    0.0405 C   0  0  0  0  0  0  0  0  0  0  0  0
   -4.7755   -0.1793    0.3970 C   0  0  0  0  0  0  0  0  0  0  0  0
   -6.2164   -0.3068    0.4783 C   0  0  0  0  0  0  0  0  0  0  0  0
   -6.8370   -1.3969    0.8021 N   0  0  0  0  0  0  0  0  0  0  0  0
   -7.0244    0.8227    0.1897 N   0  0  0  0  0  0  0  0  0  0  0  0
   -3.9403   -1.2667    0.6629 C   0  0  0  0  0  0  0  0  0  0  0  0
   -2.5782   -1.0982    0.5632 C   0  0  0  0  0  0  0  0  0  0  0  0
    3.1869   -0.7509   -1.1839 C   0  0  0  0  0  0  0  0  0  0  0  0
    4.3625   -0.7646   -0.4814 C   0  0  0  0  0  0  0  0  0  0  0  0
   -0.6848    0.0000    0.0000 H   0  0  0  0  0  0  0  0  0  0  0  0
    7.0119    0.9387    2.7175 H   0  0  0  0  0  0  0  0  0  0  0  0
    7.4010   -1.4742    1.5922 H   0  0  0  0  0  0  0  0  0  0  0  0
    7.0887   -1.1772   -0.1191 H   0  0  0  0  0  0  0  0  0  0  0  0
    3.8717    1.7851    1.6069 H   0  0  0  0  0  0  0  0  0  0  0  0
    1.7870    1.8685    0.4116 H   0  0  0  0  0  0  0  0  0  0  0  0
   -0.0433    0.4494    0.9440 H   0  0  0  0  0  0  0  0  0  0  0  0
   -2.4319    2.1114   -0.3245 H   0  0  0  0  0  0  0  0  0  0  0  0
   -4.9019    1.8869   -0.1670 H   0  0  0  0  0  0  0  0  0  0  0  0
   -6.3830   -2.2778    1.0330 H   0  0  0  0  0  0  0  0  0  0  0  0
   -7.7272    1.1193    0.8947 H   0  0  0  0  0  0  0  0  0  0  0  0
   -6.8888    1.3093   -0.7054 H   0  0  0  0  0  0  0  0  0  0  0  0
   -4.3688   -2.2276    0.9449 H   0  0  0  0  0  0  0  0  0  0  0  0
   -1.9458   -1.9648    0.7803 H   0  0  0  0  0  0  0  0  0  0  0  0
    3.0152   -1.4729   -1.9630 H   0  0  0  0  0  0  0  0  0  0  0  0
    5.1487   -1.5097   -0.7028 H   0  0  0  0  0  0  0  0  0  0  0  0
  2  3  2  3
  3  4  1  0
  3  5  1  0
  5  6  2  0
  6  7  1  0
  7  8  2  0
  8  9  1  0
  9 10  2  3
 10 11  1  0
 11 12  1  0
 12 13  2  0
 13 14  1  0
 14 15  2  0
 15 16  1  0
 16 17  2  3
 16 18  1  0
 15 19  1  0
 19 20  2  0
  8 21  1  0
 21 22  2  0
 22  5  1  0
 20 12  1  0
  1 23  1  0
  2 24  1  0
  4 25  1  0
  4 26  1  0
  6 27  1  0
  7 28  1  0
 11 29  1  0
 13 30  1  0
 14 31  1  0
 17 32  1  0
 18 33  1  0
 18 34  1  0
 19 35  1  0
 20 36  1  0
 21 37  1  0
 22 38  1  0
M  END
$$$$
