
     RDKit          3D

 61 64  0  0  0  0  0  0  0  0999 V2000
    8.7460    1.5772    2.2834 C   0  0  0  0  0  0  0  0  0  0  0  0
    8.1126    1.2280    1.0588 O   0  0  0  0  0  0  0  0  0  0  0  0
    6.7492    0.8475    1.2635 C   0  0  0  0  0  0  0  0  0  0  0  0
    6.1298    0.4999   -0.0846 C   0  0  0  0  0  0  0  0  0  0  0  0
    4.7474    0.0620    0.0383 N   0  0  0  0  0  0  0  0  0  0  0  0
    4.3447   -1.2464    0.2081 C   0  0  0  0  0  0  0  0  0  0  0  0
    5.2802   -2.4032    0.2584 C   0  0  0  0  0  0  0  0  0  0  0  0
    2.9707   -1.2386    0.3311 C   0  0  0  0  0  0  0  0  0  0  0  0
    2.5095    0.1022    0.2019 C   0  0  0  0  0  0  0  0  0  0  0  0
    1.1302    0.5909    0.2931 C   0  0  0  0  0  0  0  0  0  0  0  0
    0.8533    1.5678    0.9879 O   0  0  0  0  0  0  0  0  0  0  0  0
    0.1499   -0.1006   -0.4247 N   0  0  0  0  0  0  0  0  0  0  0  0
    0.4378   -1.0071   -1.5376 C   0  0  0  0  0  0  0  0  0  0  0  0
   -0.6352   -0.9343   -2.6184 C   0  0  0  0  0  0  0  0  0  0  0  0
   -2.0265   -1.2645   -2.0757 C   0  0  0  0  0  0  0  0  0  0  0  0
   -2.2192   -0.8450   -0.6048 C   0  0  0  0  0  0  0  0  0  0  0  0
   -3.6459   -0.4908   -0.3059 C   0  0  0  0  0  0  0  0  0  0  0  0
   -4.4010    0.6021   -0.7686 C   0  0  0  0  0  0  0  0  0  0  0  0
   -5.6648    0.4819   -0.2047 C   0  0  0  0  0  0  0  0  0  0  0  0
   -5.5916   -0.6662    0.5418 N   0  0  0  0  0  0  0  0  0  0  0  0
   -4.3791   -1.2644    0.4959 N   0  0  0  0  0  0  0  0  0  0  0  0
   -6.5659   -1.2999    1.4038 C   0  0  0  0  0  0  0  0  0  0  0  0
   -8.0224   -0.9710    1.1472 C   0  0  0  0  0  0  0  0  0  0  0  0
   -8.2832    0.5031    1.3663 C   0  0  0  0  0  0  0  0  0  0  0  0
   -7.9446    1.2921    0.2125 N   0  0  0  0  0  0  0  0  0  0  0  0
   -6.7503    1.4032   -0.4401 C   0  0  0  0  0  0  0  0  0  0  0  0
   -6.6578    2.3308   -1.2461 O   0  0  0  0  0  0  0  0  0  0  0  0
   -1.2491    0.2769   -0.2095 C   0  0  0  0  0  0  0  0  0  0  0  0
    3.6416    0.8924    0.0253 C   0  0  0  0  0  0  0  0  0  0  0  0
    3.7412    2.3714   -0.1535 C   0  0  0  0  0  0  0  0  0  0  0  0
    9.7811    1.8547    2.0683 H   0  0  0  0  0  0  0  0  0  0  0  0
    8.2432    2.4328    2.7442 H   0  0  0  0  0  0  0  0  0  0  0  0
    8.7477    0.7255    2.9699 H   0  0  0  0  0  0  0  0  0  0  0  0
    6.2064    1.6755    1.7339 H   0  0  0  0  0  0  0  0  0  0  0  0
    6.7115   -0.0157    1.9381 H   0  0  0  0  0  0  0  0  0  0  0  0
    6.7035   -0.2895   -0.5827 H   0  0  0  0  0  0  0  0  0  0  0  0
    6.1694    1.3578   -0.7640 H   0  0  0  0  0  0  0  0  0  0  0  0
    4.7446   -3.3259    0.5051 H   0  0  0  0  0  0  0  0  0  0  0  0
    5.7650   -2.5474   -0.7122 H   0  0  0  0  0  0  0  0  0  0  0  0
    6.0518   -2.2538    1.0197 H   0  0  0  0  0  0  0  0  0  0  0  0
    2.3552   -2.1114    0.5095 H   0  0  0  0  0  0  0  0  0  0  0  0
    0.4873   -2.0226   -1.1291 H   0  0  0  0  0  0  0  0  0  0  0  0
    1.4080   -0.7657   -1.9822 H   0  0  0  0  0  0  0  0  0  0  0  0
   -0.3899   -1.6119   -3.4438 H   0  0  0  0  0  0  0  0  0  0  0  0
   -0.6503    0.0802   -3.0376 H   0  0  0  0  0  0  0  0  0  0  0  0
   -2.1982   -2.3465   -2.1526 H   0  0  0  0  0  0  0  0  0  0  0  0
   -2.7723   -0.8008   -2.7340 H   0  0  0  0  0  0  0  0  0  0  0  0
   -1.9536   -1.7192    0.0094 H   0  0  0  0  0  0  0  0  0  0  0  0
   -4.0836    1.3946   -1.4346 H   0  0  0  0  0  0  0  0  0  0  0  0
   -6.4318   -2.3838    1.2947 H   0  0  0  0  0  0  0  0  0  0  0  0
   -6.2853   -1.0378    2.4314 H   0  0  0  0  0  0  0  0  0  0  0  0
   -8.6294   -1.5480    1.8548 H   0  0  0  0  0  0  0  0  0  0  0  0
   -8.3191   -1.2788    0.1376 H   0  0  0  0  0  0  0  0  0  0  0  0
   -7.7385    0.8980    2.2303 H   0  0  0  0  0  0  0  0  0  0  0  0
   -9.3523    0.6623    1.5424 H   0  0  0  0  0  0  0  0  0  0  0  0
   -8.5568    2.0649   -0.0243 H   0  0  0  0  0  0  0  0  0  0  0  0
   -1.4328    1.1851   -0.7982 H   0  0  0  0  0  0  0  0  0  0  0  0
   -1.3900    0.5479    0.8444 H   0  0  0  0  0  0  0  0  0  0  0  0
    4.2752    2.8254    0.6867 H   0  0  0  0  0  0  0  0  0  0  0  0
    2.7560    2.8419   -0.2161 H   0  0  0  0  0  0  0  0  0  0  0  0
    4.2701    2.6147   -1.0804 H   0  0  0  0  0  0  0  0  0  0  0  0
  1  2  1  0
  2  3  1  0
  3  4  1  0
  4  5  1  0
  5  6  1  0
  6  7  1  0
  6  8  2  0
  8  9  1  0
  9 10  1  0
 10 11  2  0
 10 12  1  0
 12 13  1  0
 13 14  1  0
 14 15  1  0
 15 16  1  0
 16 17  1  0
 17 18  1  0
 18 19  2  0
 19 20  1  0
 20 21  1  0
 20 22  1  0
 22 23  1  0
 23 24  1  0
 24 25  1  0
 25 26  1  0
 26 27  2  0
 16 28  1  0
  9 29  2  0
 29 30  1  0
 29  5  1  0
 28 12  1  0
 21 17  2  0
 26 19  1  0
  1 31  1  0
  1 32  1  0
  1 33  1  0
  3 34  1  0
  3 35  1  0
  4 36  1  0
  4 37  1  0
  7 38  1  0
  7 39  1  0
  7 40  1  0
  8 41  1  0
 13 42  1  0
 13 43  1  0
 14 44  1  0
 14 45  1  0
 15 46  1  0
 15 47  1  0
 16 48  1  0
 18 49  1  0
 22 50  1  0
 22 51  1  0
 23 52  1  0
 23 53  1  0
 24 54  1  0
 24 55  1  0
 25 56  1  0
 28 57  1  0
 28 58  1  0
 30 59  1  0
 30 60  1  0
 30 61  1  0
M  END
$$$$
