
     RDKit          3D

 54 57  0  0  0  0  0  0  0  0999 V2000
   -8.0080    0.4907   -1.9708 C   0  0  0  0  0  0  0  0  0  0  0  0
   -6.6327    0.1770   -1.4549 C   0  0  0  0  0  0  0  0  0  0  0  0
   -5.5393    0.3771   -2.3084 C   0  0  0  0  0  0  0  0  0  0  0  0
   -4.2317    0.0873   -1.8970 C   0  0  0  0  0  0  0  0  0  0  0  0
   -3.9652   -0.4288   -0.6289 C   0  0  0  0  0  0  0  0  0  0  0  0
   -2.6831   -0.7181   -0.1546 N   0  0  0  0  0  0  0  0  0  0  0  0
   -1.4016   -0.6009   -0.6879 C   0  0  0  0  0  0  0  0  0  0  0  0
   -1.1794   -0.0429   -1.8833 N   0  0  0  0  0  0  0  0  0  0  0  0
    0.0940    0.0142   -2.2998 C   0  0  0  0  0  0  0  0  0  0  0  0
    1.1508   -0.4548   -1.5631 C   0  0  0  0  0  0  0  0  0  0  0  0
    0.8563   -0.9992   -0.3266 C   0  0  0  0  0  0  0  0  0  0  0  0
    1.9128   -1.5217    0.4718 N   0  0  0  0  0  0  0  0  0  0  0  0
    1.4477   -2.0674    1.7543 C   0  0  0  0  0  0  0  0  0  0  0  0
    3.2088   -0.9286    0.6046 C   0  0  0  0  0  0  0  0  0  0  0  0
    4.3438   -1.8140    0.6878 C   0  0  0  0  0  0  0  0  0  0  0  0
    5.6849   -1.3941    0.8197 C   0  0  0  0  0  0  0  0  0  0  0  0
    5.7739   -0.0071    0.8595 C   0  0  0  0  0  0  0  0  0  0  0  0
    6.9293    0.7268    0.9793 C   0  0  0  0  0  0  0  0  0  0  0  0
    8.3590    0.3505    1.0969 C   0  0  0  0  0  0  0  0  0  0  0  0
    6.4954    2.0322    0.9750 N   0  0  0  0  0  0  0  0  0  0  0  0
    7.3183    3.2162    1.0808 C   0  0  0  0  0  0  0  0  0  0  0  0
    5.1601    2.1779    0.8551 N   0  0  0  0  0  0  0  0  0  0  0  0
    4.6794    0.9273    0.7833 C   0  0  0  0  0  0  0  0  0  0  0  0
    3.3532    0.4821    0.6544 C   0  0  0  0  0  0  0  0  0  0  0  0
   -0.4227   -1.0824    0.0966 N   0  0  0  0  0  0  0  0  0  0  0  0
   -5.0569   -0.6328    0.2259 C   0  0  0  0  0  0  0  0  0  0  0  0
   -6.3730   -0.3376   -0.1743 C   0  0  0  0  0  0  0  0  0  0  0  0
   -7.6695   -0.6451    1.0094 S   0  0  0  0  0  6  0  0  0  0  0  0
   -8.0083    0.9135    1.5521 N   0  0  0  0  0  0  0  0  0  0  0  0
   -7.1145   -1.3716    2.1281 O   0  0  0  0  0  0  0  0  0  0  0  0
   -8.8523   -1.0992    0.3169 O   0  0  0  0  0  0  0  0  0  0  0  0
   -8.5703    1.0954   -1.2540 H   0  0  0  0  0  0  0  0  0  0  0  0
   -8.5514   -0.4326   -2.1919 H   0  0  0  0  0  0  0  0  0  0  0  0
   -7.9607    1.0744   -2.8970 H   0  0  0  0  0  0  0  0  0  0  0  0
   -5.6881    0.7630   -3.3160 H   0  0  0  0  0  0  0  0  0  0  0  0
   -3.4275    0.2683   -2.6047 H   0  0  0  0  0  0  0  0  0  0  0  0
   -2.6151   -1.1818    0.7400 H   0  0  0  0  0  0  0  0  0  0  0  0
    0.2460    0.4595   -3.2782 H   0  0  0  0  0  0  0  0  0  0  0  0
    2.1612   -0.4050   -1.9462 H   0  0  0  0  0  0  0  0  0  0  0  0
    0.6520   -2.8073    1.6044 H   0  0  0  0  0  0  0  0  0  0  0  0
    2.2457   -2.5968    2.2889 H   0  0  0  0  0  0  0  0  0  0  0  0
    1.0753   -1.2729    2.4129 H   0  0  0  0  0  0  0  0  0  0  0  0
    4.1556   -2.8875    0.6300 H   0  0  0  0  0  0  0  0  0  0  0  0
    6.5132   -2.0854    0.8748 H   0  0  0  0  0  0  0  0  0  0  0  0
    8.7676    0.6871    2.0550 H   0  0  0  0  0  0  0  0  0  0  0  0
    8.5000   -0.7327    1.0374 H   0  0  0  0  0  0  0  0  0  0  0  0
    8.9450    0.8041    0.2911 H   0  0  0  0  0  0  0  0  0  0  0  0
    6.6818    4.1050    1.0937 H   0  0  0  0  0  0  0  0  0  0  0  0
    7.9850    3.2496    0.2158 H   0  0  0  0  0  0  0  0  0  0  0  0
    7.8900    3.1583    2.0101 H   0  0  0  0  0  0  0  0  0  0  0  0
    2.5233    1.1730    0.6138 H   0  0  0  0  0  0  0  0  0  0  0  0
   -4.8779   -1.0284    1.2250 H   0  0  0  0  0  0  0  0  0  0  0  0
   -7.3210    1.6021    1.2479 H   0  0  0  0  0  0  0  0  0  0  0  0
   -8.9591    1.1642    1.2781 H   0  0  0  0  0  0  0  0  0  0  0  0
  1  2  1  0
  2  3  2  0
  3  4  1  0
  4  5  2  0
  5  6  1  0
  6  7  1  0
  7  8  2  0
  8  9  1  0
  9 10  2  0
 10 11  1  0
 11 12  1  0
 12 13  1  0
 12 14  1  0
 14 15  1  0
 15 16  2  0
 16 17  1  0
 17 18  2  0
 18 19  1  0
 18 20  1  0
 20 21  1  0
 20 22  1  0
 22 23  2  0
 23 24  1  0
 11 25  2  0
  5 26  1  0
 26 27  2  0
 27 28  1  0
 28 29  1  0
 28 30  2  0
 28 31  2  0
 27  2  1  0
 25  7  1  0
 24 14  2  0
 23 17  1  0
  1 32  1  0
  1 33  1  0
  1 34  1  0
  3 35  1  0
  4 36  1  0
  6 37  1  0
  9 38  1  0
 10 39  1  0
 13 40  1  0
 13 41  1  0
 13 42  1  0
 15 43  1  0
 16 44  1  0
 19 45  1  0
 19 46  1  0
 19 47  1  0
 21 48  1  0
 21 49  1  0
 21 50  1  0
 24 51  1  0
 26 52  1  0
 29 53  1  0
 29 54  1  0
M  END
$$$$
