
     RDKit          3D

 96 94  0  0  0  0  0  0  0  0999 V2000
   13.9886   -0.3351   -1.6853 C   0  0  0  0  0  0  0  0  0  0  0  0
   13.6554    0.7265   -2.6967 C   0  0  0  0  0  0  0  0  0  0  0  0
   14.4437    1.6354   -2.9711 O   0  0  0  0  0  0  0  0  0  0  0  0
   12.4414    0.6281   -3.3241 N   0  0  0  0  0  0  0  0  0  0  0  0
   12.1461    1.6448   -4.2634 O   0  0  0  0  0  0  0  0  0  0  0  0
   11.3439   -0.3117   -3.1358 C   0  0  0  0  0  0  0  0  0  0  0  0
   10.3759    0.1043   -2.0246 C   0  0  0  0  0  0  0  0  0  0  0  0
    9.5299    1.3274   -2.3928 C   0  0  0  0  0  0  0  0  0  0  0  0
    8.5364    1.7302   -1.3001 C   0  0  0  0  0  0  0  0  0  0  0  0
    7.4136    0.7178   -1.0934 C   0  0  0  0  0  0  0  0  0  0  0  0
    6.4549    1.1906   -0.1145 N   0  0  0  0  0  0  0  0  0  0  0  0
    5.5307    0.3283    0.4388 C   0  0  0  0  0  0  0  0  0  0  0  0
    5.5214   -0.8809    0.2347 O   0  0  0  0  0  0  0  0  0  0  0  0
    4.5319    1.0286    1.3316 C   0  0  0  0  0  0  0  0  0  0  0  0
    3.5589    0.0421    1.9657 C   0  0  0  0  0  0  0  0  0  0  0  0
    2.6130    0.7382    2.9196 C   0  0  0  0  0  0  0  0  0  0  0  0
    2.5893    1.9629    3.0607 O   0  0  0  0  0  0  0  0  0  0  0  0
    1.7792   -0.0718    3.6588 N   0  0  0  0  0  0  0  0  0  0  0  0
    0.8642    0.6208    4.4905 O   0  0  0  0  0  0  0  0  0  0  0  0
    1.3444   -1.4343    3.3724 C   0  0  0  0  0  0  0  0  0  0  0  0
    0.3009   -1.5359    2.2543 C   0  0  0  0  0  0  0  0  0  0  0  0
   -1.0576   -0.8870    2.5404 C   0  0  0  0  0  0  0  0  0  0  0  0
   -1.7834   -1.4944    3.7441 C   0  0  0  0  0  0  0  0  0  0  0  0
   -3.1367   -0.8366    4.0087 C   0  0  0  0  0  0  0  0  0  0  0  0
   -4.1144   -1.1543    2.9873 N   0  0  0  0  0  0  0  0  0  0  0  0
   -4.6037   -0.2122    2.1076 C   0  0  0  0  0  0  0  0  0  0  0  0
   -4.2276    0.9538    2.0772 O   0  0  0  0  0  0  0  0  0  0  0  0
   -5.6519   -0.7755    1.1739 C   0  0  0  0  0  0  0  0  0  0  0  0
   -6.2837    0.3105    0.3122 C   0  0  0  0  0  0  0  0  0  0  0  0
   -7.4532   -0.2296   -0.4898 C   0  0  0  0  0  0  0  0  0  0  0  0
   -7.7513   -1.4240   -0.4858 O   0  0  0  0  0  0  0  0  0  0  0  0
   -8.1753    0.7195   -1.1869 N   0  0  0  0  0  0  0  0  0  0  0  0
   -7.5632    1.9673   -1.4237 O   0  0  0  0  0  0  0  0  0  0  0  0
   -9.1351    0.3570   -2.2244 C   0  0  0  0  0  0  0  0  0  0  0  0
  -10.5391    0.2172   -1.6356 C   0  0  0  0  0  0  0  0  0  0  0  0
  -11.5598   -0.1562   -2.7110 C   0  0  0  0  0  0  0  0  0  0  0  0
  -12.9497   -0.5130   -2.1695 C   0  0  0  0  0  0  0  0  0  0  0  0
  -13.7724    0.6658   -1.6425 C   0  0  0  0  0  0  0  0  0  0  0  0
  -13.2817    1.1761   -0.3687 N   0  0  0  0  0  0  0  0  0  0  0  0
   -1.0973   -0.2407   -0.1424 C   0  0  0  0  0  0  0  0  0  0  0  0
    0.4697    0.5477    0.1502 S   0  0  0  0  0  6  0  0  0  0  0  0
    0.7576    0.5441    1.5660 O   0  0  0  0  0  0  0  0  0  0  0  0
    0.5775    1.7338   -0.6643 O   0  0  0  0  0  0  0  0  0  0  0  0
    1.4171   -0.5909   -0.4916 O   0  0  0  0  0  0  0  0  0  0  0  0
   13.2136   -0.3906   -0.9178 H   0  0  0  0  0  0  0  0  0  0  0  0
   14.9356   -0.0864   -1.1979 H   0  0  0  0  0  0  0  0  0  0  0  0
   14.0965   -1.3029   -2.1831 H   0  0  0  0  0  0  0  0  0  0  0  0
   12.9829    2.1628   -4.2679 H   0  0  0  0  0  0  0  0  0  0  0  0
   11.7771   -1.2817   -2.8706 H   0  0  0  0  0  0  0  0  0  0  0  0
   10.8172   -0.4322   -4.0891 H   0  0  0  0  0  0  0  0  0  0  0  0
   10.9269    0.3097   -1.0990 H   0  0  0  0  0  0  0  0  0  0  0  0
    9.7176   -0.7485   -1.8256 H   0  0  0  0  0  0  0  0  0  0  0  0
    8.9905    1.1401   -3.3281 H   0  0  0  0  0  0  0  0  0  0  0  0
   10.1894    2.1829   -2.5747 H   0  0  0  0  0  0  0  0  0  0  0  0
    8.0962    2.6971   -1.5748 H   0  0  0  0  0  0  0  0  0  0  0  0
    9.0690    1.8940   -0.3555 H   0  0  0  0  0  0  0  0  0  0  0  0
    7.8073   -0.2459   -0.7526 H   0  0  0  0  0  0  0  0  0  0  0  0
    6.8696    0.5452   -2.0291 H   0  0  0  0  0  0  0  0  0  0  0  0
    6.2384    2.1804   -0.0996 H   0  0  0  0  0  0  0  0  0  0  0  0
    3.9872    1.7674    0.7329 H   0  0  0  0  0  0  0  0  0  0  0  0
    5.0839    1.5677    2.1098 H   0  0  0  0  0  0  0  0  0  0  0  0
    4.1163   -0.7200    2.5219 H   0  0  0  0  0  0  0  0  0  0  0  0
    2.9773   -0.4575    1.1839 H   0  0  0  0  0  0  0  0  0  0  0  0
    1.0698    1.5599    4.2833 H   0  0  0  0  0  0  0  0  0  0  0  0
    0.9805   -1.8829    4.3021 H   0  0  0  0  0  0  0  0  0  0  0  0
    2.2266   -2.0068    3.0661 H   0  0  0  0  0  0  0  0  0  0  0  0
    0.1385   -2.5978    2.0344 H   0  0  0  0  0  0  0  0  0  0  0  0
    0.7036   -1.0906    1.3378 H   0  0  0  0  0  0  0  0  0  0  0  0
   -0.9375    0.1928    2.6804 H   0  0  0  0  0  0  0  0  0  0  0  0
   -1.6803   -1.0095    1.6452 H   0  0  0  0  0  0  0  0  0  0  0  0
   -1.1734   -1.3714    4.6456 H   0  0  0  0  0  0  0  0  0  0  0  0
   -1.9165   -2.5719    3.5878 H   0  0  0  0  0  0  0  0  0  0  0  0
   -3.5458   -1.2198    4.9503 H   0  0  0  0  0  0  0  0  0  0  0  0
   -3.0262    0.2476    4.1131 H   0  0  0  0  0  0  0  0  0  0  0  0
   -4.4839   -2.0962    2.9535 H   0  0  0  0  0  0  0  0  0  0  0  0
   -5.1811   -1.5350    0.5393 H   0  0  0  0  0  0  0  0  0  0  0  0
   -6.4200   -1.2720    1.7786 H   0  0  0  0  0  0  0  0  0  0  0  0
   -5.5355    0.7179   -0.3778 H   0  0  0  0  0  0  0  0  0  0  0  0
   -6.6460    1.1279    0.9475 H   0  0  0  0  0  0  0  0  0  0  0  0
   -8.0699    2.5495   -0.8269 H   0  0  0  0  0  0  0  0  0  0  0  0
   -9.1274    1.1290   -3.0031 H   0  0  0  0  0  0  0  0  0  0  0  0
   -8.8201   -0.5877   -2.6818 H   0  0  0  0  0  0  0  0  0  0  0  0
  -10.8120    1.1683   -1.1669 H   0  0  0  0  0  0  0  0  0  0  0  0
  -10.5343   -0.5423   -0.8448 H   0  0  0  0  0  0  0  0  0  0  0  0
  -11.6451    0.6586   -3.4417 H   0  0  0  0  0  0  0  0  0  0  0  0
  -11.1854   -1.0297   -3.2593 H   0  0  0  0  0  0  0  0  0  0  0  0
  -13.5169   -0.9621   -2.9953 H   0  0  0  0  0  0  0  0  0  0  0  0
  -12.8627   -1.2916   -1.4008 H   0  0  0  0  0  0  0  0  0  0  0  0
  -13.7832    1.4769   -2.3788 H   0  0  0  0  0  0  0  0  0  0  0  0
  -14.8098    0.3378   -1.5057 H   0  0  0  0  0  0  0  0  0  0  0  0
  -13.3122    0.4337    0.3293 H   0  0  0  0  0  0  0  0  0  0  0  0
  -13.9101    1.9055   -0.0334 H   0  0  0  0  0  0  0  0  0  0  0  0
   -1.2285   -0.3721   -1.2181 H   0  0  0  0  0  0  0  0  0  0  0  0
   -1.1116   -1.2030    0.3725 H   0  0  0  0  0  0  0  0  0  0  0  0
   -1.8823    0.4067    0.2541 H   0  0  0  0  0  0  0  0  0  0  0  0
    2.0977   -0.8256    0.1737 H   0  0  0  0  0  0  0  0  0  0  0  0
  1  2  1  0
  2  3  2  0
  2  4  1  0
  4  5  1  0
  4  6  1  0
  6  7  1  0
  7  8  1  0
  8  9  1  0
  9 10  1  0
 10 11  1  0
 11 12  1  0
 12 13  2  0
 12 14  1  0
 14 15  1  0
 15 16  1  0
 16 17  2  0
 16 18  1  0
 18 19  1  0
 18 20  1  0
 20 21  1  0
 21 22  1  0
 22 23  1  0
 23 24  1  0
 24 25  1  0
 25 26  1  0
 26 27  2  0
 26 28  1  0
 28 29  1  0
 29 30  1  0
 30 31  2  0
 30 32  1  0
 32 33  1  0
 32 34  1  0
 34 35  1  0
 35 36  1  0
 36 37  1  0
 37 38  1  0
 38 39  1  0
 40 41  1  0
 41 42  2  0
 41 43  2  0
 41 44  1  0
  1 45  1  0
  1 46  1  0
  1 47  1  0
  5 48  1  0
  6 49  1  0
  6 50  1  0
  7 51  1  0
  7 52  1  0
  8 53  1  0
  8 54  1  0
  9 55  1  0
  9 56  1  0
 10 57  1  0
 10 58  1  0
 11 59  1  0
 14 60  1  0
 14 61  1  0
 15 62  1  0
 15 63  1  0
 19 64  1  0
 20 65  1  0
 20 66  1  0
 21 67  1  0
 21 68  1  0
 22 69  1  0
 22 70  1  0
 23 71  1  0
 23 72  1  0
 24 73  1  0
 24 74  1  0
 25 75  1  0
 28 76  1  0
 28 77  1  0
 29 78  1  0
 29 79  1  0
 33 80  1  0
 34 81  1  0
 34 82  1  0
 35 83  1  0
 35 84  1  0
 36 85  1  0
 36 86  1  0
 37 87  1  0
 37 88  1  0
 38 89  1  0
 38 90  1  0
 39 91  1  0
 39 92  1  0
 40 93  1  0
 40 94  1  0
 40 95  1  0
 44 96  1  0
M  END
$$$$
