
     RDKit          3D

 24 26  0  0  0  0  0  0  0  0999 V2000
    1.8536   -2.9458   -0.3008 O   0  0  0  0  0  0  0  0  0  0  0  0
    1.0835   -1.9980   -0.2174 C   0  0  0  0  0  0  0  0  0  0  0  0
   -0.4064   -2.2169   -0.3652 C   0  0  0  0  0  0  0  0  0  0  0  0
   -0.8435   -3.3421   -0.5684 O   0  0  0  0  0  0  0  0  0  0  0  0
   -1.3076   -1.0537   -0.2595 C   0  0  0  0  0  0  0  0  0  0  0  0
   -2.6887   -1.2797   -0.4000 C   0  0  0  0  0  0  0  0  0  0  0  0
   -3.5845   -0.2216   -0.3096 C   0  0  0  0  0  0  0  0  0  0  0  0
   -3.1018    1.0590   -0.0796 C   0  0  0  0  0  0  0  0  0  0  0  0
   -1.7254    1.2807    0.0599 C   0  0  0  0  0  0  0  0  0  0  0  0
   -0.7855    0.2321   -0.0256 C   0  0  0  0  0  0  0  0  0  0  0  0
    0.6765    0.4469    0.1194 C   0  0  0  0  0  0  0  0  0  0  0  0
    1.2438    1.7169    0.3545 C   0  0  0  0  0  0  0  0  0  0  0  0
    2.6264    1.9006    0.4887 C   0  0  0  0  0  0  0  0  0  0  0  0
    3.4887    0.8177    0.3920 C   0  0  0  0  0  0  0  0  0  0  0  0
    2.9663   -0.4488    0.1610 C   0  0  0  0  0  0  0  0  0  0  0  0
    1.5780   -0.6297    0.0268 C   0  0  0  0  0  0  0  0  0  0  0  0
   -3.0668   -2.2852   -0.5806 H   0  0  0  0  0  0  0  0  0  0  0  0
   -4.6518   -0.3970   -0.4183 H   0  0  0  0  0  0  0  0  0  0  0  0
   -3.7951    1.8945   -0.0072 H   0  0  0  0  0  0  0  0  0  0  0  0
   -1.4187    2.3076    0.2382 H   0  0  0  0  0  0  0  0  0  0  0  0
    0.6289    2.6084    0.4414 H   0  0  0  0  0  0  0  0  0  0  0  0
    3.0255    2.8966    0.6695 H   0  0  0  0  0  0  0  0  0  0  0  0
    4.5619    0.9568    0.4957 H   0  0  0  0  0  0  0  0  0  0  0  0
    3.6426   -1.2993    0.0850 H   0  0  0  0  0  0  0  0  0  0  0  0
  1  2  2  0
  2  3  1  0
  3  4  2  0
  3  5  1  0
  5  6  2  0
  6  7  1  0
  7  8  2  0
  8  9  1  0
  9 10  2  0
 10 11  1  0
 11 12  2  0
 12 13  1  0
 13 14  2  0
 14 15  1  0
 15 16  2  0
 16  2  1  0
 10  5  1  0
 16 11  1  0
  6 17  1  0
  7 18  1  0
  8 19  1  0
  9 20  1  0
 12 21  1  0
 13 22  1  0
 14 23  1  0
 15 24  1  0
M  END
$$$$
