
     RDKit          3D

 70 75  0  0  0  0  0  0  0  0999 V2000
   -0.7348   -1.8340   -3.5846 C   0  0  0  0  0  0  0  0  0  0  0  0
   -1.1806   -1.2629   -2.2431 C   0  0  0  0  0  0  0  0  0  0  0  0
   -0.0968   -0.7662   -1.3024 C   0  0  0  0  0  0  0  0  0  0  0  0
    1.2674   -0.9722   -1.5640 C   0  0  0  0  0  0  0  0  0  0  0  0
    2.2664   -0.4993   -0.6943 C   0  0  0  0  0  0  0  0  0  0  0  0
    1.9177    0.1979    0.4828 C   0  0  0  0  0  0  0  0  0  0  0  0
    0.5446    0.3916    0.7391 C   0  0  0  0  0  0  0  0  0  0  0  0
   -0.4625   -0.0762   -0.1270 C   0  0  0  0  0  0  0  0  0  0  0  0
   -1.8266    0.1170    0.1666 N   0  0  0  0  0  0  0  0  0  0  0  0
   -2.3325   -0.8577    1.1451 C   0  0  0  0  0  0  0  0  0  0  0  0
   -3.7144   -0.4495    1.6758 C   0  0  0  0  0  0  0  0  0  0  0  0
   -4.5175    0.3364    0.6203 C   0  0  0  0  0  0  0  0  0  0  0  0
   -5.8990    0.6897    1.0518 N   0  0  0  0  0  0  0  0  0  0  0  0
   -6.7162   -0.4644    1.5004 C   0  0  0  0  0  0  0  0  0  0  0  0
   -7.1432   -1.4018    0.3589 C   0  0  0  0  0  0  0  0  0  0  0  0
   -7.8868   -0.6933   -0.6402 O   0  0  0  0  0  0  0  0  0  0  0  0
   -7.1324    0.4130   -1.1511 C   0  0  0  0  0  0  0  0  0  0  0  0
   -6.6825    1.3594   -0.0224 C   0  0  0  0  0  0  0  0  0  0  0  0
   -3.7300    1.6227    0.2507 C   0  0  0  0  0  0  0  0  0  0  0  0
   -2.2175    1.4974    0.4409 C   0  0  0  0  0  0  0  0  0  0  0  0
    2.9706    0.7357    1.4760 C   0  0  0  0  0  0  0  0  0  0  0  0
    2.8269    2.2685    1.6027 C   0  0  0  0  0  0  0  0  0  0  0  0
    2.7633    0.0757    2.8571 C   0  0  0  0  0  0  0  0  0  0  0  0
    4.3626    0.4160    0.9883 C   0  0  0  0  0  0  0  0  0  0  0  0
    5.5272    0.7584    1.6282 N   0  0  0  0  0  0  0  0  0  0  0  0
    6.6126    0.3121    0.9071 C   0  0  0  0  0  0  0  0  0  0  0  0
    7.9835    0.4339    1.1725 C   0  0  0  0  0  0  0  0  0  0  0  0
    8.8796   -0.1251    0.2487 C   0  0  0  0  0  0  0  0  0  0  0  0
   10.2909   -0.0206    0.4834 C   0  0  0  0  0  0  0  0  0  0  0  0
   11.4311    0.0689    0.6817 N   0  0  0  0  0  0  0  0  0  0  0  0
    8.4122   -0.7798   -0.8933 C   0  0  0  0  0  0  0  0  0  0  0  0
    7.0381   -0.8909   -1.1406 C   0  0  0  0  0  0  0  0  0  0  0  0
    6.1191   -0.3364   -0.2267 C   0  0  0  0  0  0  0  0  0  0  0  0
    4.6978   -0.2642   -0.1641 C   0  0  0  0  0  0  0  0  0  0  0  0
    3.6910   -0.7691   -1.0751 C   0  0  0  0  0  0  0  0  0  0  0  0
    3.9700   -1.3820   -2.0999 O   0  0  0  0  0  0  0  0  0  0  0  0
   -0.1575   -1.1013   -4.1582 H   0  0  0  0  0  0  0  0  0  0  0  0
   -0.1242   -2.7334   -3.4533 H   0  0  0  0  0  0  0  0  0  0  0  0
   -1.6095   -2.1132   -4.1813 H   0  0  0  0  0  0  0  0  0  0  0  0
   -1.8604   -0.4282   -2.4570 H   0  0  0  0  0  0  0  0  0  0  0  0
   -1.7580   -2.0370   -1.7234 H   0  0  0  0  0  0  0  0  0  0  0  0
    1.5770   -1.5062   -2.4604 H   0  0  0  0  0  0  0  0  0  0  0  0
    0.2400    0.9095    1.6454 H   0  0  0  0  0  0  0  0  0  0  0  0
   -2.4169   -1.8361    0.6559 H   0  0  0  0  0  0  0  0  0  0  0  0
   -1.6513   -0.9775    1.9977 H   0  0  0  0  0  0  0  0  0  0  0  0
   -4.2203   -1.3677    1.9891 H   0  0  0  0  0  0  0  0  0  0  0  0
   -3.5945    0.1663    2.5771 H   0  0  0  0  0  0  0  0  0  0  0  0
   -4.5660   -0.2949   -0.2765 H   0  0  0  0  0  0  0  0  0  0  0  0
   -6.2269   -1.0269    2.2997 H   0  0  0  0  0  0  0  0  0  0  0  0
   -7.6249   -0.0554    1.9633 H   0  0  0  0  0  0  0  0  0  0  0  0
   -6.2834   -1.8940   -0.1091 H   0  0  0  0  0  0  0  0  0  0  0  0
   -7.7961   -2.1869    0.7542 H   0  0  0  0  0  0  0  0  0  0  0  0
   -7.7813    0.9559   -1.8458 H   0  0  0  0  0  0  0  0  0  0  0  0
   -6.2823    0.0329   -1.7282 H   0  0  0  0  0  0  0  0  0  0  0  0
   -7.5805    1.7817    0.4487 H   0  0  0  0  0  0  0  0  0  0  0  0
   -6.1482    2.2174   -0.4417 H   0  0  0  0  0  0  0  0  0  0  0  0
   -4.0716    2.4823    0.8419 H   0  0  0  0  0  0  0  0  0  0  0  0
   -3.9341    1.8673   -0.8001 H   0  0  0  0  0  0  0  0  0  0  0  0
   -1.9477    1.7834    1.4659 H   0  0  0  0  0  0  0  0  0  0  0  0
   -1.7172    2.2007   -0.2371 H   0  0  0  0  0  0  0  0  0  0  0  0
    1.8452    2.5607    1.9916 H   0  0  0  0  0  0  0  0  0  0  0  0
    2.9550    2.7609    0.6306 H   0  0  0  0  0  0  0  0  0  0  0  0
    3.5761    2.6892    2.2838 H   0  0  0  0  0  0  0  0  0  0  0  0
    2.8439   -1.0166    2.7917 H   0  0  0  0  0  0  0  0  0  0  0  0
    1.7806    0.3070    3.2825 H   0  0  0  0  0  0  0  0  0  0  0  0
    3.5115    0.4160    3.5829 H   0  0  0  0  0  0  0  0  0  0  0  0
    5.5924    1.2648    2.5013 H   0  0  0  0  0  0  0  0  0  0  0  0
    8.3398    0.9441    2.0631 H   0  0  0  0  0  0  0  0  0  0  0  0
    9.1110   -1.2125   -1.6074 H   0  0  0  0  0  0  0  0  0  0  0  0
    6.6807   -1.4008   -2.0329 H   0  0  0  0  0  0  0  0  0  0  0  0
  1  2  1  0
  2  3  1  0
  3  4  2  0
  4  5  1  0
  5  6  2  0
  6  7  1  0
  7  8  2  0
  8  9  1  0
  9 10  1  0
 10 11  1  0
 11 12  1  0
 12 13  1  0
 13 14  1  0
 14 15  1  0
 15 16  1  0
 16 17  1  0
 17 18  1  0
 12 19  1  0
 19 20  1  0
  6 21  1  0
 21 22  1  0
 21 23  1  0
 21 24  1  0
 24 25  1  0
 25 26  1  0
 26 27  2  0
 27 28  1  0
 28 29  1  0
 29 30  3  0
 28 31  2  0
 31 32  1  0
 32 33  2  0
 33 34  1  0
 34 35  1  0
 35 36  2  0
  8  3  1  0
 20  9  1  0
 34 24  2  0
 35  5  1  0
 18 13  1  0
 33 26  1  0
  1 37  1  0
  1 38  1  0
  1 39  1  0
  2 40  1  0
  2 41  1  0
  4 42  1  0
  7 43  1  0
 10 44  1  0
 10 45  1  0
 11 46  1  0
 11 47  1  0
 12 48  1  0
 14 49  1  0
 14 50  1  0
 15 51  1  0
 15 52  1  0
 17 53  1  0
 17 54  1  0
 18 55  1  0
 18 56  1  0
 19 57  1  0
 19 58  1  0
 20 59  1  0
 20 60  1  0
 22 61  1  0
 22 62  1  0
 22 63  1  0
 23 64  1  0
 23 65  1  0
 23 66  1  0
 25 67  1  0
 27 68  1  0
 31 69  1  0
 32 70  1  0
M  END
$$$$
