
     RDKit          3D

 61 65  0  0  0  0  0  0  0  0999 V2000
    5.3056   -1.8982   -4.1470 C   0  0  0  0  0  0  0  0  0  0  0  0
    5.7234   -1.9854   -2.7881 O   0  0  0  0  0  0  0  0  0  0  0  0
    4.7131   -1.5920   -1.8661 C   0  0  0  0  0  0  0  0  0  0  0  0
    4.3080   -0.0988   -1.8207 C   0  0  0  0  0  0  0  0  0  0  0  0
    4.8717    0.7340   -2.5365 O   0  0  0  0  0  0  0  0  0  0  0  0
    3.2748    0.2414   -0.9444 N   0  0  0  0  0  0  0  0  0  0  0  0
    2.7774    1.6149   -0.9633 C   0  0  0  0  0  0  0  0  0  0  0  0
    1.2580    1.6271   -0.8310 C   0  0  0  0  0  0  0  0  0  0  0  0
    0.8155    1.0026    0.5113 C   0  0  1  0  0  0  0  0  0  0  0  0
    0.6265    2.1061    1.5319 C   0  0  0  0  0  0  0  0  0  0  0  0
    1.2523    3.2665    1.5543 N   0  0  0  0  0  0  0  0  0  0  0  0
    0.7796    3.8520    2.6972 C   0  0  0  0  0  0  0  0  0  0  0  0
    1.1875    5.2178    3.0894 C   0  0  0  0  0  0  0  0  0  0  0  0
   -0.0855    3.1077    3.4094 N   0  0  0  0  0  0  0  0  0  0  0  0
   -0.1756    2.0117    2.6385 N   0  0  0  0  0  0  0  0  0  0  0  0
   -0.4440    0.1474    0.3165 C   0  0  0  0  0  0  0  0  0  0  0  0
   -0.4800   -0.6767    1.5354 N   0  0  0  0  0  0  0  0  0  0  0  0
   -1.3258   -1.8785    1.4003 C   0  0  0  0  0  0  0  0  0  0  0  0
   -2.7253   -1.5190    1.0126 C   0  0  0  0  0  0  0  0  0  0  0  0
   -3.7488   -1.0641    1.8479 C   0  0  0  0  0  0  0  0  0  0  0  0
   -4.8596   -0.8534    1.0749 N   0  0  0  0  0  0  0  0  0  0  0  0
   -6.1464   -0.4198    1.5755 C   0  0  0  0  0  0  0  0  0  0  0  0
   -4.5918   -1.1368   -0.2482 C   0  0  0  0  0  0  0  0  0  0  0  0
   -5.3879   -1.0272   -1.3978 C   0  0  0  0  0  0  0  0  0  0  0  0
   -4.8315   -1.4121   -2.6244 C   0  0  0  0  0  0  0  0  0  0  0  0
   -3.5299   -1.8836   -2.7030 C   0  0  0  0  0  0  0  0  0  0  0  0
   -2.7412   -1.9858   -1.5601 C   0  0  0  0  0  0  0  0  0  0  0  0
   -3.2691   -1.5883   -0.3132 C   0  0  0  0  0  0  0  0  0  0  0  0
    0.9169   -1.0444    1.8195 C   0  0  0  0  0  0  0  0  0  0  0  0
    1.8089   -0.0371    1.0640 C   0  0  1  0  0  0  0  0  0  0  0  0
    2.6157   -0.7180   -0.0546 C   0  0  0  0  0  0  0  0  0  0  0  0
    5.1224   -0.8625   -4.4430 H   0  0  0  0  0  0  0  0  0  0  0  0
    4.4110   -2.5107   -4.3261 H   0  0  0  0  0  0  0  0  0  0  0  0
    6.1202   -2.2897   -4.7612 H   0  0  0  0  0  0  0  0  0  0  0  0
    3.8210   -2.2089   -2.0478 H   0  0  0  0  0  0  0  0  0  0  0  0
    5.1095   -1.8412   -0.8730 H   0  0  0  0  0  0  0  0  0  0  0  0
    3.0586    2.1090   -1.8920 H   0  0  0  0  0  0  0  0  0  0  0  0
    3.2660    2.1555   -0.1507 H   0  0  0  0  0  0  0  0  0  0  0  0
    0.8365    1.0516   -1.6714 H   0  0  0  0  0  0  0  0  0  0  0  0
    0.8805    2.6544   -0.9377 H   0  0  0  0  0  0  0  0  0  0  0  0
    0.3065    5.8592    3.2171 H   0  0  0  0  0  0  0  0  0  0  0  0
    1.7504    5.2141    4.0337 H   0  0  0  0  0  0  0  0  0  0  0  0
    1.8198    5.6736    2.3220 H   0  0  0  0  0  0  0  0  0  0  0  0
   -0.7512    1.2291    2.9306 H   0  0  0  0  0  0  0  0  0  0  0  0
   -0.3123   -0.5070   -0.5605 H   0  0  0  0  0  0  0  0  0  0  0  0
   -1.3439    0.7552    0.1907 H   0  0  0  0  0  0  0  0  0  0  0  0
   -0.9093   -2.5560    0.6392 H   0  0  0  0  0  0  0  0  0  0  0  0
   -1.3326   -2.4312    2.3448 H   0  0  0  0  0  0  0  0  0  0  0  0
   -3.7621   -0.8562    2.9168 H   0  0  0  0  0  0  0  0  0  0  0  0
   -6.3524    0.5848    1.1753 H   0  0  0  0  0  0  0  0  0  0  0  0
   -6.1345   -0.3764    2.6602 H   0  0  0  0  0  0  0  0  0  0  0  0
   -6.9081   -1.1248    1.2300 H   0  0  0  0  0  0  0  0  0  0  0  0
   -6.4024   -0.6447   -1.3497 H   0  0  0  0  0  0  0  0  0  0  0  0
   -5.4234   -1.3265   -3.5272 H   0  0  0  0  0  0  0  0  0  0  0  0
   -3.1185   -2.1792   -3.6661 H   0  0  0  0  0  0  0  0  0  0  0  0
   -1.7258   -2.3475   -1.6495 H   0  0  0  0  0  0  0  0  0  0  0  0
    1.0763   -0.9427    2.9026 H   0  0  0  0  0  0  0  0  0  0  0  0
    1.1506   -2.0872    1.5513 H   0  0  0  0  0  0  0  0  0  0  0  0
    2.5180    0.4325    1.7634 H   0  0  0  0  0  0  0  0  0  0  0  0
    1.9673   -1.3518   -0.6861 H   0  0  0  0  0  0  0  0  0  0  0  0
    3.3694   -1.3851    0.3839 H   0  0  0  0  0  0  0  0  0  0  0  0
  1  2  1  0
  2  3  1  0
  3  4  1  0
  4  5  2  0
  4  6  1  0
  6  7  1  0
  7  8  1  0
  8  9  1  0
  9 10  1  1
 10 11  2  0
 11 12  1  0
 12 13  1  0
 12 14  2  0
 14 15  1  0
  9 16  1  0
 16 17  1  0
 17 18  1  0
 18 19  1  0
 19 20  2  0
 20 21  1  0
 21 22  1  0
 21 23  1  0
 23 24  2  0
 24 25  1  0
 25 26  2  0
 26 27  1  0
 27 28  2  0
 17 29  1  0
 29 30  1  0
 30 31  1  0
 31  6  1  0
 30  9  1  0
 15 10  1  0
 28 19  1  0
 28 23  1  0
  1 32  1  0
  1 33  1  0
  1 34  1  0
  3 35  1  0
  3 36  1  0
  7 37  1  0
  7 38  1  0
  8 39  1  0
  8 40  1  0
 13 41  1  0
 13 42  1  0
 13 43  1  0
 15 44  1  0
 16 45  1  0
 16 46  1  0
 18 47  1  0
 18 48  1  0
 20 49  1  0
 22 50  1  0
 22 51  1  0
 22 52  1  0
 24 53  1  0
 25 54  1  0
 26 55  1  0
 27 56  1  0
 29 57  1  0
 29 58  1  0
 30 59  1  1
 31 60  1  0
 31 61  1  0
M  END
$$$$
