
     RDKit          3D

 59 65  0  0  0  0  0  0  0  0999 V2000
    0.6920    0.0000    0.0000 Cl  0  0  0  0  0  0  0  0  0  0  0  0
   -3.2814   -4.1663    0.7949 O   0  0  0  0  0  0  0  0  0  0  0  0
   -2.0667   -3.5015    0.9670 C   0  0  0  0  0  0  0  0  0  0  0  0
   -1.2635   -3.7467    2.0646 C   0  0  0  0  0  0  0  0  0  0  0  0
   -0.0538   -3.0606    2.2038 C   0  0  0  0  0  0  0  0  0  0  0  0
    0.3393   -2.1379    1.2461 C   0  0  0  0  0  0  0  0  0  0  0  0
   -0.5030   -1.9602    0.2072 C   0  0  0  0  0  0  0  0  0  0  0  0
   -1.6852   -2.5747   -0.0079 C   0  0  0  0  0  0  0  0  0  0  0  0
   -2.2051   -2.0817   -1.1928 O   0  0  0  0  0  0  0  0  0  0  0  0
   -1.5955   -0.8062   -1.4696 C   0  0  1  0  0  0  0  0  0  0  0  0
   -2.3059    0.3145   -0.8293 C   0  0  0  0  0  0  0  0  0  0  0  0
   -3.5212    0.8158   -1.1104 N   0  0  0  0  0  0  0  0  0  0  0  0
   -3.8048    1.8514   -0.2992 C   0  0  0  0  0  0  0  0  0  0  0  0
   -4.8843    2.6956   -0.1680 C   0  0  0  0  0  0  0  0  0  0  0  0
   -4.8904    3.7098    0.7957 C   0  0  0  0  0  0  0  0  0  0  0  0
   -3.8237    3.8950    1.6392 C   0  0  0  0  0  0  0  0  0  0  0  0
   -2.7388    3.0547    1.5141 C   0  0  0  0  0  0  0  0  0  0  0  0
   -2.7457    2.0536    0.5545 C   0  0  0  0  0  0  0  0  0  0  0  0
   -1.8110    1.0726    0.2035 C   0  0  0  0  0  0  0  0  0  0  0  0
   -0.4822    0.8026    0.7820 C   0  0  0  0  0  0  0  0  0  0  0  0
    0.3847    0.1851   -0.2646 C   0  0  1  0  0  0  0  0  0  0  0  0
    0.6552    1.1247   -1.2410 O   0  0  0  0  0  0  0  0  0  0  0  0
    1.7198   -0.2831    0.3118 C   0  0  1  0  0  0  0  0  0  0  0  0
    1.5876   -1.3657    1.3332 C   0  0  0  0  0  0  0  0  0  0  0  0
    2.5215   -0.6390   -0.8085 N   0  0  0  0  0  0  0  0  0  0  0  0
    3.8919   -0.3133   -0.7752 C   0  0  0  0  0  0  0  0  0  0  0  0
    4.0497    1.1850   -0.8663 C   0  0  0  0  0  0  0  0  0  0  0  0
    5.3914    1.8136   -0.8404 C   0  0  0  0  0  0  0  0  0  0  0  0
    4.3896    2.0162    0.3019 C   0  0  0  0  0  0  0  0  0  0  0  0
    2.1029   -1.7917   -1.5145 C   0  0  0  0  0  0  0  0  0  0  0  0
    0.6600   -1.6298   -1.9258 C   0  0  0  0  0  0  0  0  0  0  0  0
   -0.2281   -1.0287   -0.8981 C   0  0  1  0  0  0  0  0  0  0  0  0
   -0.6920    0.0000    0.0000 H   0  0  0  0  0  0  0  0  0  0  0  0
   -3.8592   -3.9882    0.0081 H   0  0  0  0  0  0  0  0  0  0  0  0
   -1.5847   -4.4690    2.7948 H   0  0  0  0  0  0  0  0  0  0  0  0
    0.5932   -3.2286    3.0517 H   0  0  0  0  0  0  0  0  0  0  0  0
   -1.4836   -0.6857   -2.5667 H   0  0  0  0  0  0  0  0  0  0  0  0
   -4.1641    0.4648   -1.8480 H   0  0  0  0  0  0  0  0  0  0  0  0
   -5.7091    2.5361   -0.8384 H   0  0  0  0  0  0  0  0  0  0  0  0
   -5.7812    4.3217    0.8208 H   0  0  0  0  0  0  0  0  0  0  0  0
   -3.8734    4.6950    2.3684 H   0  0  0  0  0  0  0  0  0  0  0  0
   -1.8917    3.1750    2.1570 H   0  0  0  0  0  0  0  0  0  0  0  0
    0.0117    1.7605    1.1104 H   0  0  0  0  0  0  0  0  0  0  0  0
   -0.5906    0.1760    1.6936 H   0  0  0  0  0  0  0  0  0  0  0  0
   -0.1233    1.6868   -1.4710 H   0  0  0  0  0  0  0  0  0  0  0  0
    2.1703    0.6170    0.7796 H   0  0  0  0  0  0  0  0  0  0  0  0
    2.4960   -2.0025    1.2512 H   0  0  0  0  0  0  0  0  0  0  0  0
    1.6176   -0.8678    2.3495 H   0  0  0  0  0  0  0  0  0  0  0  0
    4.4609   -0.7454    0.0725 H   0  0  0  0  0  0  0  0  0  0  0  0
    4.3480   -0.7142   -1.7310 H   0  0  0  0  0  0  0  0  0  0  0  0
    3.2960    1.6326   -1.5814 H   0  0  0  0  0  0  0  0  0  0  0  0
    5.5179    2.7303   -1.4599 H   0  0  0  0  0  0  0  0  0  0  0  0
    6.2407    1.1383   -0.7003 H   0  0  0  0  0  0  0  0  0  0  0  0
    3.9082    3.0158    0.3988 H   0  0  0  0  0  0  0  0  0  0  0  0
    4.7427    1.6187    1.2567 H   0  0  0  0  0  0  0  0  0  0  0  0
    2.7002   -1.8826   -2.4529 H   0  0  0  0  0  0  0  0  0  0  0  0
    2.2878   -2.7462   -0.9734 H   0  0  0  0  0  0  0  0  0  0  0  0
    0.2913   -2.6723   -2.1376 H   0  0  0  0  0  0  0  0  0  0  0  0
    0.5746   -1.0690   -2.8797 H   0  0  0  0  0  0  0  0  0  0  0  0
  2  3  1  0
  3  4  2  0
  4  5  1  0
  5  6  2  0
  6  7  1  0
  7  8  2  0
  8  9  1  0
  9 10  1  0
 10 11  1  0
 11 12  1  0
 12 13  1  0
 13 14  2  0
 14 15  1  0
 15 16  2  0
 16 17  1  0
 17 18  2  0
 18 19  1  0
 19 20  1  0
 20 21  1  0
 21 22  1  6
 21 23  1  0
 23 24  1  0
 23 25  1  0
 25 26  1  0
 26 27  1  0
 27 28  1  0
 28 29  1  0
 25 30  1  0
 30 31  1  0
 32 31  1  6
  8  3  1  0
 32 10  1  0
 24  6  1  0
 29 27  1  0
 32  7  1  0
 19 11  2  0
 32 21  1  0
 18 13  1  0
  1 33  1  0
  2 34  1  0
  4 35  1  0
  5 36  1  0
 10 37  1  6
 12 38  1  0
 14 39  1  0
 15 40  1  0
 16 41  1  0
 17 42  1  0
 20 43  1  0
 20 44  1  0
 22 45  1  0
 23 46  1  1
 24 47  1  0
 24 48  1  0
 26 49  1  0
 26 50  1  0
 27 51  1  0
 28 52  1  0
 28 53  1  0
 29 54  1  0
 29 55  1  0
 30 56  1  0
 30 57  1  0
 31 58  1  0
 31 59  1  0
M  END
$$$$
