
     RDKit          3D

 46 48  0  0  0  0  0  0  0  0999 V2000
    0.8615    4.0201   -1.3149 C   0  0  0  0  0  0  0  0  0  0  0  0
   -0.8259    3.3687   -1.3600 S   0  0  0  0  0  0  0  0  0  0  0  0
   -0.5158    1.6629   -0.9773 C   0  0  0  0  0  0  0  0  0  0  0  0
   -1.5859    0.9242   -0.6508 N   0  0  0  0  0  0  0  0  0  0  0  0
   -1.3985   -0.3778   -0.3727 C   0  0  0  0  0  0  0  0  0  0  0  0
   -2.5072   -1.1457    0.0341 N   0  0  0  0  0  0  0  0  0  0  0  0
   -3.8220   -0.4915   -0.0167 C   0  0  0  0  0  0  0  0  0  0  0  0
   -4.0529    0.3897    1.2155 C   0  0  0  0  0  0  0  0  0  0  0  0
   -4.6750   -0.5128    2.2846 C   0  0  0  0  0  0  0  0  0  0  0  0
   -4.9625   -1.8485    1.6091 C   0  0  0  0  0  0  0  0  0  0  0  0
   -4.9239   -1.5461    0.1190 C   0  0  0  0  0  0  0  0  0  0  0  0
   -0.1185   -0.9115   -0.4100 C   0  0  0  0  0  0  0  0  0  0  0  0
    0.0957   -2.2980   -0.1077 N   0  0  0  0  0  4  0  0  0  0  0  0
   -0.6082   -3.1296   -0.7029 O   0  0  0  0  0  0  0  0  0  0  0  0
    0.9746   -2.5734    0.7255 O   0  0  0  0  0  1  0  0  0  0  0  0
    0.9536   -0.0951   -0.7425 C   0  0  0  0  0  0  0  0  0  0  0  0
    2.2581   -0.6007   -0.8675 N   0  0  0  0  0  0  0  0  0  0  0  0
    3.3303    0.3505   -1.1771 C   0  0  0  0  0  0  0  0  0  0  0  0
    3.7822    1.1327    0.0552 C   0  0  0  0  0  0  0  0  0  0  0  0
    4.7269    0.1951    0.8034 C   0  0  0  0  0  0  0  0  0  0  0  0
    5.2390   -0.8086   -0.2271 C   0  0  0  0  0  0  0  0  0  0  0  0
    4.5970   -0.4182   -1.5554 C   0  0  0  0  0  0  0  0  0  0  0  0
    0.7405    1.1990   -1.0420 N   0  0  0  0  0  0  0  0  0  0  0  0
    1.4797    3.5626   -2.0919 H   0  0  0  0  0  0  0  0  0  0  0  0
    0.8308    5.0983   -1.4959 H   0  0  0  0  0  0  0  0  0  0  0  0
    1.3154    3.8505   -0.3348 H   0  0  0  0  0  0  0  0  0  0  0  0
   -2.5081   -2.0345   -0.4737 H   0  0  0  0  0  0  0  0  0  0  0  0
   -3.9504    0.0577   -0.9568 H   0  0  0  0  0  0  0  0  0  0  0  0
   -4.7668    1.1842    0.9644 H   0  0  0  0  0  0  0  0  0  0  0  0
   -3.1469    0.8773    1.5894 H   0  0  0  0  0  0  0  0  0  0  0  0
   -5.6003   -0.0614    2.6633 H   0  0  0  0  0  0  0  0  0  0  0  0
   -4.0030   -0.6457    3.1393 H   0  0  0  0  0  0  0  0  0  0  0  0
   -5.9220   -2.2715    1.9202 H   0  0  0  0  0  0  0  0  0  0  0  0
   -4.1815   -2.5725    1.8688 H   0  0  0  0  0  0  0  0  0  0  0  0
   -5.8853   -1.1209   -0.1947 H   0  0  0  0  0  0  0  0  0  0  0  0
   -4.7417   -2.4471   -0.4759 H   0  0  0  0  0  0  0  0  0  0  0  0
    2.4894   -1.2102   -0.0787 H   0  0  0  0  0  0  0  0  0  0  0  0
    3.0413    1.0086   -2.0048 H   0  0  0  0  0  0  0  0  0  0  0  0
    4.3395    2.0224   -0.2639 H   0  0  0  0  0  0  0  0  0  0  0  0
    2.9611    1.4702    0.6950 H   0  0  0  0  0  0  0  0  0  0  0  0
    5.5462    0.7499    1.2714 H   0  0  0  0  0  0  0  0  0  0  0  0
    4.1911   -0.3314    1.6016 H   0  0  0  0  0  0  0  0  0  0  0  0
    4.9372   -1.8224    0.0605 H   0  0  0  0  0  0  0  0  0  0  0  0
    6.3311   -0.8017   -0.2956 H   0  0  0  0  0  0  0  0  0  0  0  0
    4.4015   -1.2923   -2.1850 H   0  0  0  0  0  0  0  0  0  0  0  0
    5.2789    0.2442   -2.1035 H   0  0  0  0  0  0  0  0  0  0  0  0
  1  2  1  0
  2  3  1  0
  3  4  2  0
  4  5  1  0
  5  6  1  0
  6  7  1  0
  7  8  1  0
  8  9  1  0
  9 10  1  0
 10 11  1  0
  5 12  2  0
 12 13  1  0
 13 14  2  0
 13 15  1  0
 12 16  1  0
 16 17  1  0
 17 18  1  0
 18 19  1  0
 19 20  1  0
 20 21  1  0
 21 22  1  0
 16 23  2  0
 23  3  1  0
 11  7  1  0
 22 18  1  0
  1 24  1  0
  1 25  1  0
  1 26  1  0
  6 27  1  0
  7 28  1  0
  8 29  1  0
  8 30  1  0
  9 31  1  0
  9 32  1  0
 10 33  1  0
 10 34  1  0
 11 35  1  0
 11 36  1  0
 17 37  1  0
 18 38  1  0
 19 39  1  0
 19 40  1  0
 20 41  1  0
 20 42  1  0
 21 43  1  0
 21 44  1  0
 22 45  1  0
 22 46  1  0
M  CHG  2  13   1  15  -1
M  END
$$$$
