
     RDKit          3D

 38 39  0  0  0  0  0  0  0  0999 V2000
    5.8561   -0.5296   -1.8627 C   0  0  0  0  0  0  0  0  0  0  0  0
    4.8359   -0.7968   -0.8119 C   0  0  0  0  0  0  0  0  0  0  0  0
    3.5699   -0.2539   -0.9780 N   0  0  0  0  0  0  0  0  0  0  0  0
    2.7904   -0.5567    0.0417 C   0  0  0  0  0  0  0  0  0  0  0  0
    1.3814   -0.1289    0.1490 C   0  0  0  0  0  0  0  0  0  0  0  0
    0.7045    0.2662   -1.0168 C   0  0  0  0  0  0  0  0  0  0  0  0
   -0.6291    0.6876   -0.9783 C   0  0  0  0  0  0  0  0  0  0  0  0
   -1.3173    0.7189    0.2352 C   0  0  0  0  0  0  0  0  0  0  0  0
   -2.6095    1.1634    0.3289 O   0  0  0  0  0  0  0  0  0  0  0  0
   -3.5016    0.5843   -0.6343 C   0  0  0  0  0  0  0  0  0  0  0  0
   -4.9468    0.8214   -0.1655 C   0  0  0  0  0  0  0  0  0  0  0  0
   -5.2827    2.3155   -0.1343 C   0  0  0  0  0  0  0  0  0  0  0  0
   -5.9288    0.0738   -1.0665 C   0  0  0  0  0  0  0  0  0  0  0  0
   -0.6536    0.3616    1.4150 C   0  0  0  0  0  0  0  0  0  0  0  0
   -1.3214    0.4137    2.6848 C   0  0  0  0  0  0  0  0  0  0  0  0
   -1.8260    0.4347    3.7307 N   0  0  0  0  0  0  0  0  0  0  0  0
    0.6835   -0.0688    1.3667 C   0  0  0  0  0  0  0  0  0  0  0  0
    3.5400   -1.5408    1.2362 S   0  0  0  0  0  0  0  0  0  0  0  0
    5.0025   -1.5431    0.3425 C   0  0  0  0  0  0  0  0  0  0  0  0
    6.1857   -2.2344    0.7836 C   0  0  0  0  0  0  0  0  0  0  0  0
    7.2709   -2.2768    0.2215 O   0  0  0  0  0  0  0  0  0  0  0  0
    6.0182   -2.8949    1.9530 O   0  0  0  0  0  0  0  0  0  0  0  0
    6.2281   -1.4675   -2.2884 H   0  0  0  0  0  0  0  0  0  0  0  0
    6.7009    0.0273   -1.4433 H   0  0  0  0  0  0  0  0  0  0  0  0
    5.4306    0.0664   -2.6767 H   0  0  0  0  0  0  0  0  0  0  0  0
    1.2253    0.2557   -1.9756 H   0  0  0  0  0  0  0  0  0  0  0  0
   -1.0987    1.0140   -1.9020 H   0  0  0  0  0  0  0  0  0  0  0  0
   -3.3211   -0.4986   -0.7092 H   0  0  0  0  0  0  0  0  0  0  0  0
   -3.3482    1.0474   -1.6186 H   0  0  0  0  0  0  0  0  0  0  0  0
   -5.0463    0.4373    0.8595 H   0  0  0  0  0  0  0  0  0  0  0  0
   -4.6088    2.8603    0.5364 H   0  0  0  0  0  0  0  0  0  0  0  0
   -6.3068    2.4769    0.2238 H   0  0  0  0  0  0  0  0  0  0  0  0
   -5.2024    2.7615   -1.1331 H   0  0  0  0  0  0  0  0  0  0  0  0
   -5.8697    0.4269   -2.1025 H   0  0  0  0  0  0  0  0  0  0  0  0
   -6.9589    0.2121   -0.7187 H   0  0  0  0  0  0  0  0  0  0  0  0
   -5.7187   -1.0012   -1.0621 H   0  0  0  0  0  0  0  0  0  0  0  0
    1.1740   -0.3423    2.3003 H   0  0  0  0  0  0  0  0  0  0  0  0
    6.8986   -3.2926    2.1169 H   0  0  0  0  0  0  0  0  0  0  0  0
  1  2  1  0
  2  3  1  0
  3  4  2  0
  4  5  1  0
  5  6  2  0
  6  7  1  0
  7  8  2  0
  8  9  1  0
  9 10  1  0
 10 11  1  0
 11 12  1  0
 11 13  1  0
  8 14  1  0
 14 15  1  0
 15 16  3  0
 14 17  2  0
  4 18  1  0
 18 19  1  0
 19 20  1  0
 20 21  2  0
 20 22  1  0
 19  2  2  0
 17  5  1  0
  1 23  1  0
  1 24  1  0
  1 25  1  0
  6 26  1  0
  7 27  1  0
 10 28  1  0
 10 29  1  0
 11 30  1  0
 12 31  1  0
 12 32  1  0
 12 33  1  0
 13 34  1  0
 13 35  1  0
 13 36  1  0
 17 37  1  0
 22 38  1  0
M  END
$$$$
