
     RDKit          3D

 29 31  0  0  0  0  0  0  0  0999 V2000
   -4.1068   -0.0856   -1.5363 C   0  0  0  0  0  0  0  0  0  0  0  0
   -3.5442   -0.3439   -0.1886 C   0  0  0  0  0  0  0  0  0  0  0  0
   -4.2418   -0.6486    0.9989 C   0  0  0  0  0  0  0  0  0  0  0  0
   -3.2667   -0.7954    1.9533 C   0  0  0  0  0  0  0  0  0  0  0  0
   -2.0532   -0.6154    1.3228 N   0  0  0  0  0  0  0  0  0  0  0  0
   -0.7774   -0.6396    1.9134 C   0  0  0  0  0  0  0  0  0  0  0  0
   -0.6601   -0.6911    3.1331 O   0  0  0  0  0  0  0  0  0  0  0  0
    0.3527   -0.5381    0.9716 C   0  0  0  0  0  0  0  0  0  0  0  0
    1.2138    0.4741    1.1519 C   0  0  0  0  0  0  0  0  0  0  0  0
    2.3269    0.6393    0.2310 C   0  0  0  0  0  0  0  0  0  0  0  0
    3.2525    1.6764    0.3646 C   0  0  0  0  0  0  0  0  0  0  0  0
    4.2911    1.7997   -0.5626 C   0  0  0  0  0  0  0  0  0  0  0  0
    5.4306    3.0788   -0.3967 Cl  0  0  0  0  0  0  0  0  0  0  0  0
    4.4144    0.8993   -1.6230 C   0  0  0  0  0  0  0  0  0  0  0  0
    3.4927   -0.1378   -1.7604 C   0  0  0  0  0  0  0  0  0  0  0  0
    2.4615   -0.2536   -0.8308 C   0  0  0  0  0  0  0  0  0  0  0  0
    1.5613   -1.3233   -0.9949 O   0  0  0  0  0  0  0  0  0  0  0  0
    0.5343   -1.5522   -0.0837 C   0  0  0  0  0  0  0  0  0  0  0  0
   -0.1471   -2.5706   -0.1298 O   0  0  0  0  0  0  0  0  0  0  0  0
   -2.2217   -0.2881    0.0089 N   0  0  0  0  0  0  0  0  0  0  0  0
   -5.1953   -0.2012   -1.5385 H   0  0  0  0  0  0  0  0  0  0  0  0
   -3.6904   -0.7863   -2.2671 H   0  0  0  0  0  0  0  0  0  0  0  0
   -3.8731    0.9337   -1.8602 H   0  0  0  0  0  0  0  0  0  0  0  0
   -5.3095   -0.7453    1.1395 H   0  0  0  0  0  0  0  0  0  0  0  0
   -3.3084   -1.0253    3.0091 H   0  0  0  0  0  0  0  0  0  0  0  0
    1.0884    1.1966    1.9532 H   0  0  0  0  0  0  0  0  0  0  0  0
    3.1721    2.3899    1.1809 H   0  0  0  0  0  0  0  0  0  0  0  0
    5.2243    1.0008   -2.3410 H   0  0  0  0  0  0  0  0  0  0  0  0
    3.5789   -0.8470   -2.5790 H   0  0  0  0  0  0  0  0  0  0  0  0
  1  2  1  0
  2  3  1  0
  3  4  2  0
  4  5  1  0
  5  6  1  0
  6  7  2  0
  6  8  1  0
  8  9  2  0
  9 10  1  0
 10 11  2  0
 11 12  1  0
 12 13  1  0
 12 14  2  0
 14 15  1  0
 15 16  2  0
 16 17  1  0
 17 18  1  0
 18 19  2  0
  5 20  1  0
 20  2  2  0
 18  8  1  0
 16 10  1  0
  1 21  1  0
  1 22  1  0
  1 23  1  0
  3 24  1  0
  4 25  1  0
  9 26  1  0
 11 27  1  0
 14 28  1  0
 15 29  1  0
M  END
$$$$
