
     RDKit          3D

 37 40  0  0  0  0  0  0  0  0999 V2000
   -3.0470   -0.8007   -1.9666 O   0  0  0  0  0  0  0  0  0  0  0  0
   -2.7880   -0.6528   -0.7741 C   0  0  0  0  0  0  0  0  0  0  0  0
   -1.3915   -0.4199   -0.3323 C   0  0  0  0  0  0  0  0  0  0  0  0
   -0.2445   -0.3916   -1.2727 C   0  0  0  0  0  0  0  0  0  0  0  0
    1.0007   -0.1939   -0.9556 N   0  0  0  0  0  0  0  0  0  0  0  0
    1.2631    0.0097    0.3755 C   0  0  0  0  0  0  0  0  0  0  0  0
    2.4384    0.2584    1.0652 C   0  0  0  0  0  0  0  0  0  0  0  0
    3.7668    0.3714    0.4816 C   0  0  0  0  0  0  0  0  0  0  0  0
    4.1556   -0.4178   -0.6104 C   0  0  0  0  0  0  0  0  0  0  0  0
    5.4413   -0.3080   -1.1504 C   0  0  0  0  0  0  0  0  0  0  0  0
    6.3490    0.5916   -0.5990 C   0  0  0  0  0  0  0  0  0  0  0  0
    7.9307    0.7275   -1.2612 Cl  0  0  0  0  0  0  0  0  0  0  0  0
    5.9826    1.3819    0.4873 C   0  0  0  0  0  0  0  0  0  0  0  0
    4.6965    1.2708    1.0264 C   0  0  0  0  0  0  0  0  0  0  0  0
    2.0340    0.3901    2.4097 C   0  0  0  0  0  0  0  0  0  0  0  0
    0.7227    0.2387    2.5858 N   0  0  0  0  0  0  0  0  0  0  0  0
    0.2368    0.0066    1.3359 N   0  0  0  0  0  0  0  0  0  0  0  0
   -1.0997   -0.2135    0.9645 C   0  0  0  0  0  0  0  0  0  0  0  0
   -2.1720   -0.2215    1.9416 C   0  0  0  0  0  0  0  0  0  0  0  0
   -3.4352   -0.4446    1.5600 C   0  0  0  0  0  0  0  0  0  0  0  0
   -3.7564   -0.6693    0.2314 N   0  0  0  0  0  0  0  0  0  0  0  0
   -5.1585   -0.9209   -0.1362 C   0  0  0  0  0  0  0  0  0  0  0  0
   -5.8023    0.2658   -0.8655 C   0  0  0  0  0  0  0  0  0  0  0  0
   -5.5374    0.2498   -2.2653 O   0  0  0  0  0  0  0  0  0  0  0  0
   -0.4929   -0.5572   -2.3348 H   0  0  0  0  0  0  0  0  0  0  0  0
    3.4636   -1.1310   -1.0535 H   0  0  0  0  0  0  0  0  0  0  0  0
    5.7218   -0.9266   -1.9985 H   0  0  0  0  0  0  0  0  0  0  0  0
    6.6884    2.0875    0.9173 H   0  0  0  0  0  0  0  0  0  0  0  0
    4.4296    1.9076    1.8667 H   0  0  0  0  0  0  0  0  0  0  0  0
    2.6517    0.5868    3.2771 H   0  0  0  0  0  0  0  0  0  0  0  0
   -1.9283   -0.0468    2.9869 H   0  0  0  0  0  0  0  0  0  0  0  0
   -4.2437   -0.4567    2.2863 H   0  0  0  0  0  0  0  0  0  0  0  0
   -5.1807   -1.8117   -0.7754 H   0  0  0  0  0  0  0  0  0  0  0  0
   -5.7285   -1.1433    0.7731 H   0  0  0  0  0  0  0  0  0  0  0  0
   -5.4629    1.2229   -0.4569 H   0  0  0  0  0  0  0  0  0  0  0  0
   -6.8899    0.2143   -0.7551 H   0  0  0  0  0  0  0  0  0  0  0  0
   -4.6140   -0.0537   -2.3989 H   0  0  0  0  0  0  0  0  0  0  0  0
  1  2  2  0
  2  3  1  0
  3  4  1  0
  4  5  2  0
  5  6  1  0
  6  7  2  0
  7  8  1  0
  8  9  2  0
  9 10  1  0
 10 11  2  0
 11 12  1  0
 11 13  1  0
 13 14  2  0
  7 15  1  0
 15 16  2  0
 16 17  1  0
 17 18  1  0
 18 19  1  0
 19 20  2  0
 20 21  1  0
 21 22  1  0
 22 23  1  0
 23 24  1  0
 21  2  1  0
 18  3  2  0
 17  6  1  0
 14  8  1  0
  4 25  1  0
  9 26  1  0
 10 27  1  0
 13 28  1  0
 14 29  1  0
 15 30  1  0
 19 31  1  0
 20 32  1  0
 22 33  1  0
 22 34  1  0
 23 35  1  0
 23 36  1  0
 24 37  1  0
M  END
$$$$
