
     RDKit          3D

 31 33  0  0  0  0  0  0  0  0999 V2000
   -3.4391    0.1392   -1.6936 C   0  0  0  0  0  0  0  0  0  0  0  0
   -2.7529    0.0778   -0.4298 N   0  0  0  0  0  0  0  0  0  0  0  0
   -2.2943   -1.0696    0.1434 C   0  0  0  0  0  0  0  0  0  0  0  0
   -2.4128   -2.2099   -0.2719 O   0  0  0  0  0  0  0  0  0  0  0  0
   -1.6556   -0.7458    1.3190 N   0  0  0  0  0  0  0  0  0  0  0  0
   -1.6348    0.6773    1.5475 C   0  0  0  0  0  0  0  0  0  0  0  0
   -0.2429    1.2934    1.6744 C   0  0  0  0  0  0  0  0  0  0  0  0
    0.6714    1.0298    0.5135 C   0  0  0  0  0  0  0  0  0  0  0  0
    0.7725    1.7978   -0.6310 C   0  0  0  0  0  0  0  0  0  0  0  0
    1.7033    1.2269   -1.4540 N   0  0  0  0  0  0  0  0  0  0  0  0
    2.2264    0.0974   -0.8688 C   0  0  0  0  0  0  0  0  0  0  0  0
    3.1951   -0.8005   -1.3318 C   0  0  0  0  0  0  0  0  0  0  0  0
    3.9435   -0.5906   -2.8644 Cl  0  0  0  0  0  0  0  0  0  0  0  0
    3.5442   -1.8780   -0.5157 C   0  0  0  0  0  0  0  0  0  0  0  0
    2.9416   -2.0488    0.7284 C   0  0  0  0  0  0  0  0  0  0  0  0
    1.9737   -1.1438    1.1823 C   0  0  0  0  0  0  0  0  0  0  0  0
    1.6030   -0.0495    0.3716 C   0  0  0  0  0  0  0  0  0  0  0  0
   -2.3912    1.1681    0.3132 C   0  0  0  0  0  0  0  0  0  0  0  0
   -2.6317    2.3402    0.0550 O   0  0  0  0  0  0  0  0  0  0  0  0
   -3.9858   -0.7900   -1.8753 H   0  0  0  0  0  0  0  0  0  0  0  0
   -4.1253    0.9904   -1.7075 H   0  0  0  0  0  0  0  0  0  0  0  0
   -2.6926    0.2740   -2.4820 H   0  0  0  0  0  0  0  0  0  0  0  0
   -1.2333   -1.4607    1.8953 H   0  0  0  0  0  0  0  0  0  0  0  0
   -2.2390    0.8812    2.4376 H   0  0  0  0  0  0  0  0  0  0  0  0
   -0.3389    2.3792    1.8055 H   0  0  0  0  0  0  0  0  0  0  0  0
    0.2317    0.9151    2.5887 H   0  0  0  0  0  0  0  0  0  0  0  0
    0.2536    2.7003   -0.9307 H   0  0  0  0  0  0  0  0  0  0  0  0
    1.9789    1.5739   -2.3635 H   0  0  0  0  0  0  0  0  0  0  0  0
    4.2924   -2.5924   -0.8505 H   0  0  0  0  0  0  0  0  0  0  0  0
    3.2237   -2.8928    1.3534 H   0  0  0  0  0  0  0  0  0  0  0  0
    1.5154   -1.2899    2.1558 H   0  0  0  0  0  0  0  0  0  0  0  0
  1  2  1  0
  2  3  1  0
  3  4  2  0
  3  5  1  0
  5  6  1  0
  6  7  1  0
  7  8  1  0
  8  9  2  0
  9 10  1  0
 10 11  1  0
 11 12  2  0
 12 13  1  0
 12 14  1  0
 14 15  2  0
 15 16  1  0
 16 17  2  0
  6 18  1  0
 18 19  2  0
 18  2  1  0
 17  8  1  0
 17 11  1  0
  1 20  1  0
  1 21  1  0
  1 22  1  0
  5 23  1  0
  6 24  1  0
  7 25  1  0
  7 26  1  0
  9 27  1  0
 10 28  1  0
 14 29  1  0
 15 30  1  0
 16 31  1  0
M  END
$$$$
