
     RDKit          3D

 41 44  0  0  0  0  0  0  0  0999 V2000
   -6.1501   -0.6595   -0.4191 C   0  0  0  0  0  0  0  0  0  0  0  0
   -5.0017    0.1415   -0.6590 O   0  0  0  0  0  0  0  0  0  0  0  0
   -3.7911   -0.3268   -0.2155 C   0  0  0  0  0  0  0  0  0  0  0  0
   -3.6057   -1.5361    0.4577 C   0  0  0  0  0  0  0  0  0  0  0  0
   -2.3566   -1.9677    0.8859 C   0  0  0  0  0  0  0  0  0  0  0  0
   -2.3271   -3.1403    1.5245 N   0  0  0  0  0  0  0  0  0  0  0  0
   -1.1462   -3.5785    1.9548 C   0  0  0  0  0  0  0  0  0  0  0  0
    0.0190   -2.9537    1.7952 N   0  0  0  0  0  0  0  0  0  0  0  0
   -0.0114   -1.7582    1.1371 C   0  0  0  0  0  0  0  0  0  0  0  0
    1.2705   -1.1298    0.9544 N   0  0  0  0  0  0  0  0  0  0  0  0
    1.4695   -0.0292    0.1948 N   0  0  0  0  0  0  0  0  0  0  0  0
    2.7941    0.1660    0.2557 C   0  0  0  0  0  0  0  0  0  0  0  0
    3.4961    1.2662   -0.4229 C   0  0  0  0  0  0  0  0  0  0  0  0
    4.8787    1.3958   -0.3034 C   0  0  0  0  0  0  0  0  0  0  0  0
    5.5163    2.4479   -0.9571 C   0  0  0  0  0  0  0  0  0  0  0  0
    4.7607    3.3387   -1.7092 C   0  0  0  0  0  0  0  0  0  0  0  0
    3.3918    3.1418   -1.7778 C   0  0  0  0  0  0  0  0  0  0  0  0
    2.7441    2.1332   -1.1562 N   0  0  0  0  0  0  0  0  0  0  0  0
    3.4586   -0.7656    1.0193 N   0  0  0  0  0  0  0  0  0  0  0  0
    2.5075   -1.5488    1.4618 C   0  0  0  0  0  0  0  0  0  0  0  0
    2.6882   -2.6002    2.2884 N   0  0  0  0  0  0  0  0  0  0  0  0
   -1.2175   -1.1828    0.6442 C   0  0  0  0  0  0  0  0  0  0  0  0
   -1.4208    0.0607   -0.0346 C   0  0  0  0  0  0  0  0  0  0  0  0
   -2.6815    0.4847   -0.4673 C   0  0  0  0  0  0  0  0  0  0  0  0
   -2.9229    1.6635   -1.1255 O   0  0  0  0  0  0  0  0  0  0  0  0
   -1.8019    2.4604   -1.4884 C   0  0  0  0  0  0  0  0  0  0  0  0
   -6.3256   -0.7866    0.6542 H   0  0  0  0  0  0  0  0  0  0  0  0
   -6.0697   -1.6270   -0.9254 H   0  0  0  0  0  0  0  0  0  0  0  0
   -7.0157   -0.1369   -0.8374 H   0  0  0  0  0  0  0  0  0  0  0  0
   -4.4487   -2.1866    0.6718 H   0  0  0  0  0  0  0  0  0  0  0  0
   -1.1352   -4.5284    2.4783 H   0  0  0  0  0  0  0  0  0  0  0  0
    5.4538    0.6909    0.2895 H   0  0  0  0  0  0  0  0  0  0  0  0
    6.5929    2.5688   -0.8779 H   0  0  0  0  0  0  0  0  0  0  0  0
    5.2270    4.1678   -2.2299 H   0  0  0  0  0  0  0  0  0  0  0  0
    2.7591    3.8116   -2.3533 H   0  0  0  0  0  0  0  0  0  0  0  0
    1.9350   -3.2867    2.3499 H   0  0  0  0  0  0  0  0  0  0  0  0
    3.6207   -2.9963    2.3334 H   0  0  0  0  0  0  0  0  0  0  0  0
   -0.5766    0.7124   -0.2181 H   0  0  0  0  0  0  0  0  0  0  0  0
   -2.1741    3.3217   -2.0517 H   0  0  0  0  0  0  0  0  0  0  0  0
   -1.2874    2.8427   -0.6008 H   0  0  0  0  0  0  0  0  0  0  0  0
   -1.1163    1.9091   -2.1405 H   0  0  0  0  0  0  0  0  0  0  0  0
  1  2  1  0
  2  3  1  0
  3  4  2  0
  4  5  1  0
  5  6  2  0
  6  7  1  0
  7  8  2  0
  8  9  1  0
  9 10  1  0
 10 11  1  0
 11 12  2  0
 12 13  1  0
 13 14  2  0
 14 15  1  0
 15 16  2  0
 16 17  1  0
 17 18  2  0
 12 19  1  0
 19 20  2  0
 20 21  1  0
  9 22  2  0
 22 23  1  0
 23 24  2  0
 24 25  1  0
 25 26  1  0
 24  3  1  0
 22  5  1  0
 20 10  1  0
 18 13  1  0
  1 27  1  0
  1 28  1  0
  1 29  1  0
  4 30  1  0
  7 31  1  0
 14 32  1  0
 15 33  1  0
 16 34  1  0
 17 35  1  0
 21 36  1  0
 21 37  1  0
 23 38  1  0
 26 39  1  0
 26 40  1  0
 26 41  1  0
M  END
$$$$
