
     RDKit          3D

 58 61  0  0  0  0  0  0  0  0999 V2000
   -4.2862   -0.7012   -3.6730 O   0  0  0  0  0  0  0  0  0  0  0  0
   -5.4363   -0.7367   -2.8284 C   0  0  0  0  0  0  0  0  0  0  0  0
   -5.0060   -1.0118   -1.3841 C   0  0  1  0  0  0  0  0  0  0  0  0
   -4.0854    0.0295   -1.0179 O   0  0  0  0  0  0  0  0  0  0  0  0
   -3.5142   -0.1515    0.2936 C   0  0  1  0  0  0  0  0  0  0  0  0
   -2.4328    0.9139    0.4179 C   0  0  0  0  0  0  0  0  0  0  0  0
   -2.4301    1.9057    1.4041 C   0  0  0  0  0  0  0  0  0  0  0  0
   -1.4060    2.8552    1.4583 C   0  0  0  0  0  0  0  0  0  0  0  0
   -0.3617    2.8304    0.5313 C   0  0  0  0  0  0  0  0  0  0  0  0
    0.8457    4.0583    0.6641 Cl  0  0  0  0  0  0  0  0  0  0  0  0
   -0.3239    1.8474   -0.4662 C   0  0  0  0  0  0  0  0  0  0  0  0
    0.7923    1.7482   -1.4843 C   0  0  0  0  0  0  0  0  0  0  0  0
    2.0370    1.0548   -0.9750 C   0  0  0  0  0  0  0  0  0  0  0  0
    2.0304   -0.3154   -0.6869 C   0  0  0  0  0  0  0  0  0  0  0  0
    3.1838   -0.9447   -0.2116 C   0  0  0  0  0  0  0  0  0  0  0  0
    4.3616   -0.2225   -0.0115 C   0  0  0  0  0  0  0  0  0  0  0  0
    5.4086   -0.9631    0.4608 O   0  0  0  0  0  0  0  0  0  0  0  0
    6.5932   -0.2733    0.8759 C   0  0  1  0  0  0  0  0  0  0  0  0
    7.3767   -1.2137    1.7683 C   0  0  0  0  0  0  0  0  0  0  0  0
    8.1038   -2.0757    0.7600 C   0  0  0  0  0  0  0  0  0  0  0  0
    8.4376   -1.2162   -0.3357 O   0  0  0  0  0  0  0  0  0  0  0  0
    7.5599   -0.0744   -0.2886 C   0  0  0  0  0  0  0  0  0  0  0  0
    4.3807    1.1384   -0.3106 C   0  0  0  0  0  0  0  0  0  0  0  0
    3.2268    1.7710   -0.7888 C   0  0  0  0  0  0  0  0  0  0  0  0
   -1.3668    0.8998   -0.5053 C   0  0  0  0  0  0  0  0  0  0  0  0
   -4.6362   -0.1444    1.3561 C   0  0  2  0  0  0  0  0  0  0  0  0
   -4.1379   -0.4458    2.6665 O   0  0  0  0  0  0  0  0  0  0  0  0
   -5.6896   -1.1992    1.0018 C   0  0  1  0  0  0  0  0  0  0  0  0
   -6.7816   -1.0992    1.9317 O   0  0  0  0  0  0  0  0  0  0  0  0
   -6.2034   -1.0232   -0.4280 C   0  0  2  0  0  0  0  0  0  0  0  0
   -7.1134   -2.0935   -0.6987 O   0  0  0  0  0  0  0  0  0  0  0  0
   -3.6610   -0.0883   -3.2381 H   0  0  0  0  0  0  0  0  0  0  0  0
   -5.9340    0.2351   -2.9144 H   0  0  0  0  0  0  0  0  0  0  0  0
   -6.1087   -1.5129   -3.2042 H   0  0  0  0  0  0  0  0  0  0  0  0
   -4.4725   -1.9713   -1.3645 H   0  0  0  0  0  0  0  0  0  0  0  0
   -2.9986   -1.1217    0.3306 H   0  0  0  0  0  0  0  0  0  0  0  0
   -3.2126    1.9585    2.1566 H   0  0  0  0  0  0  0  0  0  0  0  0
   -1.4293    3.6148    2.2362 H   0  0  0  0  0  0  0  0  0  0  0  0
    1.0334    2.7489   -1.8648 H   0  0  0  0  0  0  0  0  0  0  0  0
    0.4391    1.2051   -2.3719 H   0  0  0  0  0  0  0  0  0  0  0  0
    1.1284   -0.9060   -0.8255 H   0  0  0  0  0  0  0  0  0  0  0  0
    3.1611   -2.0088    0.0107 H   0  0  0  0  0  0  0  0  0  0  0  0
    6.3459    0.6495    1.4118 H   0  0  0  0  0  0  0  0  0  0  0  0
    8.1057   -0.6442    2.3570 H   0  0  0  0  0  0  0  0  0  0  0  0
    6.7593   -1.8109    2.4448 H   0  0  0  0  0  0  0  0  0  0  0  0
    7.4626   -2.8786    0.3797 H   0  0  0  0  0  0  0  0  0  0  0  0
    9.0146   -2.5216    1.1691 H   0  0  0  0  0  0  0  0  0  0  0  0
    7.0642    0.0189   -1.2586 H   0  0  0  0  0  0  0  0  0  0  0  0
    8.1921    0.8041   -0.1242 H   0  0  0  0  0  0  0  0  0  0  0  0
    5.2727    1.7429   -0.1909 H   0  0  0  0  0  0  0  0  0  0  0  0
    3.2659    2.8358   -1.0109 H   0  0  0  0  0  0  0  0  0  0  0  0
   -1.3538    0.1281   -1.2753 H   0  0  0  0  0  0  0  0  0  0  0  0
   -5.1211    0.8385    1.4064 H   0  0  0  0  0  0  0  0  0  0  0  0
   -4.9339   -0.5967    3.2156 H   0  0  0  0  0  0  0  0  0  0  0  0
   -5.2778   -2.2069    1.1415 H   0  0  0  0  0  0  0  0  0  0  0  0
   -7.4582   -1.7212    1.5957 H   0  0  0  0  0  0  0  0  0  0  0  0
   -6.7678   -0.0842   -0.4890 H   0  0  0  0  0  0  0  0  0  0  0  0
   -7.6423   -1.8538   -1.4809 H   0  0  0  0  0  0  0  0  0  0  0  0
  1  2  1  0
  2  3  1  0
  3  4  1  0
  4  5  1  0
  5  6  1  0
  6  7  2  0
  7  8  1  0
  8  9  2  0
  9 10  1  0
  9 11  1  0
 11 12  1  0
 12 13  1  0
 13 14  2  0
 14 15  1  0
 15 16  2  0
 16 17  1  0
 17 18  1  0
 18 19  1  0
 19 20  1  0
 20 21  1  0
 21 22  1  0
 16 23  1  0
 23 24  2  0
 11 25  2  0
  5 26  1  0
 26 27  1  0
 26 28  1  0
 28 29  1  0
 28 30  1  0
 30 31  1  0
 30  3  1  0
 25  6  1  0
 24 13  1  0
 22 18  1  0
  1 32  1  0
  2 33  1  0
  2 34  1  0
  3 35  1  6
  5 36  1  6
  7 37  1  0
  8 38  1  0
 12 39  1  0
 12 40  1  0
 14 41  1  0
 15 42  1  0
 18 43  1  1
 19 44  1  0
 19 45  1  0
 20 46  1  0
 20 47  1  0
 22 48  1  0
 22 49  1  0
 23 50  1  0
 24 51  1  0
 25 52  1  0
 26 53  1  1
 27 54  1  0
 28 55  1  6
 29 56  1  0
 30 57  1  1
 31 58  1  0
M  END
$$$$
