
     RDKit          3D

 41 43  0  0  0  0  0  0  0  0999 V2000
    2.1469    2.9509   -0.1242 C   0  0  0  0  0  0  0  0  0  0  0  0
    2.1739    2.0078    1.0702 C   0  0  0  0  0  0  0  0  0  0  0  0
    2.3824    0.6129    0.6415 N   0  0  0  0  0  0  0  0  0  0  0  0
    3.6646    0.0882    0.5418 C   0  0  0  0  0  0  0  0  0  0  0  0
    3.9953   -1.1540    0.1595 C   0  0  0  0  0  0  0  0  0  0  0  0
    5.4223   -1.4926    0.1008 C   0  0  0  0  0  0  0  0  0  0  0  0
    6.3108   -0.9361    0.7266 O   0  0  0  0  0  0  0  0  0  0  0  0
    5.7095   -2.4601   -0.7816 O   0  0  0  0  0  0  0  0  0  0  0  0
    2.8854   -2.0765   -0.1622 C   0  0  0  0  0  0  0  0  0  0  0  0
    3.0577   -3.2680   -0.3959 O   0  0  0  0  0  0  0  0  0  0  0  0
    1.5085   -1.5173   -0.1607 C   0  0  0  0  0  0  0  0  0  0  0  0
    0.4545   -2.3418   -0.5651 C   0  0  0  0  0  0  0  0  0  0  0  0
   -0.8451   -1.8504   -0.5692 C   0  0  0  0  0  0  0  0  0  0  0  0
   -1.8151   -2.6926   -0.9567 F   0  0  0  0  0  0  0  0  0  0  0  0
   -1.1411   -0.5391   -0.1641 C   0  0  0  0  0  0  0  0  0  0  0  0
   -2.4294    0.0329   -0.1531 N   0  0  0  0  0  0  0  0  0  0  0  0
   -2.9007    0.4207    1.1985 C   0  0  0  0  0  0  0  0  0  0  0  0
   -4.2001    1.2561    1.1016 C   0  0  0  0  0  0  0  0  0  0  0  0
   -5.2776    0.6036    0.3302 N   0  0  0  0  0  0  0  0  0  0  0  0
   -4.7503    0.2561   -1.0073 C   0  0  0  0  0  0  0  0  0  0  0  0
   -3.4838   -0.6300   -0.9522 C   0  0  0  0  0  0  0  0  0  0  0  0
   -0.0477    0.2686    0.2263 C   0  0  0  0  0  0  0  0  0  0  0  0
    1.2857   -0.1868    0.2458 C   0  0  0  0  0  0  0  0  0  0  0  0
    2.0153    3.9837    0.2132 H   0  0  0  0  0  0  0  0  0  0  0  0
    1.3296    2.7120   -0.8113 H   0  0  0  0  0  0  0  0  0  0  0  0
    3.0833    2.8953   -0.6894 H   0  0  0  0  0  0  0  0  0  0  0  0
    1.2703    2.1170    1.6800 H   0  0  0  0  0  0  0  0  0  0  0  0
    2.9938    2.3130    1.7339 H   0  0  0  0  0  0  0  0  0  0  0  0
    4.4431    0.8042    0.8031 H   0  0  0  0  0  0  0  0  0  0  0  0
    6.6757   -2.5936   -0.7083 H   0  0  0  0  0  0  0  0  0  0  0  0
    0.6333   -3.3671   -0.8776 H   0  0  0  0  0  0  0  0  0  0  0  0
   -2.1559    1.0229    1.7308 H   0  0  0  0  0  0  0  0  0  0  0  0
   -3.0877   -0.4817    1.7955 H   0  0  0  0  0  0  0  0  0  0  0  0
   -3.9773    2.2285    0.6448 H   0  0  0  0  0  0  0  0  0  0  0  0
   -4.5705    1.4615    2.1120 H   0  0  0  0  0  0  0  0  0  0  0  0
   -5.5251   -0.2654    0.8042 H   0  0  0  0  0  0  0  0  0  0  0  0
   -4.5349    1.1801   -1.5582 H   0  0  0  0  0  0  0  0  0  0  0  0
   -5.5337   -0.2694   -1.5643 H   0  0  0  0  0  0  0  0  0  0  0  0
   -3.7556   -1.5944   -0.5052 H   0  0  0  0  0  0  0  0  0  0  0  0
   -3.1364   -0.7982   -1.9785 H   0  0  0  0  0  0  0  0  0  0  0  0
   -0.2740    1.2988    0.4836 H   0  0  0  0  0  0  0  0  0  0  0  0
  1  2  1  0
  2  3  1  0
  3  4  1  0
  4  5  2  0
  5  6  1  0
  6  7  2  0
  6  8  1  0
  5  9  1  0
  9 10  2  0
  9 11  1  0
 11 12  2  0
 12 13  1  0
 13 14  1  0
 13 15  2  0
 15 16  1  0
 16 17  1  0
 17 18  1  0
 18 19  1  0
 19 20  1  0
 20 21  1  0
 15 22  1  0
 22 23  2  0
 23  3  1  0
 23 11  1  0
 21 16  1  0
  1 24  1  0
  1 25  1  0
  1 26  1  0
  2 27  1  0
  2 28  1  0
  4 29  1  0
  8 30  1  0
 12 31  1  0
 17 32  1  0
 17 33  1  0
 18 34  1  0
 18 35  1  0
 19 36  1  0
 20 37  1  0
 20 38  1  0
 21 39  1  0
 21 40  1  0
 22 41  1  0
M  END
$$$$
