
     RDKit          3D

 30 31  0  0  0  0  0  0  0  0999 V2000
    5.6380    0.2529   -0.2327 C   0  0  0  0  0  0  0  0  0  0  0  0
    4.2086    0.1267   -0.2999 N   0  0  0  0  0  0  0  0  0  0  0  0
    3.4797   -0.5716    0.6388 C   0  0  0  0  0  0  0  0  0  0  0  0
    3.9715   -1.2311    1.5470 O   0  0  0  0  0  0  0  0  0  0  0  0
    1.9952   -0.4555    0.4711 C   0  0  0  0  0  0  0  0  0  0  0  0
    1.1453   -1.1317    1.3300 C   0  0  0  0  0  0  0  0  0  0  0  0
   -0.2234   -0.9887    1.1330 C   0  0  0  0  0  0  0  0  0  0  0  0
   -0.7055   -0.1764    0.0934 C   0  0  0  0  0  0  0  0  0  0  0  0
   -2.1601   -0.0475   -0.1121 C   0  0  0  0  0  0  0  0  0  0  0  0
   -2.8450   -1.1041   -0.7434 C   0  0  0  0  0  0  0  0  0  0  0  0
   -4.2205   -1.0372   -0.9587 C   0  0  0  0  0  0  0  0  0  0  0  0
   -5.0254   -2.3428   -1.7355 Cl  0  0  0  0  0  0  0  0  0  0  0  0
   -4.9449    0.0767   -0.5524 C   0  0  0  0  0  0  0  0  0  0  0  0
   -4.2879    1.1355    0.0782 C   0  0  0  0  0  0  0  0  0  0  0  0
   -5.2540    2.4897    0.5540 Cl  0  0  0  0  0  0  0  0  0  0  0  0
   -2.9007    1.0820    0.3032 C   0  0  0  0  0  0  0  0  0  0  0  0
   -2.0901    2.4005    1.0938 Cl  0  0  0  0  0  0  0  0  0  0  0  0
    0.2441    0.4684   -0.7258 C   0  0  0  0  0  0  0  0  0  0  0  0
   -0.1458    1.3144   -1.7728 N   0  0  0  0  0  0  0  0  0  0  0  0
    1.5704    0.3394   -0.5482 N   0  0  0  0  0  0  0  0  0  0  0  0
    6.0165    0.4602   -1.2362 H   0  0  0  0  0  0  0  0  0  0  0  0
    5.8822    1.0851    0.4324 H   0  0  0  0  0  0  0  0  0  0  0  0
    6.0869   -0.6655    0.1545 H   0  0  0  0  0  0  0  0  0  0  0  0
    3.6665    0.7117   -0.9339 H   0  0  0  0  0  0  0  0  0  0  0  0
    1.5379   -1.7508    2.1304 H   0  0  0  0  0  0  0  0  0  0  0  0
   -0.9117   -1.5078    1.7969 H   0  0  0  0  0  0  0  0  0  0  0  0
   -2.2964   -1.9876   -1.0701 H   0  0  0  0  0  0  0  0  0  0  0  0
   -6.0179    0.1214   -0.7243 H   0  0  0  0  0  0  0  0  0  0  0  0
   -0.7612    0.8234   -2.4133 H   0  0  0  0  0  0  0  0  0  0  0  0
   -0.6521    2.1101   -1.3919 H   0  0  0  0  0  0  0  0  0  0  0  0
  1  2  1  0
  2  3  1  0
  3  4  2  0
  3  5  1  0
  5  6  2  0
  6  7  1  0
  7  8  2  0
  8  9  1  0
  9 10  2  0
 10 11  1  0
 11 12  1  0
 11 13  2  0
 13 14  1  0
 14 15  1  0
 14 16  2  0
 16 17  1  0
  8 18  1  0
 18 19  1  0
 18 20  2  0
 20  5  1  0
 16  9  1  0
  1 21  1  0
  1 22  1  0
  1 23  1  0
  2 24  1  0
  6 25  1  0
  7 26  1  0
 10 27  1  0
 13 28  1  0
 19 29  1  0
 19 30  1  0
M  END
$$$$
