
     RDKit          3D

 51 54  0  0  0  0  0  0  0  0999 V2000
   -3.2423   -0.4084   -1.7037 C   0  0  0  0  0  0  0  0  0  0  0  0
   -3.0133    0.3494   -0.3804 C   0  0  2  0  0  0  0  0  0  0  0  0
   -2.3850    1.7164   -0.6428 C   0  0  0  0  0  0  0  0  0  0  0  0
   -0.9100    1.5790   -1.0758 C   0  0  0  0  0  0  0  0  0  0  0  0
   -0.0799    0.7330   -0.0769 C   0  0  1  0  0  0  0  0  0  0  0  0
   -0.7487   -0.6539    0.1800 C   0  0  1  0  0  0  0  0  0  0  0  0
    0.0933   -1.5883    1.0654 C   0  0  0  0  0  0  0  0  0  0  0  0
    1.3410   -0.9856    1.7044 C   0  0  0  0  0  0  0  0  0  0  0  0
    2.1146    0.0690    0.8908 C   0  0  1  0  0  0  0  0  0  0  0  0
    3.5933   -0.2926    0.6829 C   0  0  0  0  0  0  0  0  0  0  0  0
    4.3244    0.7113   -0.2223 C   0  0  2  0  0  0  0  0  0  0  0  0
    5.6330    0.9515    0.2924 O   0  0  0  0  0  0  0  0  0  0  0  0
    3.5846    2.0399   -0.3757 C   0  0  0  0  0  0  0  0  0  0  0  0
    2.1106    1.9124   -0.8000 C   0  0  0  0  0  0  0  0  0  0  0  0
    1.4343    0.5624   -0.4163 C   0  0  2  0  0  0  0  0  0  0  0  0
    1.6182   -0.4205   -1.6019 C   0  0  0  0  0  0  0  0  0  0  0  0
   -2.1690   -0.3861    0.6910 C   0  0  2  0  0  0  0  0  0  0  0  0
   -3.0705   -1.5314    1.1408 C   0  0  0  0  0  0  0  0  0  0  0  0
   -4.4366   -0.8448    1.3020 C   0  0  0  0  0  0  0  0  0  0  0  0
   -4.3436    0.3354    0.3494 C   0  0  0  0  0  0  0  0  0  0  0  0
   -5.2426    1.1476    0.1778 O   0  0  0  0  0  0  0  0  0  0  0  0
   -3.7348   -1.3751   -1.5548 H   0  0  0  0  0  0  0  0  0  0  0  0
   -2.3170   -0.5934   -2.2552 H   0  0  0  0  0  0  0  0  0  0  0  0
   -3.9004    0.1722   -2.3620 H   0  0  0  0  0  0  0  0  0  0  0  0
   -2.4390    2.3354    0.2624 H   0  0  0  0  0  0  0  0  0  0  0  0
   -2.9453    2.2605   -1.4128 H   0  0  0  0  0  0  0  0  0  0  0  0
   -0.4938    2.5883   -1.1609 H   0  0  0  0  0  0  0  0  0  0  0  0
   -0.8608    1.1413   -2.0780 H   0  0  0  0  0  0  0  0  0  0  0  0
   -0.1231    1.2969    0.8690 H   0  0  0  0  0  0  0  0  0  0  0  0
   -0.8439   -1.1773   -0.7791 H   0  0  0  0  0  0  0  0  0  0  0  0
    0.4178   -2.4357    0.4466 H   0  0  0  0  0  0  0  0  0  0  0  0
   -0.5123   -2.0450    1.8551 H   0  0  0  0  0  0  0  0  0  0  0  0
    1.0194   -0.5064    2.6402 H   0  0  0  0  0  0  0  0  0  0  0  0
    2.0074   -1.7982    2.0196 H   0  0  0  0  0  0  0  0  0  0  0  0
    2.1368    0.9403    1.5672 H   0  0  0  0  0  0  0  0  0  0  0  0
    4.0887   -0.3621    1.6600 H   0  0  0  0  0  0  0  0  0  0  0  0
    3.6788   -1.2929    0.2394 H   0  0  0  0  0  0  0  0  0  0  0  0
    4.4746    0.2693   -1.2119 H   0  0  0  0  0  0  0  0  0  0  0  0
    5.5392    1.3773    1.1617 H   0  0  0  0  0  0  0  0  0  0  0  0
    4.1192    2.6866   -1.0827 H   0  0  0  0  0  0  0  0  0  0  0  0
    3.6312    2.5813    0.5796 H   0  0  0  0  0  0  0  0  0  0  0  0
    2.0294    2.0774   -1.8820 H   0  0  0  0  0  0  0  0  0  0  0  0
    1.5786    2.7495   -0.3304 H   0  0  0  0  0  0  0  0  0  0  0  0
    1.4308   -1.4597   -1.3212 H   0  0  0  0  0  0  0  0  0  0  0  0
    2.6268   -0.3931   -2.0202 H   0  0  0  0  0  0  0  0  0  0  0  0
    0.9445   -0.1728   -2.4288 H   0  0  0  0  0  0  0  0  0  0  0  0
   -2.0670    0.2683    1.5738 H   0  0  0  0  0  0  0  0  0  0  0  0
   -2.7519   -1.9782    2.0872 H   0  0  0  0  0  0  0  0  0  0  0  0
   -3.1144   -2.3311    0.3939 H   0  0  0  0  0  0  0  0  0  0  0  0
   -4.5690   -0.4672    2.3200 H   0  0  0  0  0  0  0  0  0  0  0  0
   -5.2562   -1.5104    1.0233 H   0  0  0  0  0  0  0  0  0  0  0  0
  2  1  1  6
  2  3  1  0
  3  4  1  0
  4  5  1  0
  5  6  1  0
  6  7  1  0
  7  8  1  0
  8  9  1  0
  9 10  1  0
 10 11  1  0
 11 12  1  0
 11 13  1  0
 13 14  1  0
 14 15  1  0
 15 16  1  6
  6 17  1  0
 17 18  1  0
 18 19  1  0
 19 20  1  0
 20 21  2  0
 17  2  1  0
 20  2  1  0
 15  5  1  0
 15  9  1  0
  1 22  1  0
  1 23  1  0
  1 24  1  0
  3 25  1  0
  3 26  1  0
  4 27  1  0
  4 28  1  0
  5 29  1  1
  6 30  1  6
  7 31  1  0
  7 32  1  0
  8 33  1  0
  8 34  1  0
  9 35  1  1
 10 36  1  0
 10 37  1  0
 11 38  1  6
 12 39  1  0
 13 40  1  0
 13 41  1  0
 14 42  1  0
 14 43  1  0
 16 44  1  0
 16 45  1  0
 16 46  1  0
 17 47  1  1
 18 48  1  0
 18 49  1  0
 19 50  1  0
 19 51  1  0
M  END
$$$$
