
     RDKit          3D

 59 61  0  0  0  0  0  0  0  0999 V2000
    9.0827    2.4708   -0.5189 C   0  0  0  0  0  0  0  0  0  0  0  0
    8.8303    0.9787   -0.4300 C   0  0  0  0  0  0  0  0  0  0  0  0
    7.4210    0.7745   -0.2652 O   0  0  0  0  0  0  0  0  0  0  0  0
    7.0561   -0.5221   -0.1471 C   0  0  0  0  0  0  0  0  0  0  0  0
    7.7979   -1.4897   -0.1973 O   0  0  0  0  0  0  0  0  0  0  0  0
    5.5883   -0.6442   -0.0311 C   0  0  0  0  0  0  0  0  0  0  0  0
    4.9844   -1.7411   -0.6464 C   0  0  0  0  0  0  0  0  0  0  0  0
    3.5941   -1.9294   -0.5716 C   0  0  0  0  0  0  0  0  0  0  0  0
    3.0734   -3.1146   -1.1791 C   0  0  0  0  0  0  0  0  0  0  0  0
    2.6640   -4.0789   -1.6807 N   0  0  0  0  0  0  0  0  0  0  0  0
    2.8110   -1.0046    0.1289 C   0  0  0  0  0  0  0  0  0  0  0  0
    1.4281   -1.0067    0.2487 N   0  0  0  0  0  0  0  0  0  0  0  0
    0.5438   -1.7229   -0.6665 C   0  0  0  0  0  0  0  0  0  0  0  0
   -0.8377   -1.0701   -0.6875 C   0  0  0  0  0  0  0  0  0  0  0  0
   -1.4089   -0.9406    0.7238 C   0  0  0  0  0  0  0  0  0  0  0  0
   -2.7574   -0.2466    0.6669 C   0  0  0  0  0  0  0  0  0  0  0  0
   -2.8968    0.9652    0.7319 O   0  0  0  0  0  0  0  0  0  0  0  0
   -3.8424   -1.1118    0.4726 N   0  0  0  0  0  0  0  0  0  0  0  0
   -5.4343   -0.6933    0.7273 S   0  0  0  0  0  6  0  0  0  0  0  0
   -6.1535   -1.9124    0.4108 O   0  0  0  0  0  0  0  0  0  0  0  0
   -5.5211   -0.1012    2.0440 O   0  0  0  0  0  0  0  0  0  0  0  0
   -5.7442    0.5310   -0.5594 C   0  0  0  0  0  0  0  0  0  0  0  0
   -7.1994    0.9205   -0.5245 C   0  0  0  0  0  0  0  0  0  0  0  0
   -8.1428    0.2353   -1.3034 C   0  0  0  0  0  0  0  0  0  0  0  0
   -9.4904    0.5964   -1.2621 C   0  0  0  0  0  0  0  0  0  0  0  0
   -9.9088    1.6423   -0.4421 C   0  0  0  0  0  0  0  0  0  0  0  0
   -8.9810    2.3270    0.3399 C   0  0  0  0  0  0  0  0  0  0  0  0
   -7.6330    1.9684    0.3008 C   0  0  0  0  0  0  0  0  0  0  0  0
   -0.4349   -0.1681    1.6147 C   0  0  0  0  0  0  0  0  0  0  0  0
    0.9394   -0.8303    1.6247 C   0  0  0  0  0  0  0  0  0  0  0  0
    3.4256    0.0374    0.7517 N   0  0  0  0  0  0  0  0  0  0  0  0
    4.7742    0.2191    0.6862 C   0  0  0  0  0  0  0  0  0  0  0  0
    5.2889    1.3993    1.4553 C   0  0  0  0  0  0  0  0  0  0  0  0
    8.7277    2.9759    0.3854 H   0  0  0  0  0  0  0  0  0  0  0  0
   10.1486    2.6796   -0.6454 H   0  0  0  0  0  0  0  0  0  0  0  0
    8.5345    2.9049   -1.3615 H   0  0  0  0  0  0  0  0  0  0  0  0
    9.1687    0.4891   -1.3499 H   0  0  0  0  0  0  0  0  0  0  0  0
    9.3674    0.5628    0.4297 H   0  0  0  0  0  0  0  0  0  0  0  0
    5.6027   -2.4615   -1.1833 H   0  0  0  0  0  0  0  0  0  0  0  0
    0.9258   -1.6878   -1.6930 H   0  0  0  0  0  0  0  0  0  0  0  0
    0.4458   -2.7701   -0.3574 H   0  0  0  0  0  0  0  0  0  0  0  0
   -1.5119   -1.6598   -1.3204 H   0  0  0  0  0  0  0  0  0  0  0  0
   -0.7663   -0.0769   -1.1514 H   0  0  0  0  0  0  0  0  0  0  0  0
   -1.5535   -1.9406    1.1541 H   0  0  0  0  0  0  0  0  0  0  0  0
   -3.7191   -2.1148    0.3686 H   0  0  0  0  0  0  0  0  0  0  0  0
   -5.1108    1.4033   -0.3819 H   0  0  0  0  0  0  0  0  0  0  0  0
   -5.4795    0.0844   -1.5228 H   0  0  0  0  0  0  0  0  0  0  0  0
   -7.8391   -0.5929   -1.9404 H   0  0  0  0  0  0  0  0  0  0  0  0
  -10.2159    0.0564   -1.8649 H   0  0  0  0  0  0  0  0  0  0  0  0
  -10.9591    1.9193   -0.4067 H   0  0  0  0  0  0  0  0  0  0  0  0
   -9.3079    3.1368    0.9871 H   0  0  0  0  0  0  0  0  0  0  0  0
   -6.9245    2.5072    0.9284 H   0  0  0  0  0  0  0  0  0  0  0  0
   -0.3331    0.8655    1.2577 H   0  0  0  0  0  0  0  0  0  0  0  0
   -0.8254   -0.1087    2.6378 H   0  0  0  0  0  0  0  0  0  0  0  0
    0.8784   -1.8120    2.1121 H   0  0  0  0  0  0  0  0  0  0  0  0
    1.5992   -0.2106    2.2432 H   0  0  0  0  0  0  0  0  0  0  0  0
    4.5134    1.7903    2.1231 H   0  0  0  0  0  0  0  0  0  0  0  0
    5.5756    2.2057    0.7742 H   0  0  0  0  0  0  0  0  0  0  0  0
    6.1418    1.1175    2.0803 H   0  0  0  0  0  0  0  0  0  0  0  0
  1  2  1  0
  2  3  1  0
  3  4  1  0
  4  5  2  0
  4  6  1  0
  6  7  2  0
  7  8  1  0
  8  9  1  0
  9 10  3  0
  8 11  2  0
 11 12  1  0
 12 13  1  0
 13 14  1  0
 14 15  1  0
 15 16  1  0
 16 17  2  0
 16 18  1  0
 18 19  1  0
 19 20  2  0
 19 21  2  0
 19 22  1  0
 22 23  1  0
 23 24  2  0
 24 25  1  0
 25 26  2  0
 26 27  1  0
 27 28  2  0
 15 29  1  0
 29 30  1  0
 11 31  1  0
 31 32  2  0
 32 33  1  0
 32  6  1  0
 30 12  1  0
 28 23  1  0
  1 34  1  0
  1 35  1  0
  1 36  1  0
  2 37  1  0
  2 38  1  0
  7 39  1  0
 13 40  1  0
 13 41  1  0
 14 42  1  0
 14 43  1  0
 15 44  1  0
 18 45  1  0
 22 46  1  0
 22 47  1  0
 24 48  1  0
 25 49  1  0
 26 50  1  0
 27 51  1  0
 28 52  1  0
 29 53  1  0
 29 54  1  0
 30 55  1  0
 30 56  1  0
 33 57  1  0
 33 58  1  0
 33 59  1  0
M  END
$$$$
