
     RDKit          3D

 50 54  0  0  0  0  0  0  0  0999 V2000
   -3.2270    5.3128    0.1805 C   0  0  0  0  0  0  0  0  0  0  0  0
   -2.7906    3.9638    0.0882 O   0  0  0  0  0  0  0  0  0  0  0  0
   -1.4313    3.7260    0.0870 C   0  0  0  0  0  0  0  0  0  0  0  0
   -0.4646    4.7392    0.1212 C   0  0  0  0  0  0  0  0  0  0  0  0
    0.8861    4.4135    0.1056 C   0  0  0  0  0  0  0  0  0  0  0  0
    1.2678    3.0773    0.0628 C   0  0  0  0  0  0  0  0  0  0  0  0
    0.3006    2.0423    0.0390 C   0  0  0  0  0  0  0  0  0  0  0  0
    0.6053    0.6681    0.0033 C   0  0  0  0  0  0  0  0  0  0  0  0
    1.9575    0.2669    0.0149 N   0  0  0  0  0  0  0  0  0  0  0  0
    2.1873   -1.1714   -0.0015 C   0  0  0  0  0  0  0  0  0  0  0  0
    3.6734   -1.4277    0.1044 C   0  0  0  0  0  0  0  0  0  0  0  0
    4.2323   -1.9328    1.2872 C   0  0  0  0  0  0  0  0  0  0  0  0
    5.6073   -2.1559    1.3804 C   0  0  0  0  0  0  0  0  0  0  0  0
    6.4365   -1.8724    0.2964 C   0  0  0  0  0  0  0  0  0  0  0  0
    5.8936   -1.3633   -0.8817 C   0  0  0  0  0  0  0  0  0  0  0  0
    4.5195   -1.1399   -0.9773 C   0  0  0  0  0  0  0  0  0  0  0  0
   -0.3479   -0.2770   -0.0725 N   0  0  0  0  0  0  0  0  0  0  0  0
   -1.6299    0.1234   -0.0650 C   0  0  0  0  0  0  0  0  0  0  0  0
   -2.6650   -0.8619   -0.1388 N   0  0  0  0  0  0  0  0  0  0  0  0
   -4.0387   -0.6207   -0.0609 C   0  0  0  0  0  0  0  0  0  0  0  0
   -4.5768    0.5944    0.1674 N   0  0  0  0  0  0  0  0  0  0  0  0
   -4.7411   -1.7147   -0.2247 N   0  0  0  0  0  0  0  0  0  0  0  0
   -3.8265   -2.7189   -0.3708 C   0  0  0  0  0  0  0  0  0  0  0  0
   -4.0574   -4.0916   -0.5577 C   0  0  0  0  0  0  0  0  0  0  0  0
   -2.9651   -4.9542   -0.6887 C   0  0  0  0  0  0  0  0  0  0  0  0
   -1.6642   -4.4592   -0.6374 C   0  0  0  0  0  0  0  0  0  0  0  0
   -1.4154   -3.0939   -0.4532 C   0  0  0  0  0  0  0  0  0  0  0  0
   -2.5201   -2.2359   -0.3172 C   0  0  0  0  0  0  0  0  0  0  0  0
   -2.0031    1.4145   -0.0037 N   0  0  0  0  0  0  0  0  0  0  0  0
   -1.0600    2.3684    0.0407 C   0  0  0  0  0  0  0  0  0  0  0  0
   -2.8855    5.7764    1.1117 H   0  0  0  0  0  0  0  0  0  0  0  0
   -2.9070    5.8910   -0.6924 H   0  0  0  0  0  0  0  0  0  0  0  0
   -4.3212    5.3095    0.1932 H   0  0  0  0  0  0  0  0  0  0  0  0
   -0.7336    5.7897    0.1516 H   0  0  0  0  0  0  0  0  0  0  0  0
    1.6397    5.1971    0.1203 H   0  0  0  0  0  0  0  0  0  0  0  0
    2.3294    2.8398    0.0305 H   0  0  0  0  0  0  0  0  0  0  0  0
    2.4292    0.6961    0.8064 H   0  0  0  0  0  0  0  0  0  0  0  0
    1.6727   -1.6624    0.8343 H   0  0  0  0  0  0  0  0  0  0  0  0
    1.8200   -1.6183   -0.9340 H   0  0  0  0  0  0  0  0  0  0  0  0
    3.6006   -2.1581    2.1437 H   0  0  0  0  0  0  0  0  0  0  0  0
    6.0325   -2.5514    2.2994 H   0  0  0  0  0  0  0  0  0  0  0  0
    7.5068   -2.0469    0.3702 H   0  0  0  0  0  0  0  0  0  0  0  0
    6.5398   -1.1382   -1.7261 H   0  0  0  0  0  0  0  0  0  0  0  0
    4.1046   -0.7336   -1.8979 H   0  0  0  0  0  0  0  0  0  0  0  0
   -3.9902    1.4232    0.0356 H   0  0  0  0  0  0  0  0  0  0  0  0
   -5.5473    0.7223   -0.0947 H   0  0  0  0  0  0  0  0  0  0  0  0
   -5.0745   -4.4663   -0.5979 H   0  0  0  0  0  0  0  0  0  0  0  0
   -3.1361   -6.0180   -0.8336 H   0  0  0  0  0  0  0  0  0  0  0  0
   -0.8255   -5.1440   -0.7452 H   0  0  0  0  0  0  0  0  0  0  0  0
   -0.3967   -2.7269   -0.4231 H   0  0  0  0  0  0  0  0  0  0  0  0
  1  2  1  0
  2  3  1  0
  3  4  2  0
  4  5  1  0
  5  6  2  0
  6  7  1  0
  7  8  2  0
  8  9  1  0
  9 10  1  0
 10 11  1  0
 11 12  2  0
 12 13  1  0
 13 14  2  0
 14 15  1  0
 15 16  2  0
  8 17  1  0
 17 18  2  0
 18 19  1  0
 19 20  1  0
 20 21  1  0
 20 22  2  0
 22 23  1  0
 23 24  2  0
 24 25  1  0
 25 26  2  0
 26 27  1  0
 27 28  2  0
 18 29  1  0
 29 30  2  0
 30  3  1  0
 30  7  1  0
 16 11  1  0
 28 19  1  0
 28 23  1  0
  1 31  1  0
  1 32  1  0
  1 33  1  0
  4 34  1  0
  5 35  1  0
  6 36  1  0
  9 37  1  0
 10 38  1  0
 10 39  1  0
 12 40  1  0
 13 41  1  0
 14 42  1  0
 15 43  1  0
 16 44  1  0
 21 45  1  0
 21 46  1  0
 24 47  1  0
 25 48  1  0
 26 49  1  0
 27 50  1  0
M  END
$$$$
