
     RDKit          3D

 17 18  0  0  0  0  0  0  0  0999 V2000
   -2.3903   -0.6540   -0.1195 C   0  0  0  0  0  0  0  0  0  0  0  0
   -2.8120    0.6475    0.0854 C   0  0  0  0  0  0  0  0  0  0  0  0
   -1.9671    1.6828    0.2558 N   0  0  0  0  0  0  0  0  0  0  0  0
   -0.6411    1.4001    0.2192 C   0  0  0  0  0  0  0  0  0  0  0  0
   -0.1002    0.1287    0.0199 C   0  0  0  0  0  0  0  0  0  0  0  0
    1.3452   -0.0844   -0.0049 C   0  0  0  0  0  0  0  0  0  0  0  0
    2.4208    0.7740    0.1388 C   0  0  0  0  0  0  0  0  0  0  0  0
    3.5957    0.0864    0.0366 N   0  0  0  0  0  0  0  0  0  0  0  0
    3.3038   -1.1875   -0.1684 N   0  0  0  0  0  0  0  0  0  0  0  0
    1.9685   -1.2932   -0.1937 N   0  0  0  0  0  0  0  0  0  0  0  0
   -1.0189   -0.9130   -0.1521 C   0  0  0  0  0  0  0  0  0  0  0  0
   -3.1133   -1.4517   -0.2513 H   0  0  0  0  0  0  0  0  0  0  0  0
   -3.8684    0.8983    0.1187 H   0  0  0  0  0  0  0  0  0  0  0  0
   -0.0086    2.2721    0.3623 H   0  0  0  0  0  0  0  0  0  0  0  0
    2.4195    1.8412    0.3090 H   0  0  0  0  0  0  0  0  0  0  0  0
    1.5659   -2.2095   -0.3424 H   0  0  0  0  0  0  0  0  0  0  0  0
   -0.6996   -1.9377   -0.3135 H   0  0  0  0  0  0  0  0  0  0  0  0
  1  2  2  0
  2  3  1  0
  3  4  2  0
  4  5  1  0
  5  6  1  0
  6  7  2  0
  7  8  1  0
  8  9  2  0
  9 10  1  0
  5 11  2  0
 11  1  1  0
 10  6  1  0
  1 12  1  0
  2 13  1  0
  4 14  1  0
  7 15  1  0
 10 16  1  0
 11 17  1  0
M  END
$$$$
