
     RDKit          3D

 46 49  0  0  0  0  0  0  0  0999 V2000
    7.1135    0.6622    0.4483 N   0  0  0  0  0  0  0  0  0  0  0  0
    5.8766    0.8587    1.1973 C   0  0  0  0  0  0  0  0  0  0  0  0
    4.6300    0.5363    0.3580 C   0  0  0  0  0  0  0  0  0  0  0  0
    4.5630   -0.9410   -0.0566 C   0  0  0  0  0  0  0  0  0  0  0  0
    3.2802   -1.2543   -0.8284 C   0  0  0  0  0  0  0  0  0  0  0  0
    2.1067   -0.8298   -0.0639 N   0  0  0  0  0  0  0  0  0  0  0  0
    0.8933   -1.2512   -0.6280 C   0  0  0  0  0  0  0  0  0  0  0  0
    0.8846   -2.3360   -1.4195 N   0  0  0  0  0  0  0  0  0  0  0  0
   -0.2936   -2.7361   -1.9246 C   0  0  0  0  0  0  0  0  0  0  0  0
   -1.4811   -2.1016   -1.6717 C   0  0  0  0  0  0  0  0  0  0  0  0
   -1.4092   -0.9988   -0.8491 C   0  0  0  0  0  0  0  0  0  0  0  0
   -2.5927   -0.1949   -0.4773 C   0  0  0  0  0  0  0  0  0  0  0  0
   -2.4805    1.1904   -0.2725 C   0  0  0  0  0  0  0  0  0  0  0  0
   -3.5887    1.9718    0.0704 C   0  0  0  0  0  0  0  0  0  0  0  0
   -4.8523    1.3891    0.2268 C   0  0  0  0  0  0  0  0  0  0  0  0
   -5.9763    2.1576    0.5707 C   0  0  0  0  0  0  0  0  0  0  0  0
   -7.2273    1.5595    0.7287 C   0  0  0  0  0  0  0  0  0  0  0  0
   -7.3691    0.1874    0.5462 C   0  0  0  0  0  0  0  0  0  0  0  0
   -6.2604   -0.5889    0.2042 C   0  0  0  0  0  0  0  0  0  0  0  0
   -4.9945   -0.0024    0.0387 C   0  0  0  0  0  0  0  0  0  0  0  0
   -3.8662   -0.7714   -0.3071 C   0  0  0  0  0  0  0  0  0  0  0  0
   -0.2308   -0.5741   -0.3389 N   0  0  0  0  0  0  0  0  0  0  0  0
    2.0934    0.5679    0.3679 C   0  0  0  0  0  0  0  0  0  0  0  0
    3.3644    0.8909    1.1525 C   0  0  0  0  0  0  0  0  0  0  0  0
    7.2466   -0.3297    0.2561 H   0  0  0  0  0  0  0  0  0  0  0  0
    7.9039    0.9380    1.0307 H   0  0  0  0  0  0  0  0  0  0  0  0
    5.8370    1.9053    1.5203 H   0  0  0  0  0  0  0  0  0  0  0  0
    5.9011    0.2414    2.1029 H   0  0  0  0  0  0  0  0  0  0  0  0
    4.6500    1.1541   -0.5507 H   0  0  0  0  0  0  0  0  0  0  0  0
    5.4202   -1.2070   -0.6850 H   0  0  0  0  0  0  0  0  0  0  0  0
    4.6110   -1.5761    0.8377 H   0  0  0  0  0  0  0  0  0  0  0  0
    3.3030   -0.7487   -1.8029 H   0  0  0  0  0  0  0  0  0  0  0  0
    3.2736   -2.3364   -1.0094 H   0  0  0  0  0  0  0  0  0  0  0  0
   -0.2488   -3.6131   -2.5629 H   0  0  0  0  0  0  0  0  0  0  0  0
   -2.4038   -2.4495   -2.1133 H   0  0  0  0  0  0  0  0  0  0  0  0
   -1.5122    1.6766   -0.3837 H   0  0  0  0  0  0  0  0  0  0  0  0
   -3.4513    3.0408    0.2161 H   0  0  0  0  0  0  0  0  0  0  0  0
   -5.8836    3.2310    0.7201 H   0  0  0  0  0  0  0  0  0  0  0  0
   -8.0889    2.1656    0.9961 H   0  0  0  0  0  0  0  0  0  0  0  0
   -8.3421   -0.2804    0.6712 H   0  0  0  0  0  0  0  0  0  0  0  0
   -6.3929   -1.6599    0.0682 H   0  0  0  0  0  0  0  0  0  0  0  0
   -3.9885   -1.8463   -0.4249 H   0  0  0  0  0  0  0  0  0  0  0  0
    2.0146    1.2355   -0.5003 H   0  0  0  0  0  0  0  0  0  0  0  0
    1.2459    0.7762    1.0330 H   0  0  0  0  0  0  0  0  0  0  0  0
    3.3670    1.9570    1.4096 H   0  0  0  0  0  0  0  0  0  0  0  0
    3.3551    0.3340    2.0989 H   0  0  0  0  0  0  0  0  0  0  0  0
  1  2  1  0
  2  3  1  0
  3  4  1  0
  4  5  1  0
  5  6  1  0
  6  7  1  0
  7  8  2  0
  8  9  1  0
  9 10  2  0
 10 11  1  0
 11 12  1  0
 12 13  2  0
 13 14  1  0
 14 15  2  0
 15 16  1  0
 16 17  2  0
 17 18  1  0
 18 19  2  0
 19 20  1  0
 20 21  2  0
 11 22  2  0
  6 23  1  0
 23 24  1  0
 24  3  1  0
 22  7  1  0
 21 12  1  0
 20 15  1  0
  1 25  1  0
  1 26  1  0
  2 27  1  0
  2 28  1  0
  3 29  1  0
  4 30  1  0
  4 31  1  0
  5 32  1  0
  5 33  1  0
  9 34  1  0
 10 35  1  0
 13 36  1  0
 14 37  1  0
 16 38  1  0
 17 39  1  0
 18 40  1  0
 19 41  1  0
 21 42  1  0
 23 43  1  0
 23 44  1  0
 24 45  1  0
 24 46  1  0
M  END
$$$$
