
     RDKit          3D

 32 33  0  0  0  0  0  0  0  0999 V2000
   -0.7905   -1.6741    0.1422 C   0  0  0  0  0  0  0  0  0  0  0  0
   -0.9457   -0.2178   -0.0894 N   0  0  0  0  0  0  0  0  0  0  0  0
   -2.3190    0.2172   -0.1367 C   0  0  0  0  0  0  0  0  0  0  0  0
   -2.8953    0.4058   -1.3946 C   0  0  0  0  0  0  0  0  0  0  0  0
   -4.2414    0.7585   -1.5032 C   0  0  0  0  0  0  0  0  0  0  0  0
   -5.0180    0.9039   -0.3542 C   0  0  0  0  0  0  0  0  0  0  0  0
   -4.4520    0.6901    0.9025 C   0  0  0  0  0  0  0  0  0  0  0  0
   -3.1058    0.3366    1.0126 C   0  0  0  0  0  0  0  0  0  0  0  0
    0.0745    0.7817    0.8647 S   0  0  0  0  0  6  0  0  0  0  0  0
   -0.1335    2.1689    0.5043 O   0  0  0  0  0  0  0  0  0  0  0  0
   -0.0245    0.3417    2.2432 O   0  0  0  0  0  0  0  0  0  0  0  0
    1.6917    0.3427    0.2676 C   0  0  0  0  0  0  0  0  0  0  0  0
    2.5975   -0.3151    1.1007 C   0  0  0  0  0  0  0  0  0  0  0  0
    3.8589   -0.6558    0.6052 C   0  0  0  0  0  0  0  0  0  0  0  0
    4.2382   -0.3023   -0.6946 C   0  0  0  0  0  0  0  0  0  0  0  0
    5.4541   -0.7552   -1.2188 N   0  0  0  0  0  0  0  0  0  0  0  0
    3.3000    0.3147   -1.5291 C   0  0  0  0  0  0  0  0  0  0  0  0
    2.0356    0.6616   -1.0477 C   0  0  0  0  0  0  0  0  0  0  0  0
   -1.4315   -2.2352   -0.5470 H   0  0  0  0  0  0  0  0  0  0  0  0
    0.2362   -1.9918   -0.0571 H   0  0  0  0  0  0  0  0  0  0  0  0
   -1.0637   -1.9481    1.1658 H   0  0  0  0  0  0  0  0  0  0  0  0
   -2.2944    0.2894   -2.2920 H   0  0  0  0  0  0  0  0  0  0  0  0
   -4.6831    0.9203   -2.4830 H   0  0  0  0  0  0  0  0  0  0  0  0
   -6.0658    1.1819   -0.4377 H   0  0  0  0  0  0  0  0  0  0  0  0
   -5.0587    0.7978    1.7981 H   0  0  0  0  0  0  0  0  0  0  0  0
   -2.6844    0.1607    1.9987 H   0  0  0  0  0  0  0  0  0  0  0  0
    2.3323   -0.5759    2.1225 H   0  0  0  0  0  0  0  0  0  0  0  0
    4.5491   -1.1980    1.2468 H   0  0  0  0  0  0  0  0  0  0  0  0
    5.7863   -0.2143   -2.0116 H   0  0  0  0  0  0  0  0  0  0  0  0
    6.1779   -0.8914   -0.5197 H   0  0  0  0  0  0  0  0  0  0  0  0
    3.5501    0.5356   -2.5637 H   0  0  0  0  0  0  0  0  0  0  0  0
    1.3247    1.1657   -1.6986 H   0  0  0  0  0  0  0  0  0  0  0  0
  1  2  1  0
  2  3  1  0
  3  4  2  0
  4  5  1  0
  5  6  2  0
  6  7  1  0
  7  8  2  0
  2  9  1  0
  9 10  2  0
  9 11  2  0
  9 12  1  0
 12 13  2  0
 13 14  1  0
 14 15  2  0
 15 16  1  0
 15 17  1  0
 17 18  2  0
  8  3  1  0
 18 12  1  0
  1 19  1  0
  1 20  1  0
  1 21  1  0
  4 22  1  0
  5 23  1  0
  6 24  1  0
  7 25  1  0
  8 26  1  0
 13 27  1  0
 14 28  1  0
 16 29  1  0
 16 30  1  0
 17 31  1  0
 18 32  1  0
M  END
$$$$
