
     RDKit          3D

 84 88  0  0  0  0  0  0  0  0999 V2000
   -2.4656    0.6258    4.0507 C   0  0  0  0  0  0  0  0  0  0  0  0
   -3.4635    0.6208    3.0391 O   0  0  0  0  0  0  0  0  0  0  0  0
   -3.0535    0.4569    1.7407 C   0  0  0  0  0  0  0  0  0  0  0  0
   -1.7191    0.3985    1.3304 C   0  0  0  0  0  0  0  0  0  0  0  0
   -1.3728    0.2324   -0.0299 C   0  0  0  0  0  0  0  0  0  0  0  0
   -0.0296    0.1538   -0.4861 C   0  0  0  0  0  0  0  0  0  0  0  0
    1.0310    0.1914    0.4543 N   0  0  0  0  0  0  0  0  0  0  0  0
    1.5617   -1.1731    0.7275 C   0  0  0  0  0  0  0  0  0  0  0  0
    2.5645   -1.1003    1.8950 C   0  0  0  0  0  0  0  0  0  0  0  0
    3.6299   -0.1244    1.6293 N   0  0  0  0  0  0  0  0  0  0  0  0
    4.7739   -0.6060    0.9838 C   0  0  0  0  0  0  0  0  0  0  0  0
    4.8241   -1.7394    0.5207 O   0  0  0  0  0  0  0  0  0  0  0  0
    5.8082    0.3045    0.9965 N   0  0  0  0  0  0  0  0  0  0  0  0
    7.0924    0.1536    0.4346 C   0  0  0  0  0  0  0  0  0  0  0  0
    8.0699    1.0830    0.8104 C   0  0  0  0  0  0  0  0  0  0  0  0
    9.3777    0.9892    0.3190 C   0  0  0  0  0  0  0  0  0  0  0  0
    9.7229   -0.0364   -0.5576 C   0  0  0  0  0  0  0  0  0  0  0  0
   10.9585   -0.2314   -1.1085 O   0  0  0  0  0  0  0  0  0  0  0  0
   12.0974    0.2452   -0.3834 C   0  0  0  0  0  0  0  0  0  0  0  0
   13.1716   -0.8386   -0.4676 C   0  0  0  0  0  0  0  0  0  0  0  0
   12.5954    1.5344   -1.0270 C   0  0  0  0  0  0  0  0  0  0  0  0
    8.7414   -0.9392   -0.9682 C   0  0  0  0  0  0  0  0  0  0  0  0
    7.4346   -0.8495   -0.4732 C   0  0  0  0  0  0  0  0  0  0  0  0
    3.1084    1.2207    1.3225 C   0  0  0  0  0  0  0  0  0  0  0  0
    2.1057    1.1659    0.1457 C   0  0  0  0  0  0  0  0  0  0  0  0
    0.2066   -0.0065   -1.8533 C   0  0  0  0  0  0  0  0  0  0  0  0
   -0.8759   -0.0758   -2.7060 C   0  0  0  0  0  0  0  0  0  0  0  0
   -2.1590   -0.0060   -2.3009 N   0  0  0  0  0  0  0  0  0  0  0  0
   -2.4008    0.1392   -0.9889 C   0  0  0  0  0  0  0  0  0  0  0  0
   -3.7230    0.1936   -0.5681 C   0  0  0  0  0  0  0  0  0  0  0  0
   -4.0705    0.3505    0.7789 C   0  0  0  0  0  0  0  0  0  0  0  0
   -5.3553    0.3941    1.2602 O   0  0  0  0  0  0  0  0  0  0  0  0
   -6.4559    0.3757    0.3495 C   0  0  0  0  0  0  0  0  0  0  0  0
   -6.8790   -1.0610    0.0454 C   0  0  0  0  0  0  0  0  0  0  0  0
   -7.9061   -1.1913   -1.0892 C   0  0  0  0  0  0  0  0  0  0  0  0
   -9.3186   -1.1415   -0.6821 N   0  0  0  0  0  0  0  0  0  0  0  0
   -9.7094    0.1300   -0.0596 C   0  0  0  0  0  0  0  0  0  0  0  0
  -11.2164    0.3831   -0.1192 C   0  0  0  0  0  0  0  0  0  0  0  0
  -11.7048    0.4709   -1.5639 C   0  0  0  0  0  0  0  0  0  0  0  0
  -10.8552   -0.3762   -2.5100 C   0  0  0  0  0  0  0  0  0  0  0  0
  -10.2154   -1.5535   -1.7768 C   0  0  0  0  0  0  0  0  0  0  0  0
   -2.9704    0.7014    5.0197 H   0  0  0  0  0  0  0  0  0  0  0  0
   -1.8107    1.4987    3.9506 H   0  0  0  0  0  0  0  0  0  0  0  0
   -1.8901   -0.3059    4.0483 H   0  0  0  0  0  0  0  0  0  0  0  0
   -0.9137    0.4865    2.0516 H   0  0  0  0  0  0  0  0  0  0  0  0
    0.7468   -1.8511    1.0070 H   0  0  0  0  0  0  0  0  0  0  0  0
    2.0534   -1.5769   -0.1666 H   0  0  0  0  0  0  0  0  0  0  0  0
    2.0525   -0.7748    2.8077 H   0  0  0  0  0  0  0  0  0  0  0  0
    2.9911   -2.0892    2.0936 H   0  0  0  0  0  0  0  0  0  0  0  0
    5.7042    1.0312    1.6896 H   0  0  0  0  0  0  0  0  0  0  0  0
    7.8328    1.8919    1.4962 H   0  0  0  0  0  0  0  0  0  0  0  0
   10.0984    1.7392    0.6277 H   0  0  0  0  0  0  0  0  0  0  0  0
   11.8795    0.4011    0.6805 H   0  0  0  0  0  0  0  0  0  0  0  0
   12.7968   -1.7755   -0.0412 H   0  0  0  0  0  0  0  0  0  0  0  0
   14.0762   -0.5469    0.0764 H   0  0  0  0  0  0  0  0  0  0  0  0
   13.4407   -1.0526   -1.5094 H   0  0  0  0  0  0  0  0  0  0  0  0
   11.8222    2.3091   -1.0093 H   0  0  0  0  0  0  0  0  0  0  0  0
   13.4801    1.9204   -0.5083 H   0  0  0  0  0  0  0  0  0  0  0  0
   12.8512    1.3713   -2.0815 H   0  0  0  0  0  0  0  0  0  0  0  0
    8.9924   -1.7291   -1.6711 H   0  0  0  0  0  0  0  0  0  0  0  0
    6.7082   -1.5784   -0.8193 H   0  0  0  0  0  0  0  0  0  0  0  0
    2.6095    1.5898    2.2257 H   0  0  0  0  0  0  0  0  0  0  0  0
    3.9156    1.9155    1.0740 H   0  0  0  0  0  0  0  0  0  0  0  0
    2.6428    0.8795   -0.7656 H   0  0  0  0  0  0  0  0  0  0  0  0
    1.6766    2.1626   -0.0014 H   0  0  0  0  0  0  0  0  0  0  0  0
    1.2087   -0.0977   -2.2539 H   0  0  0  0  0  0  0  0  0  0  0  0
   -0.7357   -0.2034   -3.7755 H   0  0  0  0  0  0  0  0  0  0  0  0
   -4.4782    0.0999   -1.3380 H   0  0  0  0  0  0  0  0  0  0  0  0
   -7.2680    0.8931    0.8673 H   0  0  0  0  0  0  0  0  0  0  0  0
   -6.2530    0.9702   -0.5489 H   0  0  0  0  0  0  0  0  0  0  0  0
   -5.9895   -1.6401   -0.2286 H   0  0  0  0  0  0  0  0  0  0  0  0
   -7.2505   -1.5371    0.9609 H   0  0  0  0  0  0  0  0  0  0  0  0
   -7.7240   -2.1779   -1.5354 H   0  0  0  0  0  0  0  0  0  0  0  0
   -7.7036   -0.4575   -1.8783 H   0  0  0  0  0  0  0  0  0  0  0  0
   -9.4036    0.1190    0.9918 H   0  0  0  0  0  0  0  0  0  0  0  0
   -9.2053    0.9737   -0.5468 H   0  0  0  0  0  0  0  0  0  0  0  0
  -11.7431   -0.4271    0.4016 H   0  0  0  0  0  0  0  0  0  0  0  0
  -11.4696    1.3075    0.4104 H   0  0  0  0  0  0  0  0  0  0  0  0
  -12.7515    0.1500   -1.6066 H   0  0  0  0  0  0  0  0  0  0  0  0
  -11.6845    1.5126   -1.9058 H   0  0  0  0  0  0  0  0  0  0  0  0
  -10.0704    0.2487   -2.9550 H   0  0  0  0  0  0  0  0  0  0  0  0
  -11.4707   -0.7364   -3.3420 H   0  0  0  0  0  0  0  0  0  0  0  0
  -11.0138   -2.1690   -1.3363 H   0  0  0  0  0  0  0  0  0  0  0  0
   -9.7061   -2.2091   -2.4966 H   0  0  0  0  0  0  0  0  0  0  0  0
  1  2  1  0
  2  3  1  0
  3  4  2  0
  4  5  1  0
  5  6  2  0
  6  7  1  0
  7  8  1  0
  8  9  1  0
  9 10  1  0
 10 11  1  0
 11 12  2  0
 11 13  1  0
 13 14  1  0
 14 15  2  0
 15 16  1  0
 16 17  2  0
 17 18  1  0
 18 19  1  0
 19 20  1  0
 19 21  1  0
 17 22  1  0
 22 23  2  0
 10 24  1  0
 24 25  1  0
  6 26  1  0
 26 27  2  0
 27 28  1  0
 28 29  2  0
 29 30  1  0
 30 31  2  0
 31 32  1  0
 32 33  1  0
 33 34  1  0
 34 35  1  0
 35 36  1  0
 36 37  1  0
 37 38  1  0
 38 39  1  0
 39 40  1  0
 40 41  1  0
 31  3  1  0
 41 36  1  0
 29  5  1  0
 25  7  1  0
 23 14  1  0
  1 42  1  0
  1 43  1  0
  1 44  1  0
  4 45  1  0
  8 46  1  0
  8 47  1  0
  9 48  1  0
  9 49  1  0
 13 50  1  0
 15 51  1  0
 16 52  1  0
 19 53  1  0
 20 54  1  0
 20 55  1  0
 20 56  1  0
 21 57  1  0
 21 58  1  0
 21 59  1  0
 22 60  1  0
 23 61  1  0
 24 62  1  0
 24 63  1  0
 25 64  1  0
 25 65  1  0
 26 66  1  0
 27 67  1  0
 30 68  1  0
 33 69  1  0
 33 70  1  0
 34 71  1  0
 34 72  1  0
 35 73  1  0
 35 74  1  0
 37 75  1  0
 37 76  1  0
 38 77  1  0
 38 78  1  0
 39 79  1  0
 39 80  1  0
 40 81  1  0
 40 82  1  0
 41 83  1  0
 41 84  1  0
M  END
$$$$
