
     RDKit          3D

 36 38  0  0  0  0  0  0  0  0999 V2000
    1.5438   -0.4406    2.7119 O   0  0  0  0  0  0  0  0  0  0  0  0
    1.7584    0.4794    1.9288 C   0  0  0  0  0  0  0  0  0  0  0  0
    3.0785    1.2326    1.9424 C   0  0  0  0  0  0  0  0  0  0  0  0
    4.0008    0.8019    0.8338 C   0  0  0  0  0  0  0  0  0  0  0  0
    4.9951   -0.1594    1.0537 C   0  0  0  0  0  0  0  0  0  0  0  0
    5.8320   -0.5582    0.0081 C   0  0  0  0  0  0  0  0  0  0  0  0
    5.6798   -0.0072   -1.2652 C   0  0  0  0  0  0  0  0  0  0  0  0
    4.6855    0.9409   -1.4970 C   0  0  0  0  0  0  0  0  0  0  0  0
    3.8565    1.3328   -0.4514 C   0  0  0  0  0  0  0  0  0  0  0  0
    2.8837    2.2267   -0.6893 F   0  0  0  0  0  0  0  0  0  0  0  0
    0.8748    0.9458    0.9710 N   0  0  0  0  0  0  0  0  0  0  0  0
   -0.4236    0.4580    0.7211 C   0  0  0  0  0  0  0  0  0  0  0  0
   -1.1662    0.9925   -0.3150 C   0  0  0  0  0  0  0  0  0  0  0  0
   -2.4187    0.6046   -0.6405 N   0  0  0  0  0  0  0  0  0  0  0  0
   -2.9589   -0.3741    0.1127 C   0  0  0  0  0  0  0  0  0  0  0  0
   -4.3191   -0.8222   -0.2117 C   0  0  0  0  0  0  0  0  0  0  0  0
   -5.0664   -0.2725   -1.2660 C   0  0  0  0  0  0  0  0  0  0  0  0
   -6.3564   -0.7268   -1.5411 C   0  0  0  0  0  0  0  0  0  0  0  0
   -6.8796   -1.7320   -0.7488 C   0  0  0  0  0  0  0  0  0  0  0  0
   -6.2101   -2.2967    0.2752 N   0  0  0  0  0  0  0  0  0  0  0  0
   -4.9555   -1.8297    0.5149 C   0  0  0  0  0  0  0  0  0  0  0  0
   -2.3267   -0.9641    1.1449 N   0  0  0  0  0  0  0  0  0  0  0  0
   -1.0721   -0.5350    1.4256 C   0  0  0  0  0  0  0  0  0  0  0  0
    2.8847    2.3108    1.8796 H   0  0  0  0  0  0  0  0  0  0  0  0
    3.5549    1.0766    2.9182 H   0  0  0  0  0  0  0  0  0  0  0  0
    5.1221   -0.6082    2.0375 H   0  0  0  0  0  0  0  0  0  0  0  0
    6.6026   -1.3051    0.1870 H   0  0  0  0  0  0  0  0  0  0  0  0
    6.3322   -0.3229   -2.0757 H   0  0  0  0  0  0  0  0  0  0  0  0
    4.5501    1.3703   -2.4845 H   0  0  0  0  0  0  0  0  0  0  0  0
    1.2191    1.6715    0.3480 H   0  0  0  0  0  0  0  0  0  0  0  0
   -0.7692    1.7816   -0.9475 H   0  0  0  0  0  0  0  0  0  0  0  0
   -4.6428    0.5183   -1.8822 H   0  0  0  0  0  0  0  0  0  0  0  0
   -6.9351   -0.3040   -2.3544 H   0  0  0  0  0  0  0  0  0  0  0  0
   -7.8789   -2.1208   -0.9213 H   0  0  0  0  0  0  0  0  0  0  0  0
   -4.4571   -2.3173    1.3509 H   0  0  0  0  0  0  0  0  0  0  0  0
   -0.6180   -1.0475    2.2671 H   0  0  0  0  0  0  0  0  0  0  0  0
  1  2  2  0
  2  3  1  0
  3  4  1  0
  4  5  2  0
  5  6  1  0
  6  7  2  0
  7  8  1  0
  8  9  2  0
  9 10  1  0
  2 11  1  0
 11 12  1  0
 12 13  2  0
 13 14  1  0
 14 15  2  0
 15 16  1  0
 16 17  2  0
 17 18  1  0
 18 19  2  0
 19 20  1  0
 20 21  2  0
 15 22  1  0
 22 23  2  0
  9  4  1  0
 23 12  1  0
 21 16  1  0
  3 24  1  0
  3 25  1  0
  5 26  1  0
  6 27  1  0
  7 28  1  0
  8 29  1  0
 11 30  1  0
 13 31  1  0
 17 32  1  0
 18 33  1  0
 19 34  1  0
 21 35  1  0
 23 36  1  0
M  END
$$$$
