
     RDKit          3D

 53 57  0  0  0  0  0  0  0  0999 V2000
   -8.4701    0.7610    1.0761 C   0  0  0  0  0  0  0  0  0  0  0  0
   -7.3898   -0.0331    1.5485 O   0  0  0  0  0  0  0  0  0  0  0  0
   -6.1788    0.1258    0.9323 C   0  0  0  0  0  0  0  0  0  0  0  0
   -5.1625   -0.6857    1.4381 C   0  0  0  0  0  0  0  0  0  0  0  0
   -3.8710   -0.6331    0.9079 C   0  0  0  0  0  0  0  0  0  0  0  0
   -3.5833    0.2382   -0.1403 C   0  0  0  0  0  0  0  0  0  0  0  0
   -2.3078    0.3572   -0.7360 N   0  0  0  0  0  0  0  0  0  0  0  0
   -1.1421   -0.3235   -0.4194 C   0  0  0  0  0  0  0  0  0  0  0  0
   -1.0267   -1.1815    0.4516 O   0  0  0  0  0  0  0  0  0  0  0  0
    0.0182    0.0978   -1.3272 C   0  0  0  0  0  0  0  0  0  0  0  0
    1.2693   -0.4413   -0.8617 N   0  0  0  0  0  0  0  0  0  0  0  0
    2.0340    0.1608    0.1215 N   0  0  0  0  0  0  0  0  0  0  0  0
    2.9521   -0.7242    0.3856 C   0  0  0  0  0  0  0  0  0  0  0  0
    3.9647   -0.5854    1.3070 N   0  0  0  0  0  0  0  0  0  0  0  0
    4.0887    0.6572    2.0543 C   0  0  0  0  0  0  0  0  0  0  0  0
    5.0371    1.5830    1.3412 C   0  0  0  0  0  0  0  0  0  0  0  0
    6.4181    1.6073    1.4053 C   0  0  0  0  0  0  0  0  0  0  0  0
    6.9837    2.6298    0.5909 C   0  0  0  0  0  0  0  0  0  0  0  0
    6.0176    3.3591   -0.0639 C   0  0  0  0  0  0  0  0  0  0  0  0
    4.4410    2.8129    0.3052 S   0  0  0  0  0  0  0  0  0  0  0  0
    4.9002   -1.6067    1.5611 C   0  0  0  0  0  0  0  0  0  0  0  0
    5.7858   -1.4967    2.4074 O   0  0  0  0  0  0  0  0  0  0  0  0
    4.7124   -2.7900    0.7422 C   0  0  0  0  0  0  0  0  0  0  0  0
    5.7018   -4.1667    0.8251 S   0  0  0  0  0  0  0  0  0  0  0  0
    4.7818   -4.9585   -0.3900 C   0  0  0  0  0  0  0  0  0  0  0  0
    3.7394   -4.1764   -0.8462 C   0  0  0  0  0  0  0  0  0  0  0  0
    3.7080   -2.9203   -0.1866 C   0  0  0  0  0  0  0  0  0  0  0  0
    2.8481   -1.8635   -0.3355 N   0  0  0  0  0  0  0  0  0  0  0  0
    1.7534   -1.7269   -1.1521 C   0  0  0  0  0  0  0  0  0  0  0  0
    1.2876   -2.5175   -1.9578 O   0  0  0  0  0  0  0  0  0  0  0  0
   -4.6066    1.0626   -0.6578 C   0  0  0  0  0  0  0  0  0  0  0  0
   -4.2222    1.8887   -1.6924 O   0  0  0  0  0  0  0  0  0  0  0  0
   -5.2188    2.7356   -2.2525 C   0  0  0  0  0  0  0  0  0  0  0  0
   -5.8988    1.0019   -0.1185 C   0  0  0  0  0  0  0  0  0  0  0  0
   -9.3545    0.5098    1.6694 H   0  0  0  0  0  0  0  0  0  0  0  0
   -8.2665    1.8277    1.2169 H   0  0  0  0  0  0  0  0  0  0  0  0
   -8.6967    0.5360    0.0287 H   0  0  0  0  0  0  0  0  0  0  0  0
   -5.3751   -1.3704    2.2563 H   0  0  0  0  0  0  0  0  0  0  0  0
   -3.1176   -1.2855    1.3368 H   0  0  0  0  0  0  0  0  0  0  0  0
   -2.2802    1.0428   -1.4851 H   0  0  0  0  0  0  0  0  0  0  0  0
   -0.1804   -0.2819   -2.3349 H   0  0  0  0  0  0  0  0  0  0  0  0
    0.0975    1.1893   -1.3527 H   0  0  0  0  0  0  0  0  0  0  0  0
    4.4709    0.4485    3.0608 H   0  0  0  0  0  0  0  0  0  0  0  0
    3.1050    1.1233    2.1826 H   0  0  0  0  0  0  0  0  0  0  0  0
    6.9987    0.9172    2.0084 H   0  0  0  0  0  0  0  0  0  0  0  0
    8.0454    2.8206    0.4923 H   0  0  0  0  0  0  0  0  0  0  0  0
    6.1604    4.1900   -0.7411 H   0  0  0  0  0  0  0  0  0  0  0  0
    5.0495   -5.9575   -0.7077 H   0  0  0  0  0  0  0  0  0  0  0  0
    3.0422   -4.4998   -1.6110 H   0  0  0  0  0  0  0  0  0  0  0  0
   -6.0306    2.1500   -2.6962 H   0  0  0  0  0  0  0  0  0  0  0  0
   -5.5983    3.4436   -1.5086 H   0  0  0  0  0  0  0  0  0  0  0  0
   -4.7510    3.3153   -3.0542 H   0  0  0  0  0  0  0  0  0  0  0  0
   -6.6829    1.6330   -0.5136 H   0  0  0  0  0  0  0  0  0  0  0  0
  1  2  1  0
  2  3  1  0
  3  4  2  0
  4  5  1  0
  5  6  2  0
  6  7  1  0
  7  8  1  0
  8  9  2  0
  8 10  1  0
 10 11  1  0
 11 12  1  0
 12 13  2  0
 13 14  1  0
 14 15  1  0
 15 16  1  0
 16 17  2  0
 17 18  1  0
 18 19  2  0
 19 20  1  0
 14 21  1  0
 21 22  2  0
 21 23  1  0
 23 24  1  0
 24 25  1  0
 25 26  2  0
 26 27  1  0
 27 28  1  0
 28 29  1  0
 29 30  2  0
  6 31  1  0
 31 32  1  0
 32 33  1  0
 31 34  2  0
 34  3  1  0
 29 11  1  0
 28 13  1  0
 20 16  1  0
 27 23  2  0
  1 35  1  0
  1 36  1  0
  1 37  1  0
  4 38  1  0
  5 39  1  0
  7 40  1  0
 10 41  1  0
 10 42  1  0
 15 43  1  0
 15 44  1  0
 17 45  1  0
 18 46  1  0
 19 47  1  0
 25 48  1  0
 26 49  1  0
 33 50  1  0
 33 51  1  0
 33 52  1  0
 34 53  1  0
M  END
$$$$
