
     RDKit          3D

 40 41  0  0  0  0  0  0  0  0999 V2000
    5.2799    1.1227   -0.6428 C   0  0  0  0  0  0  0  0  0  0  0  0
    4.7299    1.7288    0.5574 N   0  0  0  0  0  0  0  0  0  0  0  0
    3.3747    1.4589    0.8068 C   0  0  0  0  0  0  0  0  0  0  0  0
    2.6857    0.7132   -0.0808 N   0  0  0  0  0  0  0  0  0  0  0  0
    1.3814    0.4769    0.1340 C   0  0  0  0  0  0  0  0  0  0  0  0
    0.7542   -0.3121   -0.8296 N   0  0  0  0  0  0  0  0  0  0  0  0
   -0.5104   -0.7672   -0.9367 C   0  0  0  0  0  0  0  0  0  0  0  0
   -1.5254   -0.6804   -0.0190 C   0  0  0  0  0  0  0  0  0  0  0  0
   -2.6210   -1.2826   -0.5866 N   0  0  0  0  0  0  0  0  0  0  0  0
   -3.9530   -1.4401    0.0204 C   0  0  0  0  0  0  0  0  0  0  0  0
   -4.4473   -0.0851    0.5773 C   0  0  0  0  0  0  0  0  0  0  0  0
   -5.0043   -1.9329   -1.0014 C   0  0  0  0  0  0  0  0  0  0  0  0
   -3.8712   -2.4201    1.1304 C   0  0  0  0  0  0  0  0  0  0  0  0
   -3.8316   -3.1627    2.0246 N   0  0  0  0  0  0  0  0  0  0  0  0
   -2.3641   -1.7630   -1.8269 N   0  0  0  0  0  0  0  0  0  0  0  0
   -1.0741   -1.4662   -2.0369 C   0  0  0  0  0  0  0  0  0  0  0  0
   -0.4323   -1.8548   -3.3195 C   0  0  0  0  0  0  0  0  0  0  0  0
    0.7175    0.9670    1.1870 N   0  0  0  0  0  0  0  0  0  0  0  0
    1.4178    1.7226    2.0530 C   0  0  0  0  0  0  0  0  0  0  0  0
    2.7579    2.0018    1.9154 C   0  0  0  0  0  0  0  0  0  0  0  0
    3.4523    2.8741    2.8916 C   0  0  0  0  0  0  0  0  0  0  0  0
    4.6702    2.3925    3.2730 F   0  0  0  0  0  0  0  0  0  0  0  0
    2.7520    3.0347    4.0551 F   0  0  0  0  0  0  0  0  0  0  0  0
    3.6717    4.1342    2.4258 F   0  0  0  0  0  0  0  0  0  0  0  0
    5.2431    0.0295   -0.5961 H   0  0  0  0  0  0  0  0  0  0  0  0
    6.3300    1.4173   -0.7395 H   0  0  0  0  0  0  0  0  0  0  0  0
    4.7589    1.4703   -1.5397 H   0  0  0  0  0  0  0  0  0  0  0  0
    5.3012    1.5127    1.3786 H   0  0  0  0  0  0  0  0  0  0  0  0
    1.4418   -0.5019   -1.5502 H   0  0  0  0  0  0  0  0  0  0  0  0
   -1.5557   -0.2549    0.9756 H   0  0  0  0  0  0  0  0  0  0  0  0
   -5.4696   -0.1642    0.9667 H   0  0  0  0  0  0  0  0  0  0  0  0
   -3.8232    0.2716    1.4082 H   0  0  0  0  0  0  0  0  0  0  0  0
   -4.4417    0.6912   -0.1988 H   0  0  0  0  0  0  0  0  0  0  0  0
   -5.1316   -1.2058   -1.8151 H   0  0  0  0  0  0  0  0  0  0  0  0
   -5.9811   -2.0753   -0.5255 H   0  0  0  0  0  0  0  0  0  0  0  0
   -4.7247   -2.8972   -1.4560 H   0  0  0  0  0  0  0  0  0  0  0  0
   -0.9119   -2.7418   -3.7484 H   0  0  0  0  0  0  0  0  0  0  0  0
    0.6276   -2.0899   -3.1755 H   0  0  0  0  0  0  0  0  0  0  0  0
   -0.5096   -1.0344   -4.0437 H   0  0  0  0  0  0  0  0  0  0  0  0
    0.8362    2.1126    2.8879 H   0  0  0  0  0  0  0  0  0  0  0  0
  1  2  1  0
  2  3  1  0
  3  4  2  0
  4  5  1  0
  5  6  1  0
  6  7  1  0
  7  8  2  0
  8  9  1  0
  9 10  1  0
 10 11  1  0
 10 12  1  0
 10 13  1  0
 13 14  3  0
  9 15  1  0
 15 16  2  0
 16 17  1  0
  5 18  2  0
 18 19  1  0
 19 20  2  0
 20 21  1  0
 21 22  1  0
 21 23  1  0
 21 24  1  0
 20  3  1  0
 16  7  1  0
  1 25  1  0
  1 26  1  0
  1 27  1  0
  2 28  1  0
  6 29  1  0
  8 30  1  0
 11 31  1  0
 11 32  1  0
 11 33  1  0
 12 34  1  0
 12 35  1  0
 12 36  1  0
 17 37  1  0
 17 38  1  0
 17 39  1  0
 19 40  1  0
M  END
$$$$
