
     RDKit          3D

 58 61  0  0  0  0  0  0  0  0999 V2000
   -1.6963   -0.3550    3.2543 C   0  0  0  0  0  0  0  0  0  0  0  0
   -1.0826   -0.4965    1.8573 C   0  0  1  0  0  0  0  0  0  0  0  0
   -1.9854   -1.3063    1.0327 N   0  0  0  0  0  0  0  0  0  0  0  0
   -1.6014   -2.5545    0.5449 C   0  0  0  0  0  0  0  0  0  0  0  0
   -2.2190   -3.0463   -0.6139 C   0  0  0  0  0  0  0  0  0  0  0  0
   -1.8934   -4.3050   -1.1203 C   0  0  0  0  0  0  0  0  0  0  0  0
   -2.4855   -4.7342   -2.2428 F   0  0  0  0  0  0  0  0  0  0  0  0
   -0.9677   -5.1161   -0.4868 C   0  0  0  0  0  0  0  0  0  0  0  0
   -0.3871   -4.6559    0.6826 C   0  0  0  0  0  0  0  0  0  0  0  0
    0.5116   -5.4177    1.3165 F   0  0  0  0  0  0  0  0  0  0  0  0
   -0.7090   -3.4033    1.2090 C   0  0  0  0  0  0  0  0  0  0  0  0
   -0.8291    0.8300    1.1496 C   0  0  0  0  0  0  0  0  0  0  0  0
   -1.7256    1.9097    1.2661 C   0  0  0  0  0  0  0  0  0  0  0  0
   -1.4844    3.1225    0.6067 C   0  0  0  0  0  0  0  0  0  0  0  0
   -2.4274    4.2432    0.8197 C   0  0  0  0  0  0  0  0  0  0  0  0
   -2.6699    4.5422    1.9872 O   0  0  0  0  0  0  0  0  0  0  0  0
   -2.9824    4.8936   -0.2788 N   0  0  0  0  0  0  0  0  0  0  0  0
   -2.8326    4.4839   -1.6694 C   0  0  0  0  0  0  0  0  0  0  0  0
   -3.7262    6.1227   -0.0537 C   0  0  0  0  0  0  0  0  0  0  0  0
   -0.3319    3.2898   -0.1585 C   0  0  0  0  0  0  0  0  0  0  0  0
    0.5447    2.2136   -0.3063 C   0  0  0  0  0  0  0  0  0  0  0  0
    1.7451    2.3496   -1.1362 C   0  0  0  0  0  0  0  0  0  0  0  0
    2.0051    3.3836   -1.7374 O   0  0  0  0  0  0  0  0  0  0  0  0
    2.6203    1.1746   -1.2284 C   0  0  0  0  0  0  0  0  0  0  0  0
    2.3025    0.0316   -0.6004 C   0  0  0  0  0  0  0  0  0  0  0  0
    3.0754   -1.1313   -0.6600 N   0  0  0  0  0  0  0  0  0  0  0  0
    4.2519   -1.3055   -1.5402 C   0  0  0  0  0  0  0  0  0  0  0  0
    4.4892   -2.7905   -1.8600 C   0  0  0  0  0  0  0  0  0  0  0  0
    4.7205   -3.5995   -0.6993 O   0  0  0  0  0  0  0  0  0  0  0  0
    4.0184   -3.1320    0.4616 C   0  0  0  0  0  0  0  0  0  0  0  0
    2.7460   -2.3349    0.1380 C   0  0  0  0  0  0  0  0  0  0  0  0
    1.1493   -0.0772    0.1756 O   0  0  0  0  0  0  0  0  0  0  0  0
    0.3034    0.9947    0.3266 C   0  0  0  0  0  0  0  0  0  0  0  0
   -1.7497   -1.3329    3.7453 H   0  0  0  0  0  0  0  0  0  0  0  0
   -2.7180    0.0376    3.2241 H   0  0  0  0  0  0  0  0  0  0  0  0
   -1.0923    0.3074    3.8838 H   0  0  0  0  0  0  0  0  0  0  0  0
   -0.1109   -0.9791    2.0086 H   0  0  0  0  0  0  0  0  0  0  0  0
   -2.5091   -0.7542    0.3582 H   0  0  0  0  0  0  0  0  0  0  0  0
   -2.9597   -2.4557   -1.1452 H   0  0  0  0  0  0  0  0  0  0  0  0
   -0.7130   -6.0881   -0.8896 H   0  0  0  0  0  0  0  0  0  0  0  0
   -0.2487   -3.1232    2.1505 H   0  0  0  0  0  0  0  0  0  0  0  0
   -2.6217    1.8261    1.8769 H   0  0  0  0  0  0  0  0  0  0  0  0
   -2.0913    5.1313   -2.1466 H   0  0  0  0  0  0  0  0  0  0  0  0
   -3.7934    4.5943   -2.1793 H   0  0  0  0  0  0  0  0  0  0  0  0
   -2.5260    3.4398   -1.7597 H   0  0  0  0  0  0  0  0  0  0  0  0
   -3.1938    6.9464   -0.5404 H   0  0  0  0  0  0  0  0  0  0  0  0
   -3.8255    6.3576    1.0087 H   0  0  0  0  0  0  0  0  0  0  0  0
   -4.7243    6.0217   -0.4890 H   0  0  0  0  0  0  0  0  0  0  0  0
   -0.1119    4.2446   -0.6302 H   0  0  0  0  0  0  0  0  0  0  0  0
    3.5100    1.3034   -1.8266 H   0  0  0  0  0  0  0  0  0  0  0  0
    4.1140   -0.7744   -2.4874 H   0  0  0  0  0  0  0  0  0  0  0  0
    5.1286   -0.8854   -1.0330 H   0  0  0  0  0  0  0  0  0  0  0  0
    5.3611   -2.8989   -2.5136 H   0  0  0  0  0  0  0  0  0  0  0  0
    3.6282   -3.2081   -2.3953 H   0  0  0  0  0  0  0  0  0  0  0  0
    4.7153   -2.5124    1.0395 H   0  0  0  0  0  0  0  0  0  0  0  0
    3.7708   -4.0072    1.0706 H   0  0  0  0  0  0  0  0  0  0  0  0
    2.0517   -2.9510   -0.4431 H   0  0  0  0  0  0  0  0  0  0  0  0
    2.2628   -2.0636    1.0814 H   0  0  0  0  0  0  0  0  0  0  0  0
  1  2  1  0
  2  3  1  0
  3  4  1  0
  4  5  2  0
  5  6  1  0
  6  7  1  0
  6  8  2  0
  8  9  1  0
  9 10  1  0
  9 11  2  0
  2 12  1  0
 12 13  2  0
 13 14  1  0
 14 15  1  0
 15 16  2  0
 15 17  1  0
 17 18  1  0
 17 19  1  0
 14 20  2  0
 20 21  1  0
 21 22  1  0
 22 23  2  0
 22 24  1  0
 24 25  2  0
 25 26  1  0
 26 27  1  0
 27 28  1  0
 28 29  1  0
 29 30  1  0
 30 31  1  0
 25 32  1  0
 32 33  1  0
 11  4  1  0
 33 12  1  0
 33 21  2  0
 31 26  1  0
  1 34  1  0
  1 35  1  0
  1 36  1  0
  2 37  1  1
  3 38  1  0
  5 39  1  0
  8 40  1  0
 11 41  1  0
 13 42  1  0
 18 43  1  0
 18 44  1  0
 18 45  1  0
 19 46  1  0
 19 47  1  0
 19 48  1  0
 20 49  1  0
 24 50  1  0
 27 51  1  0
 27 52  1  0
 28 53  1  0
 28 54  1  0
 30 55  1  0
 30 56  1  0
 31 57  1  0
 31 58  1  0
M  END
$$$$
