
     RDKit          3D

 44 46  0  0  0  0  0  0  0  0999 V2000
    7.1399    1.5030    1.1397 C   0  0  0  0  0  0  0  0  0  0  0  0
    6.0629    2.2034    0.5290 O   0  0  0  0  0  0  0  0  0  0  0  0
    5.0663    1.3275   -0.0017 C   0  0  0  0  0  0  0  0  0  0  0  0
    4.0971    0.8510    1.0845 C   0  0  0  0  0  0  0  0  0  0  0  0
    2.9778    0.1001    0.5529 N   0  0  0  0  0  0  0  0  0  0  0  0
    3.1212   -1.2043    0.1374 C   0  0  0  0  0  0  0  0  0  0  0  0
    4.1852   -1.8090    0.2249 O   0  0  0  0  0  0  0  0  0  0  0  0
    1.9341   -1.8228   -0.4255 C   0  0  0  0  0  0  0  0  0  0  0  0
    1.8531   -3.1486   -0.9619 C   0  0  0  0  0  0  0  0  0  0  0  0
    0.6263   -3.4753   -1.4008 N   0  0  0  0  0  0  0  0  0  0  0  0
   -0.0519   -2.3643   -1.1578 N   0  0  0  0  0  0  0  0  0  0  0  0
    0.6458   -1.3593   -0.5765 C   0  0  0  0  0  0  0  0  0  0  0  0
   -0.2393   -0.2059   -0.3236 C   0  0  0  0  0  0  0  0  0  0  0  0
   -1.5459   -0.5932   -1.0995 C   0  0  2  0  0  0  0  0  0  0  0  0
   -2.7597   -0.2041   -0.3948 N   0  0  0  0  0  0  0  0  0  0  0  0
   -3.1043    1.1334   -0.2831 C   0  0  0  0  0  0  0  0  0  0  0  0
   -2.4411    2.0023   -0.8448 O   0  0  0  0  0  0  0  0  0  0  0  0
   -4.2464    1.3944    0.5823 C   0  0  0  0  0  0  0  0  0  0  0  0
   -4.2036    2.8108    1.5522 S   0  0  0  0  0  0  0  0  0  0  0  0
   -5.7088    2.4551    2.2660 C   0  0  0  0  0  0  0  0  0  0  0  0
   -6.2544    1.2983    1.7615 C   0  0  0  0  0  0  0  0  0  0  0  0
   -5.4248    0.6764    0.7670 C   0  0  0  0  0  0  0  0  0  0  0  0
   -5.8321   -0.5603    0.0320 C   0  0  0  0  0  0  0  0  0  0  0  0
   -1.4606   -2.1111   -1.3726 C   0  0  0  0  0  0  0  0  0  0  0  0
    7.6269    0.8409    0.4173 H   0  0  0  0  0  0  0  0  0  0  0  0
    7.8726    2.2379    1.4842 H   0  0  0  0  0  0  0  0  0  0  0  0
    6.7948    0.9304    2.0046 H   0  0  0  0  0  0  0  0  0  0  0  0
    4.5074    1.9022   -0.7492 H   0  0  0  0  0  0  0  0  0  0  0  0
    5.5317    0.4894   -0.5338 H   0  0  0  0  0  0  0  0  0  0  0  0
    4.6197    0.2269    1.8173 H   0  0  0  0  0  0  0  0  0  0  0  0
    3.6905    1.7099    1.6294 H   0  0  0  0  0  0  0  0  0  0  0  0
    2.1146    0.5888    0.3736 H   0  0  0  0  0  0  0  0  0  0  0  0
    2.6515   -3.8778   -1.0354 H   0  0  0  0  0  0  0  0  0  0  0  0
    0.1724    0.7296   -0.7137 H   0  0  0  0  0  0  0  0  0  0  0  0
   -0.4267   -0.0933    0.7498 H   0  0  0  0  0  0  0  0  0  0  0  0
   -1.5386   -0.0651   -2.0634 H   0  0  0  0  0  0  0  0  0  0  0  0
   -3.1319   -0.8221    0.3157 H   0  0  0  0  0  0  0  0  0  0  0  0
   -6.1295    3.1164    3.0114 H   0  0  0  0  0  0  0  0  0  0  0  0
   -7.2198    0.9200    2.0784 H   0  0  0  0  0  0  0  0  0  0  0  0
   -6.9179   -0.6986    0.0707 H   0  0  0  0  0  0  0  0  0  0  0  0
   -5.3635   -1.4418    0.4804 H   0  0  0  0  0  0  0  0  0  0  0  0
   -5.5463   -0.5042   -1.0231 H   0  0  0  0  0  0  0  0  0  0  0  0
   -1.7200   -2.3692   -2.4024 H   0  0  0  0  0  0  0  0  0  0  0  0
   -2.0246   -2.7173   -0.6577 H   0  0  0  0  0  0  0  0  0  0  0  0
  1  2  1  0
  2  3  1  0
  3  4  1  0
  4  5  1  0
  5  6  1  0
  6  7  2  0
  6  8  1  0
  8  9  1  0
  9 10  2  0
 10 11  1  0
 11 12  1  0
 12 13  1  0
 13 14  1  0
 14 15  1  0
 15 16  1  0
 16 17  2  0
 16 18  1  0
 18 19  1  0
 19 20  1  0
 20 21  2  0
 21 22  1  0
 22 23  1  0
 14 24  1  0
 12  8  2  0
 22 18  2  0
 24 11  1  0
  1 25  1  0
  1 26  1  0
  1 27  1  0
  3 28  1  0
  3 29  1  0
  4 30  1  0
  4 31  1  0
  5 32  1  0
  9 33  1  0
 13 34  1  0
 13 35  1  0
 14 36  1  6
 15 37  1  0
 20 38  1  0
 21 39  1  0
 23 40  1  0
 23 41  1  0
 23 42  1  0
 24 43  1  0
 24 44  1  0
M  END
$$$$
