
     RDKit          3D

 45 47  0  0  0  0  0  0  0  0999 V2000
    6.3307   -0.8807    1.6360 C   0  0  0  0  0  0  0  0  0  0  0  0
    4.8880   -0.3906    1.7498 C   0  0  0  0  0  0  0  0  0  0  0  0
    4.8581    1.0408    2.2834 C   0  0  0  0  0  0  0  0  0  0  0  0
    4.1661   -0.4772    0.4004 C   0  0  0  0  0  0  0  0  0  0  0  0
    4.7718   -0.7017   -0.6423 O   0  0  0  0  0  0  0  0  0  0  0  0
    2.8004   -0.2776    0.5238 N   0  0  0  0  0  0  0  0  0  0  0  0
    1.8333   -0.2521   -0.5039 C   0  0  0  0  0  0  0  0  0  0  0  0
    2.1278   -0.3991   -1.8530 C   0  0  0  0  0  0  0  0  0  0  0  0
    1.1034   -0.3569   -2.7976 C   0  0  0  0  0  0  0  0  0  0  0  0
   -0.2313   -0.1520   -2.4097 C   0  0  0  0  0  0  0  0  0  0  0  0
   -0.5569   -0.0048   -1.0462 C   0  0  0  0  0  0  0  0  0  0  0  0
    0.4956   -0.0651   -0.1157 C   0  0  0  0  0  0  0  0  0  0  0  0
   -1.9343    0.1600   -0.6395 N   0  0  0  0  0  0  0  0  0  0  0  0
   -2.3008    0.4842    0.6805 C   0  0  0  0  0  0  0  0  0  0  0  0
   -1.5761    0.9902    1.5351 O   0  0  0  0  0  0  0  0  0  0  0  0
   -3.6871    0.2172    1.1107 C   0  0  0  0  0  0  0  0  0  0  0  0
   -4.4535    1.2273    1.6915 C   0  0  0  0  0  0  0  0  0  0  0  0
   -5.7500    0.9371    2.1080 C   0  0  0  0  0  0  0  0  0  0  0  0
   -6.2230   -0.3562    1.9370 C   0  0  0  0  0  0  0  0  0  0  0  0
   -5.4948   -1.3601    1.3963 N   0  0  0  0  0  0  0  0  0  0  0  0
   -4.2325   -1.0549    1.0111 C   0  0  0  0  0  0  0  0  0  0  0  0
   -2.9579    0.0084   -1.6869 C   0  0  0  0  0  0  0  0  0  0  0  0
   -2.5241    0.5886   -3.0201 C   0  0  0  0  0  0  0  0  0  0  0  0
   -1.2782   -0.1319   -3.4903 C   0  0  0  0  0  0  0  0  0  0  0  0
    6.8234   -0.8714    2.6138 H   0  0  0  0  0  0  0  0  0  0  0  0
    6.9151   -0.2518    0.9551 H   0  0  0  0  0  0  0  0  0  0  0  0
    6.3642   -1.9061    1.2519 H   0  0  0  0  0  0  0  0  0  0  0  0
    4.3621   -1.0488    2.4531 H   0  0  0  0  0  0  0  0  0  0  0  0
    3.8328    1.3856    2.4522 H   0  0  0  0  0  0  0  0  0  0  0  0
    5.3245    1.7350    1.5754 H   0  0  0  0  0  0  0  0  0  0  0  0
    5.3927    1.1134    3.2363 H   0  0  0  0  0  0  0  0  0  0  0  0
    2.4432   -0.1374    1.4611 H   0  0  0  0  0  0  0  0  0  0  0  0
    3.1425   -0.5486   -2.2073 H   0  0  0  0  0  0  0  0  0  0  0  0
    1.3575   -0.4806   -3.8488 H   0  0  0  0  0  0  0  0  0  0  0  0
    0.2915    0.0109    0.9463 H   0  0  0  0  0  0  0  0  0  0  0  0
   -4.0418    2.2248    1.8214 H   0  0  0  0  0  0  0  0  0  0  0  0
   -6.3749    1.6989    2.5615 H   0  0  0  0  0  0  0  0  0  0  0  0
   -7.2284   -0.6292    2.2468 H   0  0  0  0  0  0  0  0  0  0  0  0
   -3.6604   -1.8893    0.6150 H   0  0  0  0  0  0  0  0  0  0  0  0
   -3.1807   -1.0614   -1.7815 H   0  0  0  0  0  0  0  0  0  0  0  0
   -3.8803    0.5167   -1.3884 H   0  0  0  0  0  0  0  0  0  0  0  0
   -2.3221    1.6619   -2.9104 H   0  0  0  0  0  0  0  0  0  0  0  0
   -3.3229    0.4797   -3.7618 H   0  0  0  0  0  0  0  0  0  0  0  0
   -0.8940    0.3713   -4.3855 H   0  0  0  0  0  0  0  0  0  0  0  0
   -1.5188   -1.1663   -3.7649 H   0  0  0  0  0  0  0  0  0  0  0  0
  1  2  1  0
  2  3  1  0
  2  4  1  0
  4  5  2  0
  4  6  1  0
  6  7  1  0
  7  8  2  0
  8  9  1  0
  9 10  2  0
 10 11  1  0
 11 12  2  0
 11 13  1  0
 13 14  1  0
 14 15  2  0
 14 16  1  0
 16 17  2  0
 17 18  1  0
 18 19  2  0
 19 20  1  0
 20 21  2  0
 13 22  1  0
 22 23  1  0
 23 24  1  0
 12  7  1  0
 21 16  1  0
 24 10  1  0
  1 25  1  0
  1 26  1  0
  1 27  1  0
  2 28  1  0
  3 29  1  0
  3 30  1  0
  3 31  1  0
  6 32  1  0
  8 33  1  0
  9 34  1  0
 12 35  1  0
 17 36  1  0
 18 37  1  0
 19 38  1  0
 21 39  1  0
 22 40  1  0
 22 41  1  0
 23 42  1  0
 23 43  1  0
 24 44  1  0
 24 45  1  0
M  END
$$$$
