
     RDKit          3D

 52 54  0  0  0  0  0  0  0  0999 V2000
   -7.3017    1.3261   -0.4202 C   0  0  0  0  0  0  0  0  0  0  0  0
   -5.8653    1.6601   -0.0498 C   0  0  0  0  0  0  0  0  0  0  0  0
   -5.4358    1.1214    1.3174 C   0  0  0  0  0  0  0  0  0  0  0  0
   -5.5790   -0.3788    1.5342 C   0  0  0  0  0  0  0  0  0  0  0  0
   -4.4967   -1.4517    0.5965 S   0  0  0  0  0  6  0  0  0  0  0  0
   -4.5856   -1.1436   -0.8137 O   0  0  0  0  0  0  0  0  0  0  0  0
   -4.7537   -2.7951    1.0755 O   0  0  0  0  0  0  0  0  0  0  0  0
   -2.9559   -0.9998    1.1409 N   0  0  0  0  0  0  0  0  0  0  0  0
   -2.2632    0.0967    0.3894 C   0  0  0  0  0  0  0  0  0  0  0  0
   -1.1866   -0.4447   -0.5712 C   0  0  0  0  0  0  0  0  0  0  0  0
   -0.1709   -1.2472    0.1404 N   0  0  0  0  0  0  0  0  0  0  0  0
    1.1615   -0.8472    0.0321 C   0  0  0  0  0  0  0  0  0  0  0  0
    1.7247   -0.5569   -1.2040 C   0  0  0  0  0  0  0  0  0  0  0  0
    3.0704   -0.1800   -1.3120 C   0  0  0  0  0  0  0  0  0  0  0  0
    3.8459   -0.1060   -0.1690 C   0  0  0  0  0  0  0  0  0  0  0  0
    5.2294    0.2762   -0.1779 N   0  0  0  0  0  0  0  0  0  0  0  0
    5.8429    0.5172    1.0187 N   0  0  0  0  0  0  0  0  0  0  0  0
    7.0779    0.9187    0.7279 C   0  0  0  0  0  0  0  0  0  0  0  0
    8.0155    1.2873    1.8148 C   0  0  0  0  0  0  0  0  0  0  0  0
    7.3085    0.9100   -0.6542 C   0  0  0  0  0  0  0  0  0  0  0  0
    6.1324    0.4667   -1.2291 C   0  0  0  0  0  0  0  0  0  0  0  0
    5.8942    0.2019   -2.6686 C   0  0  0  0  0  0  0  0  0  0  0  0
    3.2834   -0.3885    1.0268 N   0  0  0  0  0  0  0  0  0  0  0  0
    1.9517   -0.7743    1.1183 N   0  0  0  0  0  0  0  0  0  0  0  0
   -0.5649   -1.7340    1.4777 C   0  0  0  0  0  0  0  0  0  0  0  0
   -2.0459   -2.1511    1.4761 C   0  0  0  0  0  0  0  0  0  0  0  0
   -7.5807    1.8431   -1.3440 H   0  0  0  0  0  0  0  0  0  0  0  0
   -7.9948    1.6409    0.3662 H   0  0  0  0  0  0  0  0  0  0  0  0
   -7.4324    0.2536   -0.5911 H   0  0  0  0  0  0  0  0  0  0  0  0
   -5.1953    1.3044   -0.8374 H   0  0  0  0  0  0  0  0  0  0  0  0
   -5.7582    2.7518   -0.0329 H   0  0  0  0  0  0  0  0  0  0  0  0
   -4.4071    1.4365    1.5175 H   0  0  0  0  0  0  0  0  0  0  0  0
   -6.0491    1.6228    2.0779 H   0  0  0  0  0  0  0  0  0  0  0  0
   -6.6004   -0.7122    1.3254 H   0  0  0  0  0  0  0  0  0  0  0  0
   -5.3845   -0.6121    2.5879 H   0  0  0  0  0  0  0  0  0  0  0  0
   -1.8082    0.7674    1.1290 H   0  0  0  0  0  0  0  0  0  0  0  0
   -2.9738    0.7054   -0.1751 H   0  0  0  0  0  0  0  0  0  0  0  0
   -0.7474    0.4110   -1.0976 H   0  0  0  0  0  0  0  0  0  0  0  0
   -1.6558   -1.0858   -1.3268 H   0  0  0  0  0  0  0  0  0  0  0  0
    1.1291   -0.6420   -2.1077 H   0  0  0  0  0  0  0  0  0  0  0  0
    3.4368    0.0573   -2.2978 H   0  0  0  0  0  0  0  0  0  0  0  0
    8.2121    0.4256    2.4607 H   0  0  0  0  0  0  0  0  0  0  0  0
    7.5972    2.0923    2.4277 H   0  0  0  0  0  0  0  0  0  0  0  0
    8.9722    1.6331    1.4104 H   0  0  0  0  0  0  0  0  0  0  0  0
    8.2242    1.1635   -1.1712 H   0  0  0  0  0  0  0  0  0  0  0  0
    5.2506    0.9702   -3.1069 H   0  0  0  0  0  0  0  0  0  0  0  0
    5.4593   -0.7893   -2.8271 H   0  0  0  0  0  0  0  0  0  0  0  0
    6.8391    0.2229   -3.2236 H   0  0  0  0  0  0  0  0  0  0  0  0
    0.0430   -2.6051    1.7515 H   0  0  0  0  0  0  0  0  0  0  0  0
   -0.4104   -0.9546    2.2357 H   0  0  0  0  0  0  0  0  0  0  0  0
   -2.3192   -2.5296    2.4669 H   0  0  0  0  0  0  0  0  0  0  0  0
   -2.1798   -2.9542    0.7410 H   0  0  0  0  0  0  0  0  0  0  0  0
  1  2  1  0
  2  3  1  0
  3  4  1  0
  4  5  1  0
  5  6  2  0
  5  7  2  0
  5  8  1  0
  8  9  1  0
  9 10  1  0
 10 11  1  0
 11 12  1  0
 12 13  2  0
 13 14  1  0
 14 15  2  0
 15 16  1  0
 16 17  1  0
 17 18  2  0
 18 19  1  0
 18 20  1  0
 20 21  2  0
 21 22  1  0
 15 23  1  0
 23 24  2  0
 11 25  1  0
 25 26  1  0
 26  8  1  0
 24 12  1  0
 21 16  1  0
  1 27  1  0
  1 28  1  0
  1 29  1  0
  2 30  1  0
  2 31  1  0
  3 32  1  0
  3 33  1  0
  4 34  1  0
  4 35  1  0
  9 36  1  0
  9 37  1  0
 10 38  1  0
 10 39  1  0
 13 40  1  0
 14 41  1  0
 19 42  1  0
 19 43  1  0
 19 44  1  0
 20 45  1  0
 22 46  1  0
 22 47  1  0
 22 48  1  0
 25 49  1  0
 25 50  1  0
 26 51  1  0
 26 52  1  0
M  END
$$$$
