
     RDKit          3D

 45 47  0  0  0  0  0  0  0  0999 V2000
   -1.7701    0.7186    1.4446 C   0  0  0  0  0  0  0  0  0  0  0  0
   -1.8796   -0.0522    0.1696 C   0  0  0  0  0  0  0  0  0  0  0  0
   -0.8769   -0.5926   -0.5584 C   0  0  0  0  0  0  0  0  0  0  0  0
    0.4780   -0.4574   -0.4344 N   0  0  0  0  0  0  0  0  0  0  0  0
    1.1751    0.6123    0.0800 C   0  0  0  0  0  0  0  0  0  0  0  0
    0.7088    1.6906    0.4213 O   0  0  0  0  0  0  0  0  0  0  0  0
    2.5225    0.3319    0.1290 N   0  0  0  0  0  0  0  0  0  0  0  0
    3.4312    1.3076    0.6882 C   0  0  0  0  0  0  0  0  0  0  0  0
    4.8566    0.8564    0.5175 C   0  0  0  0  0  0  0  0  0  0  0  0
    5.5835    0.3494    1.6022 C   0  0  0  0  0  0  0  0  0  0  0  0
    6.8960   -0.0940    1.4290 C   0  0  0  0  0  0  0  0  0  0  0  0
    7.4918   -0.0391    0.1710 C   0  0  0  0  0  0  0  0  0  0  0  0
    6.7781    0.4630   -0.9156 C   0  0  0  0  0  0  0  0  0  0  0  0
    5.4668    0.9077   -0.7439 C   0  0  0  0  0  0  0  0  0  0  0  0
   -1.4201   -1.4337   -1.5045 N   0  0  0  0  0  0  0  0  0  0  0  0
   -0.7145   -2.2140   -2.4848 C   0  0  0  0  0  0  0  0  0  0  0  0
   -2.8289   -1.4103   -1.4116 C   0  0  0  0  0  0  0  0  0  0  0  0
   -3.5938   -2.0323   -2.1341 O   0  0  0  0  0  0  0  0  0  0  0  0
   -3.1103   -0.5032   -0.3371 N   0  0  0  0  0  0  0  0  0  0  0  0
   -4.4395   -0.1515    0.0395 C   0  0  0  0  0  0  0  0  0  0  0  0
   -5.5048   -1.0439   -0.1488 C   0  0  0  0  0  0  0  0  0  0  0  0
   -6.8121   -0.7056    0.2186 C   0  0  0  0  0  0  0  0  0  0  0  0
   -7.0814    0.5392    0.7732 C   0  0  0  0  0  0  0  0  0  0  0  0
   -6.0440    1.4463    0.9535 C   0  0  0  0  0  0  0  0  0  0  0  0
   -4.7374    1.1037    0.5861 C   0  0  0  0  0  0  0  0  0  0  0  0
   -0.8363    0.4961    1.9706 H   0  0  0  0  0  0  0  0  0  0  0  0
   -2.5598    0.4392    2.1507 H   0  0  0  0  0  0  0  0  0  0  0  0
   -1.8187    1.7970    1.2624 H   0  0  0  0  0  0  0  0  0  0  0  0
    1.0328   -1.0301   -1.0473 H   0  0  0  0  0  0  0  0  0  0  0  0
    2.7555   -0.6345    0.3027 H   0  0  0  0  0  0  0  0  0  0  0  0
    3.1824    1.4382    1.7472 H   0  0  0  0  0  0  0  0  0  0  0  0
    3.2740    2.2751    0.1976 H   0  0  0  0  0  0  0  0  0  0  0  0
    5.1325    0.2947    2.5899 H   0  0  0  0  0  0  0  0  0  0  0  0
    7.4545   -0.4846    2.2759 H   0  0  0  0  0  0  0  0  0  0  0  0
    8.5128   -0.3869    0.0367 H   0  0  0  0  0  0  0  0  0  0  0  0
    7.2397    0.5022   -1.8980 H   0  0  0  0  0  0  0  0  0  0  0  0
    4.9171    1.2944   -1.5999 H   0  0  0  0  0  0  0  0  0  0  0  0
   -0.1226   -1.5458   -3.1195 H   0  0  0  0  0  0  0  0  0  0  0  0
   -1.4111   -2.7742   -3.1158 H   0  0  0  0  0  0  0  0  0  0  0  0
   -0.0540   -2.9218   -1.9736 H   0  0  0  0  0  0  0  0  0  0  0  0
   -5.3398   -2.0346   -0.5617 H   0  0  0  0  0  0  0  0  0  0  0  0
   -7.6162   -1.4202    0.0671 H   0  0  0  0  0  0  0  0  0  0  0  0
   -8.0967    0.8043    1.0553 H   0  0  0  0  0  0  0  0  0  0  0  0
   -6.2488    2.4294    1.3690 H   0  0  0  0  0  0  0  0  0  0  0  0
   -3.9729    1.8654    0.6904 H   0  0  0  0  0  0  0  0  0  0  0  0
  1  2  1  0
  2  3  2  0
  3  4  1  0
  4  5  1  0
  5  6  2  0
  5  7  1  0
  7  8  1  0
  8  9  1  0
  9 10  2  0
 10 11  1  0
 11 12  2  0
 12 13  1  0
 13 14  2  0
  3 15  1  0
 15 16  1  0
 15 17  1  0
 17 18  2  0
 17 19  1  0
 19 20  1  0
 20 21  2  0
 21 22  1  0
 22 23  2  0
 23 24  1  0
 24 25  2  0
 19  2  1  0
 25 20  1  0
 14  9  1  0
  1 26  1  0
  1 27  1  0
  1 28  1  0
  4 29  1  0
  7 30  1  0
  8 31  1  0
  8 32  1  0
 10 33  1  0
 11 34  1  0
 12 35  1  0
 13 36  1  0
 14 37  1  0
 16 38  1  0
 16 39  1  0
 16 40  1  0
 21 41  1  0
 22 42  1  0
 23 43  1  0
 24 44  1  0
 25 45  1  0
M  END
$$$$
