
     RDKit          3D

 30 32  0  0  0  0  0  0  0  0999 V2000
    5.3088    1.0905    0.0488 C   0  0  0  0  0  0  0  0  0  0  0  0
    5.1235   -0.3107   -0.1109 O   0  0  0  0  0  0  0  0  0  0  0  0
    3.8345   -0.7687   -0.1259 C   0  0  0  0  0  0  0  0  0  0  0  0
    3.7109   -2.1506   -0.2853 C   0  0  0  0  0  0  0  0  0  0  0  0
    2.4542   -2.7525   -0.3183 C   0  0  0  0  0  0  0  0  0  0  0  0
    1.3071   -1.9697   -0.1912 C   0  0  0  0  0  0  0  0  0  0  0  0
    1.4077   -0.5800   -0.0303 C   0  0  0  0  0  0  0  0  0  0  0  0
    0.2002    0.2301    0.1019 C   0  0  0  0  0  0  0  0  0  0  0  0
    0.2038    1.5647    0.2592 N   0  0  0  0  0  0  0  0  0  0  0  0
   -1.1466    1.8934    0.3388 O   0  0  0  0  0  0  0  0  0  0  0  0
   -1.8432    0.7255    0.2222 C   0  0  0  0  0  0  0  0  0  0  0  0
   -3.2918    0.8062    0.2756 C   0  0  0  0  0  0  0  0  0  0  0  0
   -4.0743   -0.3486    0.1631 C   0  0  0  0  0  0  0  0  0  0  0  0
   -5.4646   -0.2602    0.2156 C   0  0  0  0  0  0  0  0  0  0  0  0
   -6.0364    0.9896    0.3803 C   0  0  0  0  0  0  0  0  0  0  0  0
   -5.3210    2.1285    0.4930 N   0  0  0  0  0  0  0  0  0  0  0  0
   -3.9704    2.0104    0.4382 C   0  0  0  0  0  0  0  0  0  0  0  0
   -1.0638   -0.3226    0.0750 N   0  0  0  0  0  0  0  0  0  0  0  0
    2.6831    0.0125    0.0011 C   0  0  0  0  0  0  0  0  0  0  0  0
    4.8614    1.6451   -0.7825 H   0  0  0  0  0  0  0  0  0  0  0  0
    4.9157    1.4333    1.0116 H   0  0  0  0  0  0  0  0  0  0  0  0
    6.3850    1.2882    0.0396 H   0  0  0  0  0  0  0  0  0  0  0  0
    4.6045   -2.7626   -0.3845 H   0  0  0  0  0  0  0  0  0  0  0  0
    2.3699   -3.8289   -0.4427 H   0  0  0  0  0  0  0  0  0  0  0  0
    0.3321   -2.4527   -0.2187 H   0  0  0  0  0  0  0  0  0  0  0  0
   -3.6038   -1.3216    0.0341 H   0  0  0  0  0  0  0  0  0  0  0  0
   -6.0846   -1.1458    0.1300 H   0  0  0  0  0  0  0  0  0  0  0  0
   -7.1150    1.1118    0.4274 H   0  0  0  0  0  0  0  0  0  0  0  0
   -3.4424    2.9564    0.5337 H   0  0  0  0  0  0  0  0  0  0  0  0
    2.7554    1.0887    0.1259 H   0  0  0  0  0  0  0  0  0  0  0  0
  1  2  1  0
  2  3  1  0
  3  4  2  0
  4  5  1  0
  5  6  2  0
  6  7  1  0
  7  8  1  0
  8  9  2  0
  9 10  1  0
 10 11  1  0
 11 12  1  0
 12 13  2  0
 13 14  1  0
 14 15  2  0
 15 16  1  0
 16 17  2  0
 11 18  2  0
  7 19  2  0
 19  3  1  0
 18  8  1  0
 17 12  1  0
  1 20  1  0
  1 21  1  0
  1 22  1  0
  4 23  1  0
  5 24  1  0
  6 25  1  0
 13 26  1  0
 14 27  1  0
 15 28  1  0
 17 29  1  0
 19 30  1  0
M  END
$$$$
