
     RDKit          3D

 43 44  0  0  0  0  0  0  0  0999 V2000
   -5.4554    1.7055    0.1648 C   0  0  0  0  0  0  0  0  0  0  0  0
   -5.0694    0.1929    1.0264 S   0  0  0  0  0  6  0  0  0  0  0  0
   -6.2392   -0.6578    0.9757 O   0  0  0  0  0  0  0  0  0  0  0  0
   -4.4568    0.5435    2.2895 O   0  0  0  0  0  0  0  0  0  0  0  0
   -3.8752   -0.5021    0.0417 N   0  0  0  0  0  0  0  0  0  0  0  0
   -4.3087   -1.0384   -1.2692 C   0  0  0  0  0  0  0  0  0  0  0  0
   -3.2685   -2.0414   -1.7616 C   0  0  0  0  0  0  0  0  0  0  0  0
   -1.8744   -1.4210   -1.8294 C   0  0  0  0  0  0  0  0  0  0  0  0
   -1.4858   -0.7794   -0.4902 C   0  0  0  0  0  0  0  0  0  0  0  0
   -0.1526   -0.0588   -0.6141 C   0  0  0  0  0  0  0  0  0  0  0  0
   -0.0480    1.1632   -0.5888 O   0  0  0  0  0  0  0  0  0  0  0  0
    0.9242   -0.9033   -0.7802 N   0  0  0  0  0  0  0  0  0  0  0  0
    2.2815   -0.3959   -0.8764 C   0  0  0  0  0  0  0  0  0  0  0  0
    2.8621   -0.0319    0.4920 C   0  0  0  0  0  0  0  0  0  0  0  0
    4.2877    0.4467    0.3816 C   0  0  0  0  0  0  0  0  0  0  0  0
    5.3558   -0.4440    0.5511 C   0  0  0  0  0  0  0  0  0  0  0  0
    6.6728    0.0016    0.4276 C   0  0  0  0  0  0  0  0  0  0  0  0
    6.9334    1.3381    0.1303 C   0  0  0  0  0  0  0  0  0  0  0  0
    5.8777    2.2308   -0.0444 C   0  0  0  0  0  0  0  0  0  0  0  0
    4.5602    1.7877    0.0789 C   0  0  0  0  0  0  0  0  0  0  0  0
   -2.5659    0.2030   -0.0279 C   0  0  0  0  0  0  0  0  0  0  0  0
   -5.8247    1.4679   -0.8338 H   0  0  0  0  0  0  0  0  0  0  0  0
   -4.5649    2.3339    0.1200 H   0  0  0  0  0  0  0  0  0  0  0  0
   -6.2363    2.2189    0.7308 H   0  0  0  0  0  0  0  0  0  0  0  0
   -4.4218   -0.2212   -1.9902 H   0  0  0  0  0  0  0  0  0  0  0  0
   -5.2697   -1.5540   -1.1812 H   0  0  0  0  0  0  0  0  0  0  0  0
   -3.5547   -2.4164   -2.7505 H   0  0  0  0  0  0  0  0  0  0  0  0
   -3.2439   -2.9043   -1.0841 H   0  0  0  0  0  0  0  0  0  0  0  0
   -1.1487   -2.1929   -2.1117 H   0  0  0  0  0  0  0  0  0  0  0  0
   -1.8486   -0.6660   -2.6261 H   0  0  0  0  0  0  0  0  0  0  0  0
   -1.3788   -1.5659    0.2692 H   0  0  0  0  0  0  0  0  0  0  0  0
    0.7951   -1.8993   -0.6532 H   0  0  0  0  0  0  0  0  0  0  0  0
    2.8800   -1.1780   -1.3567 H   0  0  0  0  0  0  0  0  0  0  0  0
    2.2803    0.4773   -1.5395 H   0  0  0  0  0  0  0  0  0  0  0  0
    2.8137   -0.9003    1.1618 H   0  0  0  0  0  0  0  0  0  0  0  0
    2.2546    0.7435    0.9757 H   0  0  0  0  0  0  0  0  0  0  0  0
    5.1703   -1.4900    0.7834 H   0  0  0  0  0  0  0  0  0  0  0  0
    7.4967   -0.6940    0.5644 H   0  0  0  0  0  0  0  0  0  0  0  0
    7.9591    1.6844    0.0355 H   0  0  0  0  0  0  0  0  0  0  0  0
    6.0796    3.2733   -0.2761 H   0  0  0  0  0  0  0  0  0  0  0  0
    3.7450    2.4953   -0.0613 H   0  0  0  0  0  0  0  0  0  0  0  0
   -2.2905    0.5956    0.9570 H   0  0  0  0  0  0  0  0  0  0  0  0
   -2.6474    1.0534   -0.7160 H   0  0  0  0  0  0  0  0  0  0  0  0
  1  2  1  0
  2  3  2  0
  2  4  2  0
  2  5  1  0
  5  6  1  0
  6  7  1  0
  7  8  1  0
  8  9  1  0
  9 10  1  0
 10 11  2  0
 10 12  1  0
 12 13  1  0
 13 14  1  0
 14 15  1  0
 15 16  2  0
 16 17  1  0
 17 18  2  0
 18 19  1  0
 19 20  2  0
  9 21  1  0
 21  5  1  0
 20 15  1  0
  1 22  1  0
  1 23  1  0
  1 24  1  0
  6 25  1  0
  6 26  1  0
  7 27  1  0
  7 28  1  0
  8 29  1  0
  8 30  1  0
  9 31  1  0
 12 32  1  0
 13 33  1  0
 13 34  1  0
 14 35  1  0
 14 36  1  0
 16 37  1  0
 17 38  1  0
 18 39  1  0
 19 40  1  0
 20 41  1  0
 21 42  1  0
 21 43  1  0
M  END
$$$$
