
     RDKit          3D

 35 36  0  0  0  0  0  0  0  0999 V2000
    2.2330   -0.9367   -3.1910 N   0  0  0  0  0  0  0  0  0  0  0  0
    2.7901   -0.8771   -2.1745 C   0  0  0  0  0  0  0  0  0  0  0  0
    3.4130   -0.8075   -0.8852 C   0  0  0  0  0  0  0  0  0  0  0  0
    4.8117   -0.6946   -0.8326 C   0  0  0  0  0  0  0  0  0  0  0  0
    5.4637   -0.6203    0.3949 C   0  0  0  0  0  0  0  0  0  0  0  0
    4.7207   -0.6588    1.5696 C   0  0  0  0  0  0  0  0  0  0  0  0
    3.3261   -0.7716    1.5234 C   0  0  0  0  0  0  0  0  0  0  0  0
    2.6476   -0.8474    0.3013 C   0  0  0  0  0  0  0  0  0  0  0  0
    1.2335   -0.9651    0.2170 N   0  0  0  0  0  0  0  0  0  0  0  0
    0.3134   -0.9725    1.2587 C   0  0  0  0  0  0  0  0  0  0  0  0
    0.5780   -0.8776    2.4540 O   0  0  0  0  0  0  0  0  0  0  0  0
   -1.1386   -1.1258    0.7681 C   0  0  0  0  0  0  0  0  0  0  0  0
   -1.8795    0.1429    0.8778 N   0  0  0  0  0  0  0  0  0  0  0  0
   -3.3275   -0.1054    0.9029 C   0  0  0  0  0  0  0  0  0  0  0  0
   -4.1305    1.1758    0.6925 C   0  0  0  0  0  0  0  0  0  0  0  0
   -3.8419    1.7971   -0.6730 C   0  0  0  0  0  0  0  0  0  0  0  0
   -2.4718    1.3953   -1.2153 C   0  0  0  0  0  0  0  0  0  0  0  0
   -1.4662    1.1692   -0.0876 C   0  0  0  0  0  0  0  0  0  0  0  0
    5.3992   -0.6630   -1.7488 H   0  0  0  0  0  0  0  0  0  0  0  0
    6.5467   -0.5321    0.4373 H   0  0  0  0  0  0  0  0  0  0  0  0
    5.2218   -0.6008    2.5338 H   0  0  0  0  0  0  0  0  0  0  0  0
    2.8010   -0.7979    2.4736 H   0  0  0  0  0  0  0  0  0  0  0  0
    0.8341   -1.0104   -0.7141 H   0  0  0  0  0  0  0  0  0  0  0  0
   -1.5846   -1.8915    1.4167 H   0  0  0  0  0  0  0  0  0  0  0  0
   -1.1746   -1.5209   -0.2541 H   0  0  0  0  0  0  0  0  0  0  0  0
   -3.6135   -0.8319    0.1303 H   0  0  0  0  0  0  0  0  0  0  0  0
   -3.5988   -0.5403    1.8721 H   0  0  0  0  0  0  0  0  0  0  0  0
   -5.2033    0.9723    0.7868 H   0  0  0  0  0  0  0  0  0  0  0  0
   -3.8811    1.8963    1.4823 H   0  0  0  0  0  0  0  0  0  0  0  0
   -3.9086    2.8884   -0.5888 H   0  0  0  0  0  0  0  0  0  0  0  0
   -4.6116    1.4965   -1.3939 H   0  0  0  0  0  0  0  0  0  0  0  0
   -2.5660    0.4761   -1.8078 H   0  0  0  0  0  0  0  0  0  0  0  0
   -2.1063    2.1695   -1.8996 H   0  0  0  0  0  0  0  0  0  0  0  0
   -1.3444    2.1106    0.4635 H   0  0  0  0  0  0  0  0  0  0  0  0
   -0.4850    0.9591   -0.5248 H   0  0  0  0  0  0  0  0  0  0  0  0
  1  2  3  0
  2  3  1  0
  3  4  2  0
  4  5  1  0
  5  6  2  0
  6  7  1  0
  7  8  2  0
  8  9  1  0
  9 10  1  0
 10 11  2  0
 10 12  1  0
 12 13  1  0
 13 14  1  0
 14 15  1  0
 15 16  1  0
 16 17  1  0
 17 18  1  0
  8  3  1  0
 18 13  1  0
  4 19  1  0
  5 20  1  0
  6 21  1  0
  7 22  1  0
  9 23  1  0
 12 24  1  0
 12 25  1  0
 14 26  1  0
 14 27  1  0
 15 28  1  0
 15 29  1  0
 16 30  1  0
 16 31  1  0
 17 32  1  0
 17 33  1  0
 18 34  1  0
 18 35  1  0
M  END
$$$$
