
     RDKit          3D

 40 42  0  0  0  0  0  0  0  0999 V2000
   -5.9936    1.3964    1.9460 C   0  0  0  0  0  0  0  0  0  0  0  0
   -5.2365    0.9210    0.7409 C   0  0  0  0  0  0  0  0  0  0  0  0
   -5.8668    0.8341   -0.5038 C   0  0  0  0  0  0  0  0  0  0  0  0
   -5.1490    0.4341   -1.6302 C   0  0  0  0  0  0  0  0  0  0  0  0
   -3.7929    0.1141   -1.5270 C   0  0  0  0  0  0  0  0  0  0  0  0
   -3.1448    0.1883   -0.2887 C   0  0  0  0  0  0  0  0  0  0  0  0
   -1.7621   -0.1224   -0.1458 N   0  0  0  0  0  0  0  0  0  0  0  0
   -1.0849    0.2641    0.9730 N   0  0  0  0  0  0  0  0  0  0  0  0
    0.2007   -0.0008    0.8096 N   0  0  0  0  0  0  0  0  0  0  0  0
    0.3560   -0.6491   -0.3885 C   0  0  0  0  0  0  0  0  0  0  0  0
    1.6451   -1.1376   -0.8575 C   0  0  0  0  0  0  0  0  0  0  0  0
    1.7815   -1.7743   -1.8991 O   0  0  0  0  0  0  0  0  0  0  0  0
    2.6940   -0.8161   -0.0207 N   0  0  0  0  0  0  0  0  0  0  0  0
    4.0755   -1.0821   -0.3747 C   0  0  0  0  0  0  0  0  0  0  0  0
    4.6478    0.0062   -1.2800 C   0  0  0  0  0  0  0  0  0  0  0  0
    5.0217    1.1370   -0.3261 C   0  0  0  0  0  0  0  0  0  0  0  0
    5.2903    0.4768    1.0264 C   0  0  0  0  0  0  0  0  0  0  0  0
    4.9887   -1.0099    0.8450 C   0  0  0  0  0  0  0  0  0  0  0  0
   -0.8784   -0.7900   -1.0038 C   0  0  0  0  0  0  0  0  0  0  0  0
   -1.2153   -1.4450   -2.1548 N   0  0  0  0  0  0  0  0  0  0  0  0
   -3.8709    0.6153    0.8381 C   0  0  0  0  0  0  0  0  0  0  0  0
   -5.8981    2.4822    2.0432 H   0  0  0  0  0  0  0  0  0  0  0  0
   -5.6130    0.9232    2.8572 H   0  0  0  0  0  0  0  0  0  0  0  0
   -7.0555    1.1406    1.8672 H   0  0  0  0  0  0  0  0  0  0  0  0
   -6.9195    1.0891   -0.6060 H   0  0  0  0  0  0  0  0  0  0  0  0
   -5.6439    0.3883   -2.5976 H   0  0  0  0  0  0  0  0  0  0  0  0
   -3.2646   -0.1355   -2.4416 H   0  0  0  0  0  0  0  0  0  0  0  0
    2.4819   -0.1995    0.7576 H   0  0  0  0  0  0  0  0  0  0  0  0
    4.1253   -2.0642   -0.8569 H   0  0  0  0  0  0  0  0  0  0  0  0
    5.5545   -0.3641   -1.7742 H   0  0  0  0  0  0  0  0  0  0  0  0
    3.9538    0.3415   -2.0569 H   0  0  0  0  0  0  0  0  0  0  0  0
    5.8903    1.6964   -0.6877 H   0  0  0  0  0  0  0  0  0  0  0  0
    4.1906    1.8460   -0.2332 H   0  0  0  0  0  0  0  0  0  0  0  0
    4.6365    0.9123    1.7907 H   0  0  0  0  0  0  0  0  0  0  0  0
    6.3235    0.6314    1.3542 H   0  0  0  0  0  0  0  0  0  0  0  0
    4.5470   -1.4503    1.7446 H   0  0  0  0  0  0  0  0  0  0  0  0
    5.9249   -1.5421    0.6353 H   0  0  0  0  0  0  0  0  0  0  0  0
   -2.0897   -1.9684   -2.1789 H   0  0  0  0  0  0  0  0  0  0  0  0
   -0.4655   -1.9901   -2.5957 H   0  0  0  0  0  0  0  0  0  0  0  0
   -3.3845    0.7027    1.8092 H   0  0  0  0  0  0  0  0  0  0  0  0
  1  2  1  0
  2  3  2  0
  3  4  1  0
  4  5  2  0
  5  6  1  0
  6  7  1  0
  7  8  1  0
  8  9  2  0
  9 10  1  0
 10 11  1  0
 11 12  2  0
 11 13  1  0
 13 14  1  0
 14 15  1  0
 15 16  1  0
 16 17  1  0
 17 18  1  0
 10 19  2  0
 19 20  1  0
  6 21  2  0
 21  2  1  0
 19  7  1  0
 18 14  1  0
  1 22  1  0
  1 23  1  0
  1 24  1  0
  3 25  1  0
  4 26  1  0
  5 27  1  0
 13 28  1  0
 14 29  1  0
 15 30  1  0
 15 31  1  0
 16 32  1  0
 16 33  1  0
 17 34  1  0
 17 35  1  0
 18 36  1  0
 18 37  1  0
 20 38  1  0
 20 39  1  0
 21 40  1  0
M  END
$$$$
