
     RDKit          3D

 56 55  0  0  0  0  0  0  0  0999 V2000
   -4.4321    1.1682   -0.5652 C   0  0  0  0  0  0  0  0  0  0  0  0
   -4.3967    0.3689    0.7569 C   0  0  0  0  0  0  0  0  0  0  0  0
   -3.7443    1.2189    1.8706 C   0  0  0  0  0  0  0  0  0  0  0  0
   -5.8777    0.1770    1.1790 C   0  0  0  0  0  0  0  0  0  0  0  0
   -3.6255   -0.9631    0.5675 C   0  0  0  0  0  0  0  0  0  0  0  0
   -4.2732   -2.2016    0.7790 C   0  0  0  0  0  0  0  0  0  0  0  0
   -3.6029   -3.4159    0.6211 C   0  0  0  0  0  0  0  0  0  0  0  0
   -4.4372   -4.8969    0.8920 Cl  0  0  0  0  0  0  0  0  0  0  0  0
   -2.2679   -3.4367    0.2527 C   0  0  0  0  0  0  0  0  0  0  0  0
   -1.5984   -2.2338    0.0350 C   0  0  0  0  0  0  0  0  0  0  0  0
   -2.2604   -1.0037    0.1771 C   0  0  0  0  0  0  0  0  0  0  0  0
   -1.6380    0.2008   -0.0138 O   0  0  0  0  0  0  0  0  0  0  0  0
   -0.3876    0.2490   -0.6987 C   0  0  0  0  0  0  0  0  0  0  0  0
    0.7765    0.2613    0.2917 C   0  0  0  0  0  0  0  0  0  0  0  0
    2.0429    0.1875   -0.3630 O   0  0  0  0  0  0  0  0  0  0  0  0
    2.4680    1.4430   -0.9073 C   0  0  0  0  0  0  0  0  0  0  0  0
    3.8911    1.2922   -1.4633 C   0  0  0  0  0  0  0  0  0  0  0  0
    4.8377    1.0052   -0.3757 N   0  0  0  0  0  0  0  0  0  0  0  0
    6.1687    0.6812   -0.9101 C   0  0  0  0  0  0  0  0  0  0  0  0
    7.1840    0.4234    0.2215 C   0  0  0  0  0  0  0  0  0  0  0  0
    6.6753   -0.5102    1.2333 N   0  0  0  0  0  0  0  0  0  0  0  0
   -1.1193   -1.1970    0.7050 O   0  0  0  0  0  0  0  0  0  0  0  0
   -0.7432   -0.1861    0.1448 C   0  0  0  0  0  0  0  0  0  0  0  0
   -1.6041    0.7428   -0.2937 O   0  0  0  0  0  0  0  0  0  0  0  0
    0.7431    0.1854   -0.1462 C   0  0  0  0  0  0  0  0  0  0  0  0
    1.1189    1.1944   -0.7099 O   0  0  0  0  0  0  0  0  0  0  0  0
    1.6044   -0.7410    0.2970 O   0  0  0  0  0  0  0  0  0  0  0  0
   -5.0512    2.0678   -0.4652 H   0  0  0  0  0  0  0  0  0  0  0  0
   -4.8527    0.5642   -1.3780 H   0  0  0  0  0  0  0  0  0  0  0  0
   -3.4440    1.5081   -0.8867 H   0  0  0  0  0  0  0  0  0  0  0  0
   -4.3336    2.1210    2.0740 H   0  0  0  0  0  0  0  0  0  0  0  0
   -2.7370    1.5592    1.6154 H   0  0  0  0  0  0  0  0  0  0  0  0
   -3.6721    0.6514    2.8061 H   0  0  0  0  0  0  0  0  0  0  0  0
   -6.4437   -0.3845    0.4264 H   0  0  0  0  0  0  0  0  0  0  0  0
   -6.3830    1.1429    1.3012 H   0  0  0  0  0  0  0  0  0  0  0  0
   -5.9606   -0.3482    2.1379 H   0  0  0  0  0  0  0  0  0  0  0  0
   -5.3171   -2.2487    1.0740 H   0  0  0  0  0  0  0  0  0  0  0  0
   -1.7393   -4.3789    0.1376 H   0  0  0  0  0  0  0  0  0  0  0  0
   -0.5483   -2.2939   -0.2332 H   0  0  0  0  0  0  0  0  0  0  0  0
   -0.2820   -0.5292   -1.4639 H   0  0  0  0  0  0  0  0  0  0  0  0
   -0.3840    1.1900   -1.2604 H   0  0  0  0  0  0  0  0  0  0  0  0
    0.7088   -0.6084    0.9533 H   0  0  0  0  0  0  0  0  0  0  0  0
    0.7256    1.1381    0.9490 H   0  0  0  0  0  0  0  0  0  0  0  0
    2.4429    2.2174   -0.1315 H   0  0  0  0  0  0  0  0  0  0  0  0
    1.7959    1.7335   -1.7213 H   0  0  0  0  0  0  0  0  0  0  0  0
    4.1805    2.2181   -1.9719 H   0  0  0  0  0  0  0  0  0  0  0  0
    3.9003    0.4714   -2.1905 H   0  0  0  0  0  0  0  0  0  0  0  0
    4.4897    0.1740    0.1132 H   0  0  0  0  0  0  0  0  0  0  0  0
    6.5401    1.5049   -1.5307 H   0  0  0  0  0  0  0  0  0  0  0  0
    6.1048   -0.2146   -1.5403 H   0  0  0  0  0  0  0  0  0  0  0  0
    8.1101    0.0244   -0.2054 H   0  0  0  0  0  0  0  0  0  0  0  0
    7.4291    1.3717    0.7142 H   0  0  0  0  0  0  0  0  0  0  0  0
    5.8553   -0.0765    1.6607 H   0  0  0  0  0  0  0  0  0  0  0  0
    7.3629   -0.5900    1.9810 H   0  0  0  0  0  0  0  0  0  0  0  0
   -2.4858    0.3931   -0.0525 H   0  0  0  0  0  0  0  0  0  0  0  0
    2.4860   -0.3915    0.0555 H   0  0  0  0  0  0  0  0  0  0  0  0
  1  2  1  0
  2  3  1  0
  2  4  1  0
  2  5  1  0
  5  6  2  0
  6  7  1  0
  7  8  1  0
  7  9  2  0
  9 10  1  0
 10 11  2  0
 11 12  1  0
 12 13  1  0
 13 14  1  0
 14 15  1  0
 15 16  1  0
 16 17  1  0
 17 18  1  0
 18 19  1  0
 19 20  1  0
 20 21  1  0
 22 23  2  0
 23 24  1  0
 23 25  1  0
 25 26  2  0
 25 27  1  0
 11  5  1  0
  1 28  1  0
  1 29  1  0
  1 30  1  0
  3 31  1  0
  3 32  1  0
  3 33  1  0
  4 34  1  0
  4 35  1  0
  4 36  1  0
  6 37  1  0
  9 38  1  0
 10 39  1  0
 13 40  1  0
 13 41  1  0
 14 42  1  0
 14 43  1  0
 16 44  1  0
 16 45  1  0
 17 46  1  0
 17 47  1  0
 18 48  1  0
 19 49  1  0
 19 50  1  0
 20 51  1  0
 20 52  1  0
 21 53  1  0
 21 54  1  0
 24 55  1  0
 27 56  1  0
M  END
$$$$
