
     RDKit          3D

 44 46  0  0  0  0  0  0  0  0999 V2000
   -4.6118    2.3625    0.7996 C   0  0  0  0  0  0  0  0  0  0  0  0
   -4.1793    0.9334    0.6522 C   0  0  0  0  0  0  0  0  0  0  0  0
   -4.5462    0.1961   -0.4799 C   0  0  0  0  0  0  0  0  0  0  0  0
   -4.1155   -1.1233   -0.6356 C   0  0  0  0  0  0  0  0  0  0  0  0
   -3.3054   -1.7111    0.3335 C   0  0  0  0  0  0  0  0  0  0  0  0
   -2.8249   -3.0404    0.1784 N   0  0  0  0  0  0  0  0  0  0  0  0
   -1.7799   -3.4052   -1.0970 S   0  0  0  0  0  6  0  0  0  0  0  0
   -2.4337   -3.1286   -2.3575 O   0  0  0  0  0  0  0  0  0  0  0  0
   -1.2429   -4.7187   -0.8048 O   0  0  0  0  0  0  0  0  0  0  0  0
   -0.4589   -2.2335   -0.8838 C   0  0  0  0  0  0  0  0  0  0  0  0
    0.6147   -2.5463   -0.0519 C   0  0  0  0  0  0  0  0  0  0  0  0
    1.6611   -1.6280    0.1044 C   0  0  0  0  0  0  0  0  0  0  0  0
    1.6654   -0.3948   -0.5740 C   0  0  0  0  0  0  0  0  0  0  0  0
    2.7314    0.5638   -0.3897 N   0  0  0  0  0  0  0  0  0  0  0  0
    3.6344    0.3672    0.7504 C   0  0  0  0  0  0  0  0  0  0  0  0
    4.3875    1.6157    1.1800 C   0  0  0  0  0  0  0  0  0  0  0  0
    5.0740    2.2190   -0.0247 C   0  0  0  0  0  0  0  0  0  0  0  0
    4.0210    2.5929   -1.0442 C   0  0  0  0  0  0  0  0  0  0  0  0
    3.0741    1.4634   -1.4135 C   0  0  0  0  0  0  0  0  0  0  0  0
    2.6134    1.4474   -2.5566 O   0  0  0  0  0  0  0  0  0  0  0  0
    0.5717   -0.1150   -1.4108 C   0  0  0  0  0  0  0  0  0  0  0  0
   -0.4778   -1.0266   -1.5782 C   0  0  0  0  0  0  0  0  0  0  0  0
   -2.9271   -0.9828    1.4611 C   0  0  0  0  0  0  0  0  0  0  0  0
   -3.3574    0.3372    1.6162 C   0  0  0  0  0  0  0  0  0  0  0  0
   -4.7144    2.6325    1.8559 H   0  0  0  0  0  0  0  0  0  0  0  0
   -5.5858    2.5265    0.3267 H   0  0  0  0  0  0  0  0  0  0  0  0
   -3.8759    3.0255    0.3345 H   0  0  0  0  0  0  0  0  0  0  0  0
   -5.1717    0.6430   -1.2499 H   0  0  0  0  0  0  0  0  0  0  0  0
   -4.4222   -1.6829   -1.5161 H   0  0  0  0  0  0  0  0  0  0  0  0
   -2.6026   -3.5696    1.0188 H   0  0  0  0  0  0  0  0  0  0  0  0
    0.6563   -3.5007    0.4682 H   0  0  0  0  0  0  0  0  0  0  0  0
    2.4867   -1.9283    0.7429 H   0  0  0  0  0  0  0  0  0  0  0  0
    3.0595    0.0235    1.6180 H   0  0  0  0  0  0  0  0  0  0  0  0
    4.3518   -0.4138    0.4686 H   0  0  0  0  0  0  0  0  0  0  0  0
    3.6922    2.3416    1.6193 H   0  0  0  0  0  0  0  0  0  0  0  0
    5.1234    1.3612    1.9506 H   0  0  0  0  0  0  0  0  0  0  0  0
    5.6450    3.1066    0.2683 H   0  0  0  0  0  0  0  0  0  0  0  0
    5.7817    1.5005   -0.4557 H   0  0  0  0  0  0  0  0  0  0  0  0
    4.5197    2.9346   -1.9587 H   0  0  0  0  0  0  0  0  0  0  0  0
    3.4076    3.4232   -0.6739 H   0  0  0  0  0  0  0  0  0  0  0  0
    0.4955    0.8313   -1.9411 H   0  0  0  0  0  0  0  0  0  0  0  0
   -1.3023   -0.7759   -2.2423 H   0  0  0  0  0  0  0  0  0  0  0  0
   -2.2867   -1.4227    2.2196 H   0  0  0  0  0  0  0  0  0  0  0  0
   -3.0455    0.8996    2.4936 H   0  0  0  0  0  0  0  0  0  0  0  0
  1  2  1  0
  2  3  2  0
  3  4  1  0
  4  5  2  0
  5  6  1  0
  6  7  1  0
  7  8  2  0
  7  9  2  0
  7 10  1  0
 10 11  2  0
 11 12  1  0
 12 13  2  0
 13 14  1  0
 14 15  1  0
 15 16  1  0
 16 17  1  0
 17 18  1  0
 18 19  1  0
 19 20  2  0
 13 21  1  0
 21 22  2  0
  5 23  1  0
 23 24  2  0
 24  2  1  0
 22 10  1  0
 19 14  1  0
  1 25  1  0
  1 26  1  0
  1 27  1  0
  3 28  1  0
  4 29  1  0
  6 30  1  0
 11 31  1  0
 12 32  1  0
 15 33  1  0
 15 34  1  0
 16 35  1  0
 16 36  1  0
 17 37  1  0
 17 38  1  0
 18 39  1  0
 18 40  1  0
 21 41  1  0
 22 42  1  0
 23 43  1  0
 24 44  1  0
M  END
$$$$
