
     RDKit          3D

 37 38  0  0  0  0  0  0  0  0999 V2000
    3.8286   -2.6725   -0.7517 C   0  0  0  0  0  0  0  0  0  0  0  0
    3.7067   -1.6442   -1.7266 O   0  0  0  0  0  0  0  0  0  0  0  0
    3.0001   -0.5220   -1.3832 C   0  0  0  0  0  0  0  0  0  0  0  0
    2.2270   -0.4033   -0.2246 C   0  0  0  0  0  0  0  0  0  0  0  0
    1.5210    0.7812    0.0294 C   0  0  0  0  0  0  0  0  0  0  0  0
    0.5626    0.9213    1.5281 S   0  0  0  0  0  6  0  0  0  0  0  0
    1.1291   -0.0097    2.4813 O   0  0  0  0  0  0  0  0  0  0  0  0
    0.4468    2.3308    1.8361 O   0  0  0  0  0  0  0  0  0  0  0  0
   -0.9673    0.3438    1.0603 N   0  0  0  0  0  0  0  0  0  0  0  0
   -1.0917   -1.1122    0.8185 C   0  0  0  0  0  0  0  0  0  0  0  0
   -2.5585   -1.4926    0.6631 C   0  0  0  0  0  0  0  0  0  0  0  0
   -3.2165   -0.7727   -0.5121 C   0  0  0  0  0  0  0  0  0  0  0  0
   -2.4452    0.4719   -0.9458 C   0  0  0  0  0  0  0  0  0  0  0  0
   -1.8201    1.2370    0.2252 C   0  0  0  0  0  0  0  0  0  0  0  0
   -2.8748    1.8862    1.1208 C   0  0  0  0  0  0  0  0  0  0  0  0
    1.6126    1.8706   -0.8391 C   0  0  0  0  0  0  0  0  0  0  0  0
    2.3763    1.7563   -1.9988 C   0  0  0  0  0  0  0  0  0  0  0  0
    3.0583    0.5652   -2.2726 C   0  0  0  0  0  0  0  0  0  0  0  0
    4.0750    0.4820   -3.8770 Br  0  0  0  0  0  0  0  0  0  0  0  0
    4.2747   -2.2929    0.1736 H   0  0  0  0  0  0  0  0  0  0  0  0
    2.8605   -3.1463   -0.5601 H   0  0  0  0  0  0  0  0  0  0  0  0
    4.4990   -3.4374   -1.1552 H   0  0  0  0  0  0  0  0  0  0  0  0
    2.1550   -1.2156    0.4923 H   0  0  0  0  0  0  0  0  0  0  0  0
   -0.6827   -1.6644    1.6710 H   0  0  0  0  0  0  0  0  0  0  0  0
   -0.5322   -1.4014   -0.0770 H   0  0  0  0  0  0  0  0  0  0  0  0
   -3.0969   -1.2431    1.5860 H   0  0  0  0  0  0  0  0  0  0  0  0
   -2.6563   -2.5764    0.5328 H   0  0  0  0  0  0  0  0  0  0  0  0
   -4.2445   -0.5052   -0.2396 H   0  0  0  0  0  0  0  0  0  0  0  0
   -3.2966   -1.4539   -1.3678 H   0  0  0  0  0  0  0  0  0  0  0  0
   -1.6430    0.1638   -1.6300 H   0  0  0  0  0  0  0  0  0  0  0  0
   -3.1036    1.1282   -1.5274 H   0  0  0  0  0  0  0  0  0  0  0  0
   -1.2157    2.0410   -0.2074 H   0  0  0  0  0  0  0  0  0  0  0  0
   -2.4012    2.4849    1.9062 H   0  0  0  0  0  0  0  0  0  0  0  0
   -3.5221    2.5501    0.5385 H   0  0  0  0  0  0  0  0  0  0  0  0
   -3.5082    1.1452    1.6182 H   0  0  0  0  0  0  0  0  0  0  0  0
    1.1010    2.8055   -0.6203 H   0  0  0  0  0  0  0  0  0  0  0  0
    2.4430    2.6008   -2.6809 H   0  0  0  0  0  0  0  0  0  0  0  0
  1  2  1  0
  2  3  1  0
  3  4  2  0
  4  5  1  0
  5  6  1  0
  6  7  2  0
  6  8  2  0
  6  9  1  0
  9 10  1  0
 10 11  1  0
 11 12  1  0
 12 13  1  0
 13 14  1  0
 14 15  1  0
  5 16  2  0
 16 17  1  0
 17 18  2  0
 18 19  1  0
 18  3  1  0
 14  9  1  0
  1 20  1  0
  1 21  1  0
  1 22  1  0
  4 23  1  0
 10 24  1  0
 10 25  1  0
 11 26  1  0
 11 27  1  0
 12 28  1  0
 12 29  1  0
 13 30  1  0
 13 31  1  0
 14 32  1  0
 15 33  1  0
 15 34  1  0
 15 35  1  0
 16 36  1  0
 17 37  1  0
M  END
$$$$
