
     RDKit          3D

 47 49  0  0  0  0  0  0  0  0999 V2000
    4.4463    2.2148   -0.6343 C   0  0  0  0  0  0  0  0  0  0  0  0
    4.3135    0.7931   -0.0577 C   0  0  0  0  0  0  0  0  0  0  0  0
    5.0324   -0.1814   -1.0040 C   0  0  0  0  0  0  0  0  0  0  0  0
    4.9753    0.7695    1.3290 C   0  0  0  0  0  0  0  0  0  0  0  0
    2.8829    0.4733    0.0380 N   0  0  0  0  0  0  0  0  0  0  0  0
    2.3525   -0.7030    0.5042 C   0  0  0  0  0  0  0  0  0  0  0  0
    3.0397   -1.6419    0.8966 O   0  0  0  0  0  0  0  0  0  0  0  0
    0.8551   -0.7847    0.5090 C   0  0  0  0  0  0  0  0  0  0  0  0
    0.3038   -1.9074    0.9935 C   0  0  0  0  0  0  0  0  0  0  0  0
   -1.1245   -2.1117    1.0285 C   0  0  0  0  0  0  0  0  0  0  0  0
   -1.9631   -1.1446    0.6015 C   0  0  0  0  0  0  0  0  0  0  0  0
   -1.4431    0.0838    0.1285 N   0  0  0  0  0  0  0  0  0  0  0  0
   -2.2895    1.1916   -0.2359 C   0  0  0  0  0  0  0  0  0  0  0  0
   -3.2762    1.6601    0.6441 C   0  0  0  0  0  0  0  0  0  0  0  0
   -4.0994    2.7315    0.2876 C   0  0  0  0  0  0  0  0  0  0  0  0
   -3.9409    3.3514   -0.9496 C   0  0  0  0  0  0  0  0  0  0  0  0
   -2.9539    2.9079   -1.8265 C   0  0  0  0  0  0  0  0  0  0  0  0
   -2.1294    1.8377   -1.4699 C   0  0  0  0  0  0  0  0  0  0  0  0
   -0.0454    0.3068    0.0286 C   0  0  0  0  0  0  0  0  0  0  0  0
    0.4661    1.3492   -0.3903 O   0  0  0  0  0  0  0  0  0  0  0  0
   -3.4596   -1.3967    0.5074 C   0  0  0  0  0  0  0  0  0  0  0  0
   -3.8097   -2.8791    0.4288 C   0  0  0  0  0  0  0  0  0  0  0  0
   -3.1502   -3.6382    1.5605 C   0  0  0  0  0  0  0  0  0  0  0  0
   -1.6575   -3.4204    1.5439 C   0  0  0  0  0  0  0  0  0  0  0  0
   -0.8963   -4.2764    1.9932 O   0  0  0  0  0  0  0  0  0  0  0  0
    5.4964    2.5125   -0.7305 H   0  0  0  0  0  0  0  0  0  0  0  0
    3.9456    2.9493    0.0075 H   0  0  0  0  0  0  0  0  0  0  0  0
    3.9848    2.2829   -1.6266 H   0  0  0  0  0  0  0  0  0  0  0  0
    4.5498   -0.2014   -1.9879 H   0  0  0  0  0  0  0  0  0  0  0  0
    5.0284   -1.2057   -0.6181 H   0  0  0  0  0  0  0  0  0  0  0  0
    6.0796    0.1078   -1.1483 H   0  0  0  0  0  0  0  0  0  0  0  0
    4.4525    1.4357    2.0251 H   0  0  0  0  0  0  0  0  0  0  0  0
    6.0208    1.0935    1.2738 H   0  0  0  0  0  0  0  0  0  0  0  0
    4.9682   -0.2325    1.7696 H   0  0  0  0  0  0  0  0  0  0  0  0
    2.2213    1.1926   -0.2589 H   0  0  0  0  0  0  0  0  0  0  0  0
    0.9295   -2.7199    1.3620 H   0  0  0  0  0  0  0  0  0  0  0  0
   -3.3885    1.2262    1.6335 H   0  0  0  0  0  0  0  0  0  0  0  0
   -4.8547    3.0912    0.9818 H   0  0  0  0  0  0  0  0  0  0  0  0
   -4.5774    4.1883   -1.2256 H   0  0  0  0  0  0  0  0  0  0  0  0
   -2.8200    3.3969   -2.7882 H   0  0  0  0  0  0  0  0  0  0  0  0
   -1.3693    1.5071   -2.1738 H   0  0  0  0  0  0  0  0  0  0  0  0
   -3.8794   -0.9277   -0.3898 H   0  0  0  0  0  0  0  0  0  0  0  0
   -3.9571   -0.9638    1.3827 H   0  0  0  0  0  0  0  0  0  0  0  0
   -4.8970   -3.0081    0.4731 H   0  0  0  0  0  0  0  0  0  0  0  0
   -3.4764   -3.2842   -0.5356 H   0  0  0  0  0  0  0  0  0  0  0  0
   -3.3495   -4.7089    1.4436 H   0  0  0  0  0  0  0  0  0  0  0  0
   -3.5363   -3.3167    2.5338 H   0  0  0  0  0  0  0  0  0  0  0  0
  1  2  1  0
  2  3  1  0
  2  4  1  0
  2  5  1  0
  5  6  1  0
  6  7  2  0
  6  8  1  0
  8  9  2  0
  9 10  1  0
 10 11  2  0
 11 12  1  0
 12 13  1  0
 13 14  2  0
 14 15  1  0
 15 16  2  0
 16 17  1  0
 17 18  2  0
 12 19  1  0
 19 20  2  0
 11 21  1  0
 21 22  1  0
 22 23  1  0
 23 24  1  0
 24 25  2  0
 19  8  1  0
 24 10  1  0
 18 13  1  0
  1 26  1  0
  1 27  1  0
  1 28  1  0
  3 29  1  0
  3 30  1  0
  3 31  1  0
  4 32  1  0
  4 33  1  0
  4 34  1  0
  5 35  1  0
  9 36  1  0
 14 37  1  0
 15 38  1  0
 16 39  1  0
 17 40  1  0
 18 41  1  0
 21 42  1  0
 21 43  1  0
 22 44  1  0
 22 45  1  0
 23 46  1  0
 23 47  1  0
M  END
$$$$
