
     RDKit          3D

 37 40  0  0  0  0  0  0  0  0999 V2000
    0.7062    0.2404   -2.0779 O   0  0  0  0  0  0  0  0  0  0  0  0
    1.2455    0.1587   -0.9778 C   0  0  0  0  0  0  0  0  0  0  0  0
    2.2675   -0.7351   -0.7197 N   0  0  0  0  0  0  0  0  0  0  0  0
    2.7440   -1.6586   -1.6982 C   0  0  0  0  0  0  0  0  0  0  0  0
    3.9675   -1.3418   -2.5120 C   0  0  0  0  0  0  0  0  0  0  0  0
    4.0203   -2.4222   -1.4725 C   0  0  0  0  0  0  0  0  0  0  0  0
    0.8634    0.9773    0.1661 C   0  0  0  0  0  0  0  0  0  0  0  0
    1.6614    1.3598    1.2495 C   0  0  0  0  0  0  0  0  0  0  0  0
    0.8294    2.1639    2.0376 C   0  0  0  0  0  0  0  0  0  0  0  0
    0.9207    2.8684    3.1939 O   0  0  0  0  0  0  0  0  0  0  0  0
   -0.3127    3.4321    3.3462 C   0  0  0  0  0  0  0  0  0  0  0  0
   -1.1815    3.1094    2.3278 C   0  0  0  0  0  0  0  0  0  0  0  0
   -0.3966    2.2810    1.4965 C   0  0  0  0  0  0  0  0  0  0  0  0
   -0.4046    1.5379    0.3393 N   0  0  0  0  0  0  0  0  0  0  0  0
   -1.5833    1.3910   -0.5017 C   0  0  0  0  0  0  0  0  0  0  0  0
   -2.2844    0.0760   -0.2593 C   0  0  0  0  0  0  0  0  0  0  0  0
   -2.2441   -0.9396   -1.2256 C   0  0  0  0  0  0  0  0  0  0  0  0
   -2.8896   -2.1576   -1.0057 C   0  0  0  0  0  0  0  0  0  0  0  0
   -3.5852   -2.3748    0.1813 C   0  0  0  0  0  0  0  0  0  0  0  0
   -3.6360   -1.3747    1.1496 C   0  0  0  0  0  0  0  0  0  0  0  0
   -2.9906   -0.1560    0.9313 C   0  0  0  0  0  0  0  0  0  0  0  0
    2.5647   -0.8544    0.2389 H   0  0  0  0  0  0  0  0  0  0  0  0
    1.9425   -2.1911   -2.2071 H   0  0  0  0  0  0  0  0  0  0  0  0
    3.9630   -1.6325   -3.5561 H   0  0  0  0  0  0  0  0  0  0  0  0
    4.4886   -0.4125   -2.3138 H   0  0  0  0  0  0  0  0  0  0  0  0
    4.5954   -2.2294   -0.5751 H   0  0  0  0  0  0  0  0  0  0  0  0
    4.0596   -3.4508   -1.8126 H   0  0  0  0  0  0  0  0  0  0  0  0
    2.6985    1.1173    1.4294 H   0  0  0  0  0  0  0  0  0  0  0  0
   -0.4184    4.0410    4.2343 H   0  0  0  0  0  0  0  0  0  0  0  0
   -2.2072    3.4259    2.2145 H   0  0  0  0  0  0  0  0  0  0  0  0
   -2.2686    2.2195   -0.2843 H   0  0  0  0  0  0  0  0  0  0  0  0
   -1.2810    1.5159   -1.5456 H   0  0  0  0  0  0  0  0  0  0  0  0
   -1.7024   -0.7904   -2.1586 H   0  0  0  0  0  0  0  0  0  0  0  0
   -2.8468   -2.9367   -1.7625 H   0  0  0  0  0  0  0  0  0  0  0  0
   -4.0866   -3.3238    0.3518 H   0  0  0  0  0  0  0  0  0  0  0  0
   -4.1772   -1.5439    2.0769 H   0  0  0  0  0  0  0  0  0  0  0  0
   -3.0411    0.6103    1.7012 H   0  0  0  0  0  0  0  0  0  0  0  0
  1  2  2  0
  2  3  1  0
  3  4  1  0
  4  5  1  0
  5  6  1  0
  2  7  1  0
  7  8  2  0
  8  9  1  0
  9 10  1  0
 10 11  1  0
 11 12  2  0
 12 13  1  0
 13 14  1  0
 14 15  1  0
 15 16  1  0
 16 17  2  0
 17 18  1  0
 18 19  2  0
 19 20  1  0
 20 21  2  0
  6  4  1  0
 14  7  1  0
 21 16  1  0
 13  9  2  0
  3 22  1  0
  4 23  1  0
  5 24  1  0
  5 25  1  0
  6 26  1  0
  6 27  1  0
  8 28  1  0
 11 29  1  0
 12 30  1  0
 15 31  1  0
 15 32  1  0
 17 33  1  0
 18 34  1  0
 19 35  1  0
 20 36  1  0
 21 37  1  0
M  END
$$$$
