
     RDKit          3D

 32 34  0  0  0  0  0  0  0  0999 V2000
   -0.3521   -0.2491    2.4665 O   0  0  0  0  0  0  0  0  0  0  0  0
   -0.6728    0.3965    1.4702 C   0  0  0  0  0  0  0  0  0  0  0  0
    0.0692    1.5519    1.0505 C   0  0  0  0  0  0  0  0  0  0  0  0
   -0.6054    3.1188    1.2150 S   0  0  0  0  0  0  0  0  0  0  0  0
    0.7647    3.8765    0.6350 N   0  0  0  0  0  0  0  0  0  0  0  0
    1.7415    3.0280    0.3635 N   0  0  0  0  0  0  0  0  0  0  0  0
    1.3710    1.7037    0.6029 C   0  0  0  0  0  0  0  0  0  0  0  0
    2.3307    0.6281    0.3842 C   0  0  0  0  0  0  0  0  0  0  0  0
    3.6793    0.8430    0.7057 C   0  0  0  0  0  0  0  0  0  0  0  0
    4.6307   -0.1591    0.5006 C   0  0  0  0  0  0  0  0  0  0  0  0
    4.2457   -1.3854   -0.0350 C   0  0  0  0  0  0  0  0  0  0  0  0
    2.9120   -1.6087   -0.3703 C   0  0  0  0  0  0  0  0  0  0  0  0
    1.9587   -0.6064   -0.1664 C   0  0  0  0  0  0  0  0  0  0  0  0
   -1.7688    0.0141    0.6955 N   0  0  0  0  0  0  0  0  0  0  0  0
   -2.5801   -1.1231    1.1340 C   0  0  0  0  0  0  0  0  0  0  0  0
   -3.9833   -1.0646    0.5258 C   0  0  0  0  0  0  0  0  0  0  0  0
   -3.9901   -1.0381   -0.9087 O   0  0  0  0  0  0  0  0  0  0  0  0
   -2.8039   -0.4867   -1.4938 C   0  0  0  0  0  0  0  0  0  0  0  0
   -2.1236    0.5702   -0.6172 C   0  0  0  0  0  0  0  0  0  0  0  0
    3.9996    1.7954    1.1252 H   0  0  0  0  0  0  0  0  0  0  0  0
    5.6710    0.0201    0.7602 H   0  0  0  0  0  0  0  0  0  0  0  0
    4.9855   -2.1661   -0.1932 H   0  0  0  0  0  0  0  0  0  0  0  0
    2.6130   -2.5647   -0.7931 H   0  0  0  0  0  0  0  0  0  0  0  0
    0.9325   -0.8105   -0.4564 H   0  0  0  0  0  0  0  0  0  0  0  0
   -2.6375   -1.1435    2.2273 H   0  0  0  0  0  0  0  0  0  0  0  0
   -2.0592   -2.0284    0.8007 H   0  0  0  0  0  0  0  0  0  0  0  0
   -4.5084   -0.1668    0.8722 H   0  0  0  0  0  0  0  0  0  0  0  0
   -4.5718   -1.9312    0.8430 H   0  0  0  0  0  0  0  0  0  0  0  0
   -2.1151   -1.3166   -1.6910 H   0  0  0  0  0  0  0  0  0  0  0  0
   -3.0820   -0.0553   -2.4605 H   0  0  0  0  0  0  0  0  0  0  0  0
   -2.8158    1.3987   -0.4295 H   0  0  0  0  0  0  0  0  0  0  0  0
   -1.2353    0.9592   -1.1225 H   0  0  0  0  0  0  0  0  0  0  0  0
  1  2  2  0
  2  3  1  0
  3  4  1  0
  4  5  1  0
  5  6  2  0
  6  7  1  0
  7  8  1  0
  8  9  2  0
  9 10  1  0
 10 11  2  0
 11 12  1  0
 12 13  2  0
  2 14  1  0
 14 15  1  0
 15 16  1  0
 16 17  1  0
 17 18  1  0
 18 19  1  0
  7  3  2  0
 13  8  1  0
 19 14  1  0
  9 20  1  0
 10 21  1  0
 11 22  1  0
 12 23  1  0
 13 24  1  0
 15 25  1  0
 15 26  1  0
 16 27  1  0
 16 28  1  0
 18 29  1  0
 18 30  1  0
 19 31  1  0
 19 32  1  0
M  END
$$$$
