
     RDKit          3D

 33 35  0  0  0  0  0  0  0  0999 V2000
   -5.8787    0.2373   -0.7597 N   0  0  0  0  0  0  0  0  0  0  0  0
   -5.3114   -0.2451    0.3874 C   0  0  0  0  0  0  0  0  0  0  0  0
   -6.0092   -0.6346    1.3150 O   0  0  0  0  0  0  0  0  0  0  0  0
   -3.8269   -0.3155    0.4449 C   0  0  0  0  0  0  0  0  0  0  0  0
   -3.2395   -1.2004    1.3550 C   0  0  0  0  0  0  0  0  0  0  0  0
   -1.8471   -1.3017    1.4441 C   0  0  0  0  0  0  0  0  0  0  0  0
   -1.0172   -0.4983    0.6518 C   0  0  0  0  0  0  0  0  0  0  0  0
    0.3856   -0.6566    0.7234 N   0  0  0  0  0  0  0  0  0  0  0  0
    1.3806    0.3433    0.5196 C   0  0  0  0  0  0  0  0  0  0  0  0
    1.1608    1.6584    0.9314 C   0  0  0  0  0  0  0  0  0  0  0  0
    2.1831    2.5718    0.7903 C   0  0  0  0  0  0  0  0  0  0  0  0
    3.3963    2.2646    0.2936 N   0  0  0  0  0  0  0  0  0  0  0  0
    3.6379    0.9912   -0.0851 C   0  0  0  0  0  0  0  0  0  0  0  0
    4.8886    0.6310   -0.5905 C   0  0  0  0  0  0  0  0  0  0  0  0
    5.8559    1.5578   -0.7011 F   0  0  0  0  0  0  0  0  0  0  0  0
    5.1952   -0.6684   -0.9948 C   0  0  0  0  0  0  0  0  0  0  0  0
    4.2304   -1.6592   -0.9026 C   0  0  0  0  0  0  0  0  0  0  0  0
    2.9699   -1.3364   -0.4035 C   0  0  0  0  0  0  0  0  0  0  0  0
    2.6552   -0.0194    0.0147 C   0  0  0  0  0  0  0  0  0  0  0  0
   -1.6158    0.3705   -0.2710 C   0  0  0  0  0  0  0  0  0  0  0  0
   -3.0086    0.4754   -0.3672 C   0  0  0  0  0  0  0  0  0  0  0  0
   -5.3693    0.2887   -1.6298 H   0  0  0  0  0  0  0  0  0  0  0  0
   -6.8858    0.1513   -0.8189 H   0  0  0  0  0  0  0  0  0  0  0  0
   -3.8653   -1.8216    1.9935 H   0  0  0  0  0  0  0  0  0  0  0  0
   -1.4215   -2.0120    2.1487 H   0  0  0  0  0  0  0  0  0  0  0  0
    0.6564   -1.2277    1.5227 H   0  0  0  0  0  0  0  0  0  0  0  0
    0.2190    1.9691    1.3692 H   0  0  0  0  0  0  0  0  0  0  0  0
    2.0556    3.6076    1.0921 H   0  0  0  0  0  0  0  0  0  0  0  0
    6.1859   -0.8867   -1.3808 H   0  0  0  0  0  0  0  0  0  0  0  0
    4.4516   -2.6745   -1.2214 H   0  0  0  0  0  0  0  0  0  0  0  0
    2.2163   -2.1207   -0.3540 H   0  0  0  0  0  0  0  0  0  0  0  0
   -0.9984    0.9723   -0.9343 H   0  0  0  0  0  0  0  0  0  0  0  0
   -3.4295    1.1886   -1.0692 H   0  0  0  0  0  0  0  0  0  0  0  0
  1  2  1  0
  2  3  2  0
  2  4  1  0
  4  5  2  0
  5  6  1  0
  6  7  2  0
  7  8  1  0
  8  9  1  0
  9 10  2  0
 10 11  1  0
 11 12  2  0
 12 13  1  0
 13 14  2  0
 14 15  1  0
 14 16  1  0
 16 17  2  0
 17 18  1  0
 18 19  2  0
  7 20  1  0
 20 21  2  0
 21  4  1  0
 19  9  1  0
 19 13  1  0
  1 22  1  0
  1 23  1  0
  5 24  1  0
  6 25  1  0
  8 26  1  0
 10 27  1  0
 11 28  1  0
 16 29  1  0
 17 30  1  0
 18 31  1  0
 20 32  1  0
 21 33  1  0
M  END
$$$$
