
     RDKit          3D

 63 65  0  0  0  0  0  0  0  0999 V2000
   10.3311   -0.3799   -1.4621 C   0  0  0  0  0  0  0  0  0  0  0  0
    9.3169   -0.9641   -0.6566 O   0  0  0  0  0  0  0  0  0  0  0  0
    8.0120   -0.7696   -1.0366 C   0  0  0  0  0  0  0  0  0  0  0  0
    7.6103    0.1064   -2.0532 C   0  0  0  0  0  0  0  0  0  0  0  0
    6.2582    0.2476   -2.3696 C   0  0  0  0  0  0  0  0  0  0  0  0
    5.3093   -0.4845   -1.6566 C   0  0  0  0  0  0  0  0  0  0  0  0
    3.5813   -0.3218   -2.0380 S   0  0  0  0  0  6  0  0  0  0  0  0
    3.4467    0.6459   -3.1081 O   0  0  0  0  0  0  0  0  0  0  0  0
    3.0605   -1.6651   -2.1748 O   0  0  0  0  0  0  0  0  0  0  0  0
    2.9577    0.3885   -0.6051 N   0  0  0  0  0  0  0  0  0  0  0  0
    3.4467    1.7603   -0.3230 C   0  0  0  0  0  0  0  0  0  0  0  0
    1.5372    0.2284   -0.4199 C   0  0  0  0  0  0  0  0  0  0  0  0
    0.6051    0.5877   -1.3989 C   0  0  0  0  0  0  0  0  0  0  0  0
   -0.7669    0.4916   -1.1374 C   0  0  0  0  0  0  0  0  0  0  0  0
   -1.2134    0.0761    0.1237 C   0  0  0  0  0  0  0  0  0  0  0  0
   -2.6628   -0.0448    0.4593 C   0  0  0  0  0  0  0  0  0  0  0  0
   -2.9982   -0.9236    1.2429 O   0  0  0  0  0  0  0  0  0  0  0  0
   -3.4922    0.8790   -0.1527 N   0  0  0  0  0  0  0  0  0  0  0  0
   -4.8925    0.9974   -0.0079 C   0  0  0  0  0  0  0  0  0  0  0  0
   -5.5358    1.9527   -0.8072 C   0  0  0  0  0  0  0  0  0  0  0  0
   -6.9208    2.1217   -0.7448 C   0  0  0  0  0  0  0  0  0  0  0  0
   -7.6757    1.3400    0.1251 C   0  0  0  0  0  0  0  0  0  0  0  0
   -7.0458    0.3967    0.9375 C   0  0  0  0  0  0  0  0  0  0  0  0
   -7.8726   -0.3641    1.8423 N   0  0  0  0  0  0  0  0  0  0  0  0
   -7.7704   -1.8366    1.6761 C   0  0  0  0  0  0  0  0  0  0  0  0
   -7.8140    0.1224    3.4867 S   0  0  0  0  0  6  0  0  0  0  0  0
   -8.5531    1.7419    3.4211 C   0  0  0  0  0  0  0  0  0  0  0  0
   -8.7270   -0.7284    4.2251 O   0  0  0  0  0  0  0  0  0  0  0  0
   -6.4356    0.2585    3.9061 O   0  0  0  0  0  0  0  0  0  0  0  0
   -5.6571    0.2289    0.8731 C   0  0  0  0  0  0  0  0  0  0  0  0
   -0.2766   -0.2617    1.1090 C   0  0  0  0  0  0  0  0  0  0  0  0
    1.0919   -0.1695    0.8423 C   0  0  0  0  0  0  0  0  0  0  0  0
    5.6907   -1.3692   -0.6429 C   0  0  0  0  0  0  0  0  0  0  0  0
    7.0439   -1.5154   -0.3280 C   0  0  0  0  0  0  0  0  0  0  0  0
    7.5220   -2.3468    0.6550 O   0  0  0  0  0  0  0  0  0  0  0  0
    6.6112   -3.2747    1.2301 C   0  0  0  0  0  0  0  0  0  0  0  0
   10.2599   -0.7192   -2.5012 H   0  0  0  0  0  0  0  0  0  0  0  0
   11.2991   -0.7086   -1.0717 H   0  0  0  0  0  0  0  0  0  0  0  0
   10.3014    0.7127   -1.3996 H   0  0  0  0  0  0  0  0  0  0  0  0
    8.3281    0.6938   -2.6158 H   0  0  0  0  0  0  0  0  0  0  0  0
    5.9601    0.9252   -3.1667 H   0  0  0  0  0  0  0  0  0  0  0  0
    3.0579    2.1107    0.6383 H   0  0  0  0  0  0  0  0  0  0  0  0
    4.5369    1.7755   -0.2454 H   0  0  0  0  0  0  0  0  0  0  0  0
    3.1266    2.4639   -1.0977 H   0  0  0  0  0  0  0  0  0  0  0  0
    0.9294    0.9297   -2.3789 H   0  0  0  0  0  0  0  0  0  0  0  0
   -1.4634    0.7169   -1.9401 H   0  0  0  0  0  0  0  0  0  0  0  0
   -3.0587    1.5630   -0.7564 H   0  0  0  0  0  0  0  0  0  0  0  0
   -4.9702    2.5700   -1.5008 H   0  0  0  0  0  0  0  0  0  0  0  0
   -7.4094    2.8570   -1.3789 H   0  0  0  0  0  0  0  0  0  0  0  0
   -8.7545    1.4626    0.1645 H   0  0  0  0  0  0  0  0  0  0  0  0
   -6.8636   -2.2317    2.1453 H   0  0  0  0  0  0  0  0  0  0  0  0
   -8.6477   -2.3230    2.1138 H   0  0  0  0  0  0  0  0  0  0  0  0
   -7.7566   -2.1008    0.6124 H   0  0  0  0  0  0  0  0  0  0  0  0
   -7.8945    2.4242    2.8820 H   0  0  0  0  0  0  0  0  0  0  0  0
   -9.5314    1.6673    2.9418 H   0  0  0  0  0  0  0  0  0  0  0  0
   -8.6750    2.0924    4.4491 H   0  0  0  0  0  0  0  0  0  0  0  0
   -5.1913   -0.4958    1.5323 H   0  0  0  0  0  0  0  0  0  0  0  0
   -0.6114   -0.5964    2.0895 H   0  0  0  0  0  0  0  0  0  0  0  0
    1.8068   -0.4247    1.6202 H   0  0  0  0  0  0  0  0  0  0  0  0
    4.9187   -1.9238   -0.1184 H   0  0  0  0  0  0  0  0  0  0  0  0
    5.8514   -2.7586    1.8259 H   0  0  0  0  0  0  0  0  0  0  0  0
    6.1516   -3.9096    0.4650 H   0  0  0  0  0  0  0  0  0  0  0  0
    7.1775   -3.9244    1.9052 H   0  0  0  0  0  0  0  0  0  0  0  0
  1  2  1  0
  2  3  1  0
  3  4  2  0
  4  5  1  0
  5  6  2  0
  6  7  1  0
  7  8  2  0
  7  9  2  0
  7 10  1  0
 10 11  1  0
 10 12  1  0
 12 13  2  0
 13 14  1  0
 14 15  2  0
 15 16  1  0
 16 17  2  0
 16 18  1  0
 18 19  1  0
 19 20  2  0
 20 21  1  0
 21 22  2  0
 22 23  1  0
 23 24  1  0
 24 25  1  0
 24 26  1  0
 26 27  1  0
 26 28  2  0
 26 29  2  0
 23 30  2  0
 15 31  1  0
 31 32  2  0
  6 33  1  0
 33 34  2  0
 34 35  1  0
 35 36  1  0
 34  3  1  0
 32 12  1  0
 30 19  1  0
  1 37  1  0
  1 38  1  0
  1 39  1  0
  4 40  1  0
  5 41  1  0
 11 42  1  0
 11 43  1  0
 11 44  1  0
 13 45  1  0
 14 46  1  0
 18 47  1  0
 20 48  1  0
 21 49  1  0
 22 50  1  0
 25 51  1  0
 25 52  1  0
 25 53  1  0
 27 54  1  0
 27 55  1  0
 27 56  1  0
 30 57  1  0
 31 58  1  0
 32 59  1  0
 33 60  1  0
 36 61  1  0
 36 62  1  0
 36 63  1  0
M  END
$$$$
