
     RDKit          3D

 46 47  0  0  0  0  0  0  0  0999 V2000
    5.7107    1.8503    0.5367 C   0  0  0  0  0  0  0  0  0  0  0  0
    5.6856    0.3589    0.2519 C   0  0  0  0  0  0  0  0  0  0  0  0
    4.5585   -0.2515    0.8776 O   0  0  0  0  0  0  0  0  0  0  0  0
    3.4020   -0.4110    0.1619 C   0  0  0  0  0  0  0  0  0  0  0  0
    3.1239    0.2084   -1.0620 C   0  0  0  0  0  0  0  0  0  0  0  0
    1.9042   -0.0103   -1.7086 C   0  0  0  0  0  0  0  0  0  0  0  0
    0.9570   -0.8481   -1.1223 C   0  0  0  0  0  0  0  0  0  0  0  0
   -0.6044   -1.1279   -1.9180 S   0  0  0  0  0  6  0  0  0  0  0  0
   -0.7045   -0.2457   -3.0623 O   0  0  0  0  0  0  0  0  0  0  0  0
   -0.7631   -2.5599   -2.0541 O   0  0  0  0  0  0  0  0  0  0  0  0
   -1.7250   -0.5724   -0.7537 N   0  0  0  0  0  0  0  0  0  0  0  0
   -1.6925    0.8802   -0.4696 C   0  0  0  0  0  0  0  0  0  0  0  0
   -2.3505    1.1304    0.8967 C   0  0  0  0  0  0  0  0  0  0  0  0
   -2.6899    2.6136    1.0480 C   0  0  0  0  0  0  0  0  0  0  0  0
   -3.5949    0.2474    1.1159 C   0  0  0  0  0  0  0  0  0  0  0  0
   -4.1612   -0.2708   -0.2103 C   0  0  0  0  0  0  0  0  0  0  0  0
   -5.4268   -1.0956    0.0162 C   0  0  0  0  0  0  0  0  0  0  0  0
   -3.1063   -1.0916   -0.9734 C   0  0  0  0  0  0  0  0  0  0  0  0
    1.2157   -1.4727    0.0996 C   0  0  0  0  0  0  0  0  0  0  0  0
    2.4377   -1.2529    0.7523 C   0  0  0  0  0  0  0  0  0  0  0  0
    2.7081   -1.9256    2.0705 C   0  0  0  0  0  0  0  0  0  0  0  0
    4.8317    2.3523    0.1217 H   0  0  0  0  0  0  0  0  0  0  0  0
    5.6989    2.0337    1.6163 H   0  0  0  0  0  0  0  0  0  0  0  0
    6.6079    2.3099    0.1124 H   0  0  0  0  0  0  0  0  0  0  0  0
    5.7497    0.1357   -0.8188 H   0  0  0  0  0  0  0  0  0  0  0  0
    6.5745   -0.0942    0.7057 H   0  0  0  0  0  0  0  0  0  0  0  0
    3.8320    0.8782   -1.5383 H   0  0  0  0  0  0  0  0  0  0  0  0
    1.7045    0.4766   -2.6605 H   0  0  0  0  0  0  0  0  0  0  0  0
   -2.2092    1.4241   -1.2702 H   0  0  0  0  0  0  0  0  0  0  0  0
   -0.6649    1.2553   -0.4326 H   0  0  0  0  0  0  0  0  0  0  0  0
   -1.6270    0.8773    1.6835 H   0  0  0  0  0  0  0  0  0  0  0  0
   -3.0876    2.8212    2.0470 H   0  0  0  0  0  0  0  0  0  0  0  0
   -1.7970    3.2324    0.9092 H   0  0  0  0  0  0  0  0  0  0  0  0
   -3.4391    2.9272    0.3131 H   0  0  0  0  0  0  0  0  0  0  0  0
   -3.3094   -0.6114    1.7387 H   0  0  0  0  0  0  0  0  0  0  0  0
   -4.3644    0.7884    1.6798 H   0  0  0  0  0  0  0  0  0  0  0  0
   -4.4400    0.5960   -0.8248 H   0  0  0  0  0  0  0  0  0  0  0  0
   -5.2268   -1.9688    0.6464 H   0  0  0  0  0  0  0  0  0  0  0  0
   -6.1986   -0.4942    0.5080 H   0  0  0  0  0  0  0  0  0  0  0  0
   -5.8338   -1.4501   -0.9366 H   0  0  0  0  0  0  0  0  0  0  0  0
   -3.3558   -1.0861   -2.0411 H   0  0  0  0  0  0  0  0  0  0  0  0
   -3.1210   -2.1323   -0.6274 H   0  0  0  0  0  0  0  0  0  0  0  0
    0.4648   -2.1268    0.5395 H   0  0  0  0  0  0  0  0  0  0  0  0
    1.8573   -2.5351    2.3927 H   0  0  0  0  0  0  0  0  0  0  0  0
    2.8917   -1.1767    2.8477 H   0  0  0  0  0  0  0  0  0  0  0  0
    3.5775   -2.5859    1.9874 H   0  0  0  0  0  0  0  0  0  0  0  0
  1  2  1  0
  2  3  1  0
  3  4  1  0
  4  5  2  0
  5  6  1  0
  6  7  2  0
  7  8  1  0
  8  9  2  0
  8 10  2  0
  8 11  1  0
 11 12  1  0
 12 13  1  0
 13 14  1  0
 13 15  1  0
 15 16  1  0
 16 17  1  0
 16 18  1  0
  7 19  1  0
 19 20  2  0
 20 21  1  0
 20  4  1  0
 18 11  1  0
  1 22  1  0
  1 23  1  0
  1 24  1  0
  2 25  1  0
  2 26  1  0
  5 27  1  0
  6 28  1  0
 12 29  1  0
 12 30  1  0
 13 31  1  0
 14 32  1  0
 14 33  1  0
 14 34  1  0
 15 35  1  0
 15 36  1  0
 16 37  1  0
 17 38  1  0
 17 39  1  0
 17 40  1  0
 18 41  1  0
 18 42  1  0
 19 43  1  0
 21 44  1  0
 21 45  1  0
 21 46  1  0
M  END
$$$$
