
     RDKit          3D

 54 57  0  0  0  0  0  0  0  0999 V2000
    7.1110   -2.6064    2.0296 C   0  0  0  0  0  0  0  0  0  0  0  0
    7.6824   -2.0662    0.7308 C   0  0  0  0  0  0  0  0  0  0  0  0
    7.4113   -0.6713    0.6053 O   0  0  0  0  0  0  0  0  0  0  0  0
    6.2911   -0.2774   -0.0704 C   0  0  0  0  0  0  0  0  0  0  0  0
    5.2278   -1.0968   -0.4543 C   0  0  0  0  0  0  0  0  0  0  0  0
    4.1317   -0.5548   -1.1352 C   0  0  0  0  0  0  0  0  0  0  0  0
    4.0930    0.8142   -1.4180 C   0  0  0  0  0  0  0  0  0  0  0  0
    2.9538    1.4040   -2.1548 C   0  0  0  0  0  0  0  0  0  0  0  0
    3.1971    2.0226   -3.1877 O   0  0  0  0  0  0  0  0  0  0  0  0
    1.6686    1.2322   -1.6551 N   0  0  0  0  0  0  0  0  0  0  0  0
    0.5480    1.7179   -2.4649 C   0  0  0  0  0  0  0  0  0  0  0  0
   -0.8069    1.1641   -1.9971 C   0  0  0  0  0  0  0  0  0  0  0  0
   -1.0438    1.5045   -0.5833 N   0  0  0  0  0  0  0  0  0  0  0  0
   -2.2966    1.1728   -0.0801 C   0  0  0  0  0  0  0  0  0  0  0  0
   -2.7088    1.5866    1.1792 C   0  0  0  0  0  0  0  0  0  0  0  0
   -3.9851    1.2617    1.6501 C   0  0  0  0  0  0  0  0  0  0  0  0
   -4.8533    0.5294    0.8541 C   0  0  0  0  0  0  0  0  0  0  0  0
   -6.1291    0.2077    1.3739 N   0  0  0  0  0  0  0  0  0  0  0  0
   -7.1023   -0.6668    0.8407 C   0  0  0  0  0  0  0  0  0  0  0  0
   -6.7896   -1.7394    0.0063 C   0  0  0  0  0  0  0  0  0  0  0  0
   -7.8050   -2.5853   -0.4145 C   0  0  0  0  0  0  0  0  0  0  0  0
   -9.0961   -2.4552   -0.0462 N   0  0  0  0  0  0  0  0  0  0  0  0
   -9.3782   -1.4361    0.7880 C   0  0  0  0  0  0  0  0  0  0  0  0
   -8.4310   -0.5392    1.2593 C   0  0  0  0  0  0  0  0  0  0  0  0
   -4.4376    0.1379   -0.3604 N   0  0  0  0  0  0  0  0  0  0  0  0
   -3.1699    0.4709   -0.8287 N   0  0  0  0  0  0  0  0  0  0  0  0
    0.1235    1.4997    0.3131 C   0  0  0  0  0  0  0  0  0  0  0  0
    1.3394    0.7724   -0.2994 C   0  0  0  0  0  0  0  0  0  0  0  0
    5.1590    1.6365   -1.0521 C   0  0  0  0  0  0  0  0  0  0  0  0
    6.2471    1.0890   -0.3694 C   0  0  0  0  0  0  0  0  0  0  0  0
    7.3760   -3.6595    2.1612 H   0  0  0  0  0  0  0  0  0  0  0  0
    6.0214   -2.5154    2.0561 H   0  0  0  0  0  0  0  0  0  0  0  0
    7.4975   -2.0380    2.8825 H   0  0  0  0  0  0  0  0  0  0  0  0
    7.3540   -2.6419   -0.1413 H   0  0  0  0  0  0  0  0  0  0  0  0
    8.7733   -2.1678    0.7636 H   0  0  0  0  0  0  0  0  0  0  0  0
    5.2171   -2.1599   -0.2386 H   0  0  0  0  0  0  0  0  0  0  0  0
    3.3202   -1.2040   -1.4542 H   0  0  0  0  0  0  0  0  0  0  0  0
    0.5524    2.8126   -2.3932 H   0  0  0  0  0  0  0  0  0  0  0  0
    0.7228    1.4536   -3.5139 H   0  0  0  0  0  0  0  0  0  0  0  0
   -1.5922    1.5944   -2.6306 H   0  0  0  0  0  0  0  0  0  0  0  0
   -0.8171    0.0738   -2.1269 H   0  0  0  0  0  0  0  0  0  0  0  0
   -2.0584    2.1874    1.8056 H   0  0  0  0  0  0  0  0  0  0  0  0
   -4.2852    1.5840    2.6419 H   0  0  0  0  0  0  0  0  0  0  0  0
   -6.5476    1.0372    1.7809 H   0  0  0  0  0  0  0  0  0  0  0  0
   -5.7749   -1.9370   -0.3188 H   0  0  0  0  0  0  0  0  0  0  0  0
   -7.5925   -3.4218   -1.0742 H   0  0  0  0  0  0  0  0  0  0  0  0
  -10.4200   -1.3564    1.0846 H   0  0  0  0  0  0  0  0  0  0  0  0
   -8.7382    0.2459    1.9408 H   0  0  0  0  0  0  0  0  0  0  0  0
   -0.0953    1.0206    1.2748 H   0  0  0  0  0  0  0  0  0  0  0  0
    0.3946    2.5425    0.5177 H   0  0  0  0  0  0  0  0  0  0  0  0
    1.1208   -0.2994   -0.3783 H   0  0  0  0  0  0  0  0  0  0  0  0
    2.1984    0.8944    0.3666 H   0  0  0  0  0  0  0  0  0  0  0  0
    5.1456    2.6953   -1.2981 H   0  0  0  0  0  0  0  0  0  0  0  0
    7.0761    1.7302   -0.0781 H   0  0  0  0  0  0  0  0  0  0  0  0
  1  2  1  0
  2  3  1  0
  3  4  1  0
  4  5  2  0
  5  6  1  0
  6  7  2  0
  7  8  1  0
  8  9  2  0
  8 10  1  0
 10 11  1  0
 11 12  1  0
 12 13  1  0
 13 14  1  0
 14 15  2  0
 15 16  1  0
 16 17  2  0
 17 18  1  0
 18 19  1  0
 19 20  2  0
 20 21  1  0
 21 22  2  0
 22 23  1  0
 23 24  2  0
 17 25  1  0
 25 26  2  0
 13 27  1  0
 27 28  1  0
  7 29  1  0
 29 30  2  0
 30  4  1  0
 28 10  1  0
 26 14  1  0
 24 19  1  0
  1 31  1  0
  1 32  1  0
  1 33  1  0
  2 34  1  0
  2 35  1  0
  5 36  1  0
  6 37  1  0
 11 38  1  0
 11 39  1  0
 12 40  1  0
 12 41  1  0
 15 42  1  0
 16 43  1  0
 18 44  1  0
 20 45  1  0
 21 46  1  0
 23 47  1  0
 24 48  1  0
 27 49  1  0
 27 50  1  0
 28 51  1  0
 28 52  1  0
 29 53  1  0
 30 54  1  0
M  END
$$$$
