
     RDKit          3D

 47 48  0  0  0  0  0  0  0  0999 V2000
   -6.1005   -0.5378   -1.1140 C   0  0  0  0  0  0  0  0  0  0  0  0
   -4.9654   -1.5423   -1.2397 C   0  0  0  0  0  0  0  0  0  0  0  0
   -3.7184   -1.0698   -0.5360 C   0  0  0  0  0  0  0  0  0  0  0  0
   -3.5068   -1.3769    0.8149 C   0  0  0  0  0  0  0  0  0  0  0  0
   -2.3626   -0.9224    1.4738 C   0  0  0  0  0  0  0  0  0  0  0  0
   -1.4251   -0.1510    0.7901 C   0  0  0  0  0  0  0  0  0  0  0  0
   -0.2475    0.3073    1.4561 N   0  0  0  0  0  0  0  0  0  0  0  0
    1.0689   -0.2617    1.0467 C   0  0  0  0  0  0  0  0  0  0  0  0
    1.8184   -0.7828    2.2763 C   0  0  0  0  0  0  0  0  0  0  0  0
    1.8949    0.7226    0.1954 C   0  0  0  0  0  0  0  0  0  0  0  0
    1.5316    1.8939    0.0472 O   0  0  0  0  0  0  0  0  0  0  0  0
    3.0266    0.2585   -0.4739 N   0  0  0  0  0  0  0  0  0  0  0  0
    3.9481    1.2577   -1.0308 C   0  0  0  0  0  0  0  0  0  0  0  0
    4.6812    0.7383   -2.2690 C   0  0  0  0  0  0  0  0  0  0  0  0
    5.3253   -0.5146   -1.9991 O   0  0  0  0  0  0  0  0  0  0  0  0
    4.3544   -1.4993   -1.6276 C   0  0  0  0  0  0  0  0  0  0  0  0
    3.5982   -1.0874   -0.3590 C   0  0  0  0  0  0  0  0  0  0  0  0
   -0.3755    1.5678    2.5681 S   0  0  0  0  0  6  0  0  0  0  0  0
   -0.9768    2.9400    1.5980 C   0  0  0  0  0  0  0  0  0  0  0  0
   -1.4236    1.2297    3.5128 O   0  0  0  0  0  0  0  0  0  0  0  0
    0.9440    1.9097    3.0587 O   0  0  0  0  0  0  0  0  0  0  0  0
   -1.6279    0.1644   -0.5548 C   0  0  0  0  0  0  0  0  0  0  0  0
   -2.7717   -0.2904   -1.2140 C   0  0  0  0  0  0  0  0  0  0  0  0
   -6.9909   -0.9062   -1.6331 H   0  0  0  0  0  0  0  0  0  0  0  0
   -5.8270    0.4278   -1.5528 H   0  0  0  0  0  0  0  0  0  0  0  0
   -6.3655   -0.3669   -0.0651 H   0  0  0  0  0  0  0  0  0  0  0  0
   -5.2781   -2.5091   -0.8266 H   0  0  0  0  0  0  0  0  0  0  0  0
   -4.7450   -1.7224   -2.2989 H   0  0  0  0  0  0  0  0  0  0  0  0
   -4.2352   -1.9680    1.3661 H   0  0  0  0  0  0  0  0  0  0  0  0
   -2.2136   -1.1667    2.5229 H   0  0  0  0  0  0  0  0  0  0  0  0
    0.8532   -1.1271    0.4056 H   0  0  0  0  0  0  0  0  0  0  0  0
    2.4956   -0.0307    2.6928 H   0  0  0  0  0  0  0  0  0  0  0  0
    2.4355   -1.6508    2.0272 H   0  0  0  0  0  0  0  0  0  0  0  0
    1.1301   -1.1083    3.0640 H   0  0  0  0  0  0  0  0  0  0  0  0
    4.6727    1.4777   -0.2373 H   0  0  0  0  0  0  0  0  0  0  0  0
    3.4271    2.1885   -1.2750 H   0  0  0  0  0  0  0  0  0  0  0  0
    5.4523    1.4523   -2.5745 H   0  0  0  0  0  0  0  0  0  0  0  0
    3.9903    0.6108   -3.1109 H   0  0  0  0  0  0  0  0  0  0  0  0
    3.6614   -1.6505   -2.4640 H   0  0  0  0  0  0  0  0  0  0  0  0
    4.8811   -2.4435   -1.4572 H   0  0  0  0  0  0  0  0  0  0  0  0
    2.8202   -1.8257   -0.1584 H   0  0  0  0  0  0  0  0  0  0  0  0
    4.2881   -1.0605    0.4922 H   0  0  0  0  0  0  0  0  0  0  0  0
   -1.0856    3.7922    2.2738 H   0  0  0  0  0  0  0  0  0  0  0  0
   -0.2710    3.1977    0.8128 H   0  0  0  0  0  0  0  0  0  0  0  0
   -1.9539    2.6887    1.1826 H   0  0  0  0  0  0  0  0  0  0  0  0
   -0.9081    0.7753   -1.0934 H   0  0  0  0  0  0  0  0  0  0  0  0
   -2.9234   -0.0283   -2.2589 H   0  0  0  0  0  0  0  0  0  0  0  0
  1  2  1  0
  2  3  1  0
  3  4  2  0
  4  5  1  0
  5  6  2  0
  6  7  1  0
  7  8  1  0
  8  9  1  0
  8 10  1  0
 10 11  2  0
 10 12  1  0
 12 13  1  0
 13 14  1  0
 14 15  1  0
 15 16  1  0
 16 17  1  0
  7 18  1  0
 18 19  1  0
 18 20  2  0
 18 21  2  0
  6 22  1  0
 22 23  2  0
 23  3  1  0
 17 12  1  0
  1 24  1  0
  1 25  1  0
  1 26  1  0
  2 27  1  0
  2 28  1  0
  4 29  1  0
  5 30  1  0
  8 31  1  0
  9 32  1  0
  9 33  1  0
  9 34  1  0
 13 35  1  0
 13 36  1  0
 14 37  1  0
 14 38  1  0
 16 39  1  0
 16 40  1  0
 17 41  1  0
 17 42  1  0
 19 43  1  0
 19 44  1  0
 19 45  1  0
 22 46  1  0
 23 47  1  0
M  END
$$$$
