
     RDKit          3D

 42 44  0  0  0  0  0  0  0  0999 V2000
   -3.4516    3.7206    1.1323 C   0  0  0  0  0  0  0  0  0  0  0  0
   -4.0325    2.4548    0.8475 O   0  0  0  0  0  0  0  0  0  0  0  0
   -3.1905    1.4424    0.4679 C   0  0  0  0  0  0  0  0  0  0  0  0
   -1.8083    1.5630    0.3331 C   0  0  0  0  0  0  0  0  0  0  0  0
   -1.0394    0.4519   -0.0400 C   0  0  0  0  0  0  0  0  0  0  0  0
    0.4335    0.6270   -0.1588 C   0  0  0  0  0  0  0  0  0  0  0  0
    0.8559    1.6752   -0.6284 O   0  0  0  0  0  0  0  0  0  0  0  0
    1.1840   -0.4279    0.3285 N   0  0  0  0  0  0  0  0  0  0  0  0
    2.5898   -0.5509    0.3112 C   0  0  0  0  0  0  0  0  0  0  0  0
    3.1364   -1.6806    0.9724 C   0  0  0  0  0  0  0  0  0  0  0  0
    4.5176   -1.9081    1.0155 C   0  0  0  0  0  0  0  0  0  0  0  0
    5.3234   -0.9862    0.3836 C   0  0  0  0  0  0  0  0  0  0  0  0
    4.7998    0.1165   -0.2679 C   0  0  0  0  0  0  0  0  0  0  0  0
    3.4399    0.3626   -0.3240 C   0  0  0  0  0  0  0  0  0  0  0  0
    5.9257    0.8680   -0.8248 C   0  0  0  0  0  0  0  0  0  0  0  0
    5.8471    1.8919   -1.4714 O   0  0  0  0  0  0  0  0  0  0  0  0
    7.0521    0.1869   -0.4759 N   0  0  0  0  0  0  0  0  0  0  0  0
    6.7776   -0.9344    0.2433 C   0  0  0  0  0  0  0  0  0  0  0  0
    7.5562   -1.7511    0.6909 O   0  0  0  0  0  0  0  0  0  0  0  0
   -1.6457   -0.7825   -0.3154 C   0  0  0  0  0  0  0  0  0  0  0  0
   -3.0283   -0.9195   -0.1892 C   0  0  0  0  0  0  0  0  0  0  0  0
   -3.7261   -2.0757   -0.4227 O   0  0  0  0  0  0  0  0  0  0  0  0
   -2.9953   -3.2217   -0.8352 C   0  0  0  0  0  0  0  0  0  0  0  0
   -3.7907    0.1992    0.1966 C   0  0  0  0  0  0  0  0  0  0  0  0
   -5.1493    0.0516    0.3762 O   0  0  0  0  0  0  0  0  0  0  0  0
   -5.8371    0.3799   -0.8301 C   0  0  0  0  0  0  0  0  0  0  0  0
   -2.7544    3.6548    1.9741 H   0  0  0  0  0  0  0  0  0  0  0  0
   -4.2584    4.4010    1.4213 H   0  0  0  0  0  0  0  0  0  0  0  0
   -2.9648    4.1396    0.2456 H   0  0  0  0  0  0  0  0  0  0  0  0
   -1.2972    2.5034    0.5184 H   0  0  0  0  0  0  0  0  0  0  0  0
    0.6814   -1.1558    0.8215 H   0  0  0  0  0  0  0  0  0  0  0  0
    2.4832   -2.3969    1.4676 H   0  0  0  0  0  0  0  0  0  0  0  0
    4.9394   -2.7698    1.5226 H   0  0  0  0  0  0  0  0  0  0  0  0
    3.0836    1.2388   -0.8539 H   0  0  0  0  0  0  0  0  0  0  0  0
    7.9818    0.4775   -0.7322 H   0  0  0  0  0  0  0  0  0  0  0  0
   -1.0307   -1.6105   -0.6492 H   0  0  0  0  0  0  0  0  0  0  0  0
   -3.7070   -4.0416   -0.9720 H   0  0  0  0  0  0  0  0  0  0  0  0
   -2.2768   -3.5287   -0.0681 H   0  0  0  0  0  0  0  0  0  0  0  0
   -2.4988   -3.0480   -1.7955 H   0  0  0  0  0  0  0  0  0  0  0  0
   -6.9073    0.2349   -0.6545 H   0  0  0  0  0  0  0  0  0  0  0  0
   -5.6801    1.4275   -1.1085 H   0  0  0  0  0  0  0  0  0  0  0  0
   -5.5380   -0.2792   -1.6525 H   0  0  0  0  0  0  0  0  0  0  0  0
  1  2  1  0
  2  3  1  0
  3  4  2  0
  4  5  1  0
  5  6  1  0
  6  7  2  0
  6  8  1  0
  8  9  1  0
  9 10  2  0
 10 11  1  0
 11 12  2  0
 12 13  1  0
 13 14  2  0
 13 15  1  0
 15 16  2  0
 15 17  1  0
 17 18  1  0
 18 19  2  0
  5 20  2  0
 20 21  1  0
 21 22  1  0
 22 23  1  0
 21 24  2  0
 24 25  1  0
 25 26  1  0
 24  3  1  0
 14  9  1  0
 18 12  1  0
  1 27  1  0
  1 28  1  0
  1 29  1  0
  4 30  1  0
  8 31  1  0
 10 32  1  0
 11 33  1  0
 14 34  1  0
 17 35  1  0
 20 36  1  0
 23 37  1  0
 23 38  1  0
 23 39  1  0
 26 40  1  0
 26 41  1  0
 26 42  1  0
M  END
$$$$
