
     RDKit          3D

 46 48  0  0  0  0  0  0  0  0999 V2000
   -2.7716    1.8967   -1.2782 C   0  0  0  0  0  0  0  0  0  0  0  0
   -2.0166    1.0700   -0.2399 C   0  0  0  0  0  0  0  0  0  0  0  0
   -0.6512    0.6065   -0.8209 C   0  0  0  0  0  0  0  0  0  0  0  0
   -0.1181    1.1047   -1.8079 O   0  0  0  0  0  0  0  0  0  0  0  0
   -0.0492   -0.3825   -0.0671 N   0  0  0  0  0  0  0  0  0  0  0  0
    1.1737   -1.0419   -0.4761 C   0  0  0  0  0  0  0  0  0  0  0  0
    2.4373   -0.4551    0.1637 C   0  0  0  0  0  0  0  0  0  0  0  0
    2.8109    0.9062   -0.4195 C   0  0  0  0  0  0  0  0  0  0  0  0
    3.9630    1.4450    0.2474 O   0  0  0  0  0  0  0  0  0  0  0  0
    4.9495    0.5053    0.3884 C   0  0  0  0  0  0  0  0  0  0  0  0
    6.2199    0.9746    0.7178 C   0  0  0  0  0  0  0  0  0  0  0  0
    7.2792    0.0763    0.8573 C   0  0  0  0  0  0  0  0  0  0  0  0
    7.0656   -1.2901    0.6697 C   0  0  0  0  0  0  0  0  0  0  0  0
    5.7902   -1.7610    0.3532 C   0  0  0  0  0  0  0  0  0  0  0  0
    4.7300   -0.8648    0.2275 C   0  0  0  0  0  0  0  0  0  0  0  0
    3.5028   -1.3996   -0.0632 O   0  0  0  0  0  0  0  0  0  0  0  0
   -2.7139   -0.1073    0.3385 N   0  0  0  0  0  0  0  0  0  0  0  0
   -3.5519    0.1809    1.5038 C   0  0  0  0  0  0  0  0  0  0  0  0
   -4.9994    0.5496    1.1856 C   0  0  0  0  0  0  0  0  0  0  0  0
   -5.6446   -0.4900    0.2791 C   0  0  0  0  0  0  0  0  0  0  0  0
   -4.7989   -0.7104   -0.9680 C   0  0  0  0  0  0  0  0  0  0  0  0
   -3.3420   -1.0246   -0.6173 C   0  0  0  0  0  0  0  0  0  0  0  0
   -2.1870    2.7819   -1.5554 H   0  0  0  0  0  0  0  0  0  0  0  0
   -2.9435    1.3342   -2.2016 H   0  0  0  0  0  0  0  0  0  0  0  0
   -3.7298    2.2562   -0.8974 H   0  0  0  0  0  0  0  0  0  0  0  0
   -1.7338    1.7462    0.5790 H   0  0  0  0  0  0  0  0  0  0  0  0
   -0.6744   -0.8398    0.5939 H   0  0  0  0  0  0  0  0  0  0  0  0
    1.2555   -1.0332   -1.5696 H   0  0  0  0  0  0  0  0  0  0  0  0
    1.0713   -2.0941   -0.1847 H   0  0  0  0  0  0  0  0  0  0  0  0
    2.2943   -0.3754    1.2505 H   0  0  0  0  0  0  0  0  0  0  0  0
    2.0041    1.6305   -0.2772 H   0  0  0  0  0  0  0  0  0  0  0  0
    3.0313    0.8438   -1.4927 H   0  0  0  0  0  0  0  0  0  0  0  0
    6.3857    2.0395    0.8539 H   0  0  0  0  0  0  0  0  0  0  0  0
    8.2715    0.4431    1.1069 H   0  0  0  0  0  0  0  0  0  0  0  0
    7.8917   -1.9890    0.7732 H   0  0  0  0  0  0  0  0  0  0  0  0
    5.6213   -2.8250    0.2143 H   0  0  0  0  0  0  0  0  0  0  0  0
   -3.1011    0.9577    2.1331 H   0  0  0  0  0  0  0  0  0  0  0  0
   -3.5607   -0.7206    2.1309 H   0  0  0  0  0  0  0  0  0  0  0  0
   -5.0471    1.5367    0.7146 H   0  0  0  0  0  0  0  0  0  0  0  0
   -5.5704    0.6220    2.1186 H   0  0  0  0  0  0  0  0  0  0  0  0
   -5.7495   -1.4369    0.8228 H   0  0  0  0  0  0  0  0  0  0  0  0
   -6.6533   -0.1687   -0.0030 H   0  0  0  0  0  0  0  0  0  0  0  0
   -5.2187   -1.5394   -1.5499 H   0  0  0  0  0  0  0  0  0  0  0  0
   -4.8593    0.1761   -1.6071 H   0  0  0  0  0  0  0  0  0  0  0  0
   -3.3131   -2.0269   -0.1696 H   0  0  0  0  0  0  0  0  0  0  0  0
   -2.7496   -1.1075   -1.5363 H   0  0  0  0  0  0  0  0  0  0  0  0
  1  2  1  0
  2  3  1  0
  3  4  2  0
  3  5  1  0
  5  6  1  0
  6  7  1  0
  7  8  1  0
  8  9  1  0
  9 10  1  0
 10 11  2  0
 11 12  1  0
 12 13  2  0
 13 14  1  0
 14 15  2  0
 15 16  1  0
  2 17  1  0
 17 18  1  0
 18 19  1  0
 19 20  1  0
 20 21  1  0
 21 22  1  0
 16  7  1  0
 22 17  1  0
 15 10  1  0
  1 23  1  0
  1 24  1  0
  1 25  1  0
  2 26  1  0
  5 27  1  0
  6 28  1  0
  6 29  1  0
  7 30  1  0
  8 31  1  0
  8 32  1  0
 11 33  1  0
 12 34  1  0
 13 35  1  0
 14 36  1  0
 18 37  1  0
 18 38  1  0
 19 39  1  0
 19 40  1  0
 20 41  1  0
 20 42  1  0
 21 43  1  0
 21 44  1  0
 22 45  1  0
 22 46  1  0
M  END
$$$$
