
     RDKit          3D

 27 29  0  0  0  0  0  0  0  0999 V2000
    2.9112    2.1675   -1.1154 O   0  0  0  0  0  0  0  0  0  0  0  0
    3.1088    1.1554   -0.4515 C   0  0  0  0  0  0  0  0  0  0  0  0
    4.4699    0.7612    0.0651 C   0  0  0  0  0  0  0  0  0  0  0  0
    4.2780   -0.8997    0.7523 S   0  0  0  0  0  0  0  0  0  0  0  0
    2.5639   -0.9088    0.4695 C   0  0  0  0  0  0  0  0  0  0  0  0
    1.8435   -1.9160    0.7829 N   0  0  0  0  0  0  0  0  0  0  0  0
    0.4182   -1.7617    0.5140 C   0  0  0  0  0  0  0  0  0  0  0  0
   -0.0459   -0.3893    0.3562 N   0  0  0  0  0  0  0  0  0  0  0  0
   -1.4222   -0.1477    0.2375 C   0  0  0  0  0  0  0  0  0  0  0  0
   -2.3726   -1.1666    0.0453 C   0  0  0  0  0  0  0  0  0  0  0  0
   -3.7403   -0.8841   -0.0575 C   0  0  0  0  0  0  0  0  0  0  0  0
   -4.1810    0.4255    0.0459 C   0  0  0  0  0  0  0  0  0  0  0  0
   -5.4889    0.6953   -0.0503 F   0  0  0  0  0  0  0  0  0  0  0  0
   -3.2807    1.4560    0.2580 C   0  0  0  0  0  0  0  0  0  0  0  0
   -1.9158    1.1670    0.3585 C   0  0  0  0  0  0  0  0  0  0  0  0
    0.7961    0.3746   -0.5513 C   0  0  0  0  0  0  0  0  0  0  0  0
    2.1472    0.2427   -0.1048 N   0  0  0  0  0  0  0  0  0  0  0  0
    5.1881    0.7450   -0.7580 H   0  0  0  0  0  0  0  0  0  0  0  0
    4.7860    1.4618    0.8416 H   0  0  0  0  0  0  0  0  0  0  0  0
   -0.1098   -2.2247    1.3566 H   0  0  0  0  0  0  0  0  0  0  0  0
    0.1858   -2.3508   -0.3829 H   0  0  0  0  0  0  0  0  0  0  0  0
   -2.0773   -2.2082   -0.0413 H   0  0  0  0  0  0  0  0  0  0  0  0
   -4.4594   -1.6819   -0.2138 H   0  0  0  0  0  0  0  0  0  0  0  0
   -3.6402    2.4750    0.3576 H   0  0  0  0  0  0  0  0  0  0  0  0
   -1.2386    1.9913    0.5712 H   0  0  0  0  0  0  0  0  0  0  0  0
    0.5456    1.4399   -0.5848 H   0  0  0  0  0  0  0  0  0  0  0  0
    0.7306   -0.0189   -1.5743 H   0  0  0  0  0  0  0  0  0  0  0  0
  1  2  2  0
  2  3  1  0
  3  4  1  0
  4  5  1  0
  5  6  2  0
  6  7  1  0
  7  8  1  0
  8  9  1  0
  9 10  2  0
 10 11  1  0
 11 12  2  0
 12 13  1  0
 12 14  1  0
 14 15  2  0
  8 16  1  0
 16 17  1  0
 17  2  1  0
 17  5  1  0
 15  9  1  0
  3 18  1  0
  3 19  1  0
  7 20  1  0
  7 21  1  0
 10 22  1  0
 11 23  1  0
 14 24  1  0
 15 25  1  0
 16 26  1  0
 16 27  1  0
M  END
$$$$
