
     RDKit          3D

 44 45  0  0  0  0  0  0  0  0999 V2000
   -5.6377    0.0691   -0.4710 C   0  0  0  0  0  0  0  0  0  0  0  0
   -4.4167    0.0891    0.4676 C   0  0  0  0  0  0  0  0  0  0  0  0
   -4.6484   -0.9424    1.5830 C   0  0  0  0  0  0  0  0  0  0  0  0
   -4.2910    1.4987    1.0668 C   0  0  0  0  0  0  0  0  0  0  0  0
   -3.2266   -0.2528   -0.3271 N   0  0  0  0  0  0  0  0  0  0  0  0
   -1.9425   -0.3394    0.1652 C   0  0  0  0  0  0  0  0  0  0  0  0
   -1.6493   -0.1367    1.3385 O   0  0  0  0  0  0  0  0  0  0  0  0
   -0.8609   -0.6985   -0.7968 C   0  0  0  0  0  0  0  0  0  0  0  0
    0.4335   -0.8984   -0.2933 C   0  0  0  0  0  0  0  0  0  0  0  0
    1.4808   -1.2204   -1.1649 C   0  0  0  0  0  0  0  0  0  0  0  0
    3.1113   -1.4578   -0.5012 S   0  0  0  0  0  6  0  0  0  0  0  0
    3.0307   -2.5627    0.4273 O   0  0  0  0  0  0  0  0  0  0  0  0
    4.0529   -1.4560   -1.6009 O   0  0  0  0  0  0  0  0  0  0  0  0
    3.3697   -0.0255    0.3801 N   0  0  0  0  0  0  0  0  0  0  0  0
    3.4854    1.2334   -0.4263 C   0  0  0  0  0  0  0  0  0  0  0  0
    4.9374    1.7164   -0.4852 C   0  0  0  0  0  0  0  0  0  0  0  0
    5.4757    2.0316    0.8067 O   0  0  0  0  0  0  0  0  0  0  0  0
    4.9177    1.2374    1.8639 C   0  0  0  0  0  0  0  0  0  0  0  0
    4.4641   -0.1489    1.3983 C   0  0  0  0  0  0  0  0  0  0  0  0
    1.2584   -1.3510   -2.5377 C   0  0  0  0  0  0  0  0  0  0  0  0
   -0.0279   -1.1573   -3.0391 C   0  0  0  0  0  0  0  0  0  0  0  0
   -1.0741   -0.8338   -2.1724 C   0  0  0  0  0  0  0  0  0  0  0  0
   -2.2923   -0.6538   -2.7060 F   0  0  0  0  0  0  0  0  0  0  0  0
   -5.5191    0.7904   -1.2881 H   0  0  0  0  0  0  0  0  0  0  0  0
   -6.5603    0.3172    0.0654 H   0  0  0  0  0  0  0  0  0  0  0  0
   -5.7688   -0.9193   -0.9269 H   0  0  0  0  0  0  0  0  0  0  0  0
   -5.5837   -0.7425    2.1182 H   0  0  0  0  0  0  0  0  0  0  0  0
   -4.7050   -1.9576    1.1737 H   0  0  0  0  0  0  0  0  0  0  0  0
   -3.8426   -0.9341    2.3238 H   0  0  0  0  0  0  0  0  0  0  0  0
   -3.4757    1.5640    1.7943 H   0  0  0  0  0  0  0  0  0  0  0  0
   -5.2119    1.7923    1.5832 H   0  0  0  0  0  0  0  0  0  0  0  0
   -4.0914    2.2412    0.2856 H   0  0  0  0  0  0  0  0  0  0  0  0
   -3.3694   -0.4263   -1.3162 H   0  0  0  0  0  0  0  0  0  0  0  0
    0.6266   -0.8063    0.7755 H   0  0  0  0  0  0  0  0  0  0  0  0
    3.0964    1.0971   -1.4398 H   0  0  0  0  0  0  0  0  0  0  0  0
    2.8550    1.9865    0.0615 H   0  0  0  0  0  0  0  0  0  0  0  0
    5.5832    0.9592   -0.9443 H   0  0  0  0  0  0  0  0  0  0  0  0
    5.0088    2.6213   -1.0970 H   0  0  0  0  0  0  0  0  0  0  0  0
    5.6821    1.1445    2.6418 H   0  0  0  0  0  0  0  0  0  0  0  0
    4.0776    1.7950    2.2942 H   0  0  0  0  0  0  0  0  0  0  0  0
    5.3166   -0.6817    0.9610 H   0  0  0  0  0  0  0  0  0  0  0  0
    4.0858   -0.7174    2.2540 H   0  0  0  0  0  0  0  0  0  0  0  0
    2.0716   -1.6068   -3.2144 H   0  0  0  0  0  0  0  0  0  0  0  0
   -0.2259   -1.2573   -4.1030 H   0  0  0  0  0  0  0  0  0  0  0  0
  1  2  1  0
  2  3  1  0
  2  4  1  0
  2  5  1  0
  5  6  1  0
  6  7  2  0
  6  8  1  0
  8  9  2  0
  9 10  1  0
 10 11  1  0
 11 12  2  0
 11 13  2  0
 11 14  1  0
 14 15  1  0
 15 16  1  0
 16 17  1  0
 17 18  1  0
 18 19  1  0
 10 20  2  0
 20 21  1  0
 21 22  2  0
 22 23  1  0
 22  8  1  0
 19 14  1  0
  1 24  1  0
  1 25  1  0
  1 26  1  0
  3 27  1  0
  3 28  1  0
  3 29  1  0
  4 30  1  0
  4 31  1  0
  4 32  1  0
  5 33  1  0
  9 34  1  0
 15 35  1  0
 15 36  1  0
 16 37  1  0
 16 38  1  0
 18 39  1  0
 18 40  1  0
 19 41  1  0
 19 42  1  0
 20 43  1  0
 21 44  1  0
M  END
$$$$
