
     RDKit          3D

 42 43  0  0  0  0  0  0  0  0999 V2000
   -4.9485   -2.3916   -4.1434 C   0  0  0  0  0  0  0  0  0  0  0  0
   -4.1022   -2.0456   -2.9530 C   0  0  0  0  0  0  0  0  0  0  0  0
   -3.6444   -3.0537   -2.0937 C   0  0  0  0  0  0  0  0  0  0  0  0
   -2.8352   -2.7383   -1.0010 C   0  0  0  0  0  0  0  0  0  0  0  0
   -2.4593   -1.4104   -0.7814 C   0  0  0  0  0  0  0  0  0  0  0  0
   -1.4516   -1.0055    0.6283 S   0  0  0  0  0  6  0  0  0  0  0  0
   -1.6642   -2.0303    1.6285 O   0  0  0  0  0  0  0  0  0  0  0  0
   -1.6663    0.3926    0.9442 O   0  0  0  0  0  0  0  0  0  0  0  0
    0.1343   -1.1629    0.0348 N   0  0  0  0  0  0  0  0  0  0  0  0
    0.6092   -2.5287   -0.2525 C   0  0  0  0  0  0  0  0  0  0  0  0
    0.6095   -0.1476   -0.9349 C   0  0  0  0  0  0  0  0  0  0  0  0
    1.8742    0.5237   -0.4055 C   0  0  0  0  0  0  0  0  0  0  0  0
    1.6136    1.3126    0.8782 C   0  0  0  0  0  0  0  0  0  0  0  0
    2.8446    2.0619    1.3582 C   0  0  0  0  0  0  0  0  0  0  0  0
    3.8885    2.0702    0.7172 O   0  0  0  0  0  0  0  0  0  0  0  0
    2.5956    2.6993    2.5549 N   0  0  0  0  0  0  0  0  0  0  0  0
    3.5352    3.4506    3.2012 C   0  0  0  0  0  0  0  0  0  0  0  0
    4.7680    3.7225    2.8621 N   0  0  0  0  0  0  0  0  0  0  0  0
    5.3419    4.5244    3.8280 C   0  0  0  0  0  0  0  0  0  0  0  0
    4.5265    4.8505    4.8911 C   0  0  0  0  0  0  0  0  0  0  0  0
    2.9860    4.1264    4.6728 S   0  0  0  0  0  0  0  0  0  0  0  0
   -2.9177   -0.3943   -1.6234 C   0  0  0  0  0  0  0  0  0  0  0  0
   -3.7266   -0.7165   -2.7146 C   0  0  0  0  0  0  0  0  0  0  0  0
   -5.5669   -3.2723   -3.9405 H   0  0  0  0  0  0  0  0  0  0  0  0
   -5.6273   -1.5692   -4.3925 H   0  0  0  0  0  0  0  0  0  0  0  0
   -4.3103   -2.5985   -5.0080 H   0  0  0  0  0  0  0  0  0  0  0  0
   -3.9259   -4.0909   -2.2661 H   0  0  0  0  0  0  0  0  0  0  0  0
   -2.5077   -3.5281   -0.3286 H   0  0  0  0  0  0  0  0  0  0  0  0
    0.3582   -3.2135    0.5620 H   0  0  0  0  0  0  0  0  0  0  0  0
    0.1857   -2.9034   -1.1883 H   0  0  0  0  0  0  0  0  0  0  0  0
    1.7002   -2.5307   -0.3419 H   0  0  0  0  0  0  0  0  0  0  0  0
   -0.1493    0.6180   -1.1236 H   0  0  0  0  0  0  0  0  0  0  0  0
    0.8154   -0.6203   -1.9024 H   0  0  0  0  0  0  0  0  0  0  0  0
    2.2598    1.1993   -1.1792 H   0  0  0  0  0  0  0  0  0  0  0  0
    2.6558   -0.2246   -0.2255 H   0  0  0  0  0  0  0  0  0  0  0  0
    0.8170    2.0469    0.7086 H   0  0  0  0  0  0  0  0  0  0  0  0
    1.2956    0.6358    1.6798 H   0  0  0  0  0  0  0  0  0  0  0  0
    1.6944    2.6180    3.0018 H   0  0  0  0  0  0  0  0  0  0  0  0
    6.3691    4.8454    3.7046 H   0  0  0  0  0  0  0  0  0  0  0  0
    4.7544    5.4579    5.7547 H   0  0  0  0  0  0  0  0  0  0  0  0
   -2.6570    0.6450   -1.4374 H   0  0  0  0  0  0  0  0  0  0  0  0
   -4.0727    0.0775   -3.3736 H   0  0  0  0  0  0  0  0  0  0  0  0
  1  2  1  0
  2  3  2  0
  3  4  1  0
  4  5  2  0
  5  6  1  0
  6  7  2  0
  6  8  2  0
  6  9  1  0
  9 10  1  0
  9 11  1  0
 11 12  1  0
 12 13  1  0
 13 14  1  0
 14 15  2  0
 14 16  1  0
 16 17  1  0
 17 18  2  0
 18 19  1  0
 19 20  2  0
 20 21  1  0
  5 22  1  0
 22 23  2  0
 23  2  1  0
 21 17  1  0
  1 24  1  0
  1 25  1  0
  1 26  1  0
  3 27  1  0
  4 28  1  0
 10 29  1  0
 10 30  1  0
 10 31  1  0
 11 32  1  0
 11 33  1  0
 12 34  1  0
 12 35  1  0
 13 36  1  0
 13 37  1  0
 16 38  1  0
 19 39  1  0
 20 40  1  0
 22 41  1  0
 23 42  1  0
M  END
$$$$
