
     RDKit          3D

 31 33  0  0  0  0  0  0  0  0999 V2000
    5.9565    0.4181    0.6489 N   0  0  0  0  0  0  0  0  0  0  0  0
    5.1835   -0.4982   -0.0091 C   0  0  0  0  0  0  0  0  0  0  0  0
    5.6885   -1.5007   -0.4988 O   0  0  0  0  0  0  0  0  0  0  0  0
    3.7163   -0.2544   -0.0672 C   0  0  0  0  0  0  0  0  0  0  0  0
    3.1556    1.0101    0.1425 C   0  0  0  0  0  0  0  0  0  0  0  0
    1.7676    1.1835    0.0770 C   0  0  0  0  0  0  0  0  0  0  0  0
    0.9201    0.1028   -0.2064 C   0  0  0  0  0  0  0  0  0  0  0  0
   -0.5454    0.2938   -0.2713 C   0  0  0  0  0  0  0  0  0  0  0  0
   -1.3319   -0.4703    0.5059 C   0  0  0  0  0  0  0  0  0  0  0  0
   -2.7770   -0.3178    0.4835 C   0  0  0  0  0  0  0  0  0  0  0  0
   -3.6203   -1.1024    1.2735 C   0  0  0  0  0  0  0  0  0  0  0  0
   -5.0057   -0.9184    1.2148 C   0  0  0  0  0  0  0  0  0  0  0  0
   -5.5527    0.0485    0.3682 C   0  0  0  0  0  0  0  0  0  0  0  0
   -4.7164    0.8346   -0.4218 C   0  0  0  0  0  0  0  0  0  0  0  0
   -3.3390    0.6397   -0.3523 C   0  0  0  0  0  0  0  0  0  0  0  0
   -2.5275    1.4526   -1.1612 O   0  0  0  0  0  0  0  0  0  0  0  0
   -1.1406    1.3364   -1.1617 C   0  0  0  0  0  0  0  0  0  0  0  0
   -0.4515    2.0685   -1.8652 O   0  0  0  0  0  0  0  0  0  0  0  0
    1.4921   -1.1576   -0.4361 C   0  0  0  0  0  0  0  0  0  0  0  0
    2.8778   -1.3342   -0.3679 C   0  0  0  0  0  0  0  0  0  0  0  0
    6.9297    0.1674    0.7704 H   0  0  0  0  0  0  0  0  0  0  0  0
    5.5716    1.1034    1.2815 H   0  0  0  0  0  0  0  0  0  0  0  0
    3.7775    1.8806    0.3272 H   0  0  0  0  0  0  0  0  0  0  0  0
    1.3560    2.1797    0.2331 H   0  0  0  0  0  0  0  0  0  0  0  0
   -0.9185   -1.2177    1.1768 H   0  0  0  0  0  0  0  0  0  0  0  0
   -3.2146   -1.8607    1.9387 H   0  0  0  0  0  0  0  0  0  0  0  0
   -5.6603   -1.5310    1.8306 H   0  0  0  0  0  0  0  0  0  0  0  0
   -6.6302    0.1878    0.3254 H   0  0  0  0  0  0  0  0  0  0  0  0
   -5.1322    1.5891   -1.0831 H   0  0  0  0  0  0  0  0  0  0  0  0
    0.8682   -2.0142   -0.6842 H   0  0  0  0  0  0  0  0  0  0  0  0
    3.3028   -2.3189   -0.5557 H   0  0  0  0  0  0  0  0  0  0  0  0
  1  2  1  0
  2  3  2  0
  2  4  1  0
  4  5  2  0
  5  6  1  0
  6  7  2  0
  7  8  1  0
  8  9  2  0
  9 10  1  0
 10 11  2  0
 11 12  1  0
 12 13  2  0
 13 14  1  0
 14 15  2  0
 15 16  1  0
 16 17  1  0
 17 18  2  0
  7 19  1  0
 19 20  2  0
 20  4  1  0
 17  8  1  0
 15 10  1  0
  1 21  1  0
  1 22  1  0
  5 23  1  0
  6 24  1  0
  9 25  1  0
 11 26  1  0
 12 27  1  0
 13 28  1  0
 14 29  1  0
 19 30  1  0
 20 31  1  0
M  END
$$$$
