
     RDKit          3D

 39 41  0  0  0  0  0  0  0  0999 V2000
    5.7254    2.1952    0.0795 C   0  0  0  0  0  0  0  0  0  0  0  0
    5.0586    0.8445   -0.0045 C   0  0  0  0  0  0  0  0  0  0  0  0
    5.7267   -0.1774   -0.1144 O   0  0  0  0  0  0  0  0  0  0  0  0
    3.6797    0.9401    0.0257 N   0  0  0  0  0  0  0  0  0  0  0  0
    2.7413   -0.1132   -0.0210 C   0  0  0  0  0  0  0  0  0  0  0  0
    3.0855   -1.4571   -0.0855 C   0  0  0  0  0  0  0  0  0  0  0  0
    2.0877   -2.4297   -0.1262 C   0  0  0  0  0  0  0  0  0  0  0  0
    0.7288   -2.0748   -0.0884 C   0  0  0  0  0  0  0  0  0  0  0  0
    0.3535   -0.7174   -0.0282 C   0  0  0  0  0  0  0  0  0  0  0  0
    1.3817    0.2415   -0.0017 C   0  0  0  0  0  0  0  0  0  0  0  0
   -1.0437   -0.3465   -0.0361 N   0  0  0  0  0  0  0  0  0  0  0  0
   -1.4788    0.9720    0.1967 C   0  0  0  0  0  0  0  0  0  0  0  0
   -0.8392    1.8637    0.7510 O   0  0  0  0  0  0  0  0  0  0  0  0
   -2.8359    1.3519   -0.2416 C   0  0  0  0  0  0  0  0  0  0  0  0
   -3.7278    1.9425    0.6531 C   0  0  0  0  0  0  0  0  0  0  0  0
   -4.9928    2.3107    0.2025 C   0  0  0  0  0  0  0  0  0  0  0  0
   -5.3096    2.0835   -1.1293 C   0  0  0  0  0  0  0  0  0  0  0  0
   -4.4573    1.5321   -2.0237 N   0  0  0  0  0  0  0  0  0  0  0  0
   -3.2289    1.1947   -1.5632 C   0  0  0  0  0  0  0  0  0  0  0  0
   -2.0159   -1.4282   -0.2654 C   0  0  0  0  0  0  0  0  0  0  0  0
   -1.6175   -2.7282    0.4079 C   0  0  0  0  0  0  0  0  0  0  0  0
   -0.2855   -3.1846   -0.1488 C   0  0  0  0  0  0  0  0  0  0  0  0
    5.1805    2.8599    0.7559 H   0  0  0  0  0  0  0  0  0  0  0  0
    5.7687    2.6401   -0.9180 H   0  0  0  0  0  0  0  0  0  0  0  0
    6.7407    2.0751    0.4686 H   0  0  0  0  0  0  0  0  0  0  0  0
    3.2880    1.8719    0.0940 H   0  0  0  0  0  0  0  0  0  0  0  0
    4.1197   -1.7852   -0.1067 H   0  0  0  0  0  0  0  0  0  0  0  0
    2.3811   -3.4763   -0.1827 H   0  0  0  0  0  0  0  0  0  0  0  0
    1.1433    1.2990    0.0122 H   0  0  0  0  0  0  0  0  0  0  0  0
   -3.4368    2.1171    1.6857 H   0  0  0  0  0  0  0  0  0  0  0  0
   -5.7124    2.7701    0.8714 H   0  0  0  0  0  0  0  0  0  0  0  0
   -6.2847    2.3543   -1.5258 H   0  0  0  0  0  0  0  0  0  0  0  0
   -2.5548    0.7887   -2.3122 H   0  0  0  0  0  0  0  0  0  0  0  0
   -2.9979   -1.1406    0.1234 H   0  0  0  0  0  0  0  0  0  0  0  0
   -2.1119   -1.5643   -1.3496 H   0  0  0  0  0  0  0  0  0  0  0  0
   -2.3792   -3.4964    0.2355 H   0  0  0  0  0  0  0  0  0  0  0  0
   -1.5429   -2.5774    1.4925 H   0  0  0  0  0  0  0  0  0  0  0  0
   -0.3986   -3.5000   -1.1933 H   0  0  0  0  0  0  0  0  0  0  0  0
    0.0612   -4.0511    0.4268 H   0  0  0  0  0  0  0  0  0  0  0  0
  1  2  1  0
  2  3  2  0
  2  4  1  0
  4  5  1  0
  5  6  2  0
  6  7  1  0
  7  8  2  0
  8  9  1  0
  9 10  2  0
  9 11  1  0
 11 12  1  0
 12 13  2  0
 12 14  1  0
 14 15  2  0
 15 16  1  0
 16 17  2  0
 17 18  1  0
 18 19  2  0
 11 20  1  0
 20 21  1  0
 21 22  1  0
 10  5  1  0
 19 14  1  0
 22  8  1  0
  1 23  1  0
  1 24  1  0
  1 25  1  0
  4 26  1  0
  6 27  1  0
  7 28  1  0
 10 29  1  0
 15 30  1  0
 16 31  1  0
 17 32  1  0
 19 33  1  0
 20 34  1  0
 20 35  1  0
 21 36  1  0
 21 37  1  0
 22 38  1  0
 22 39  1  0
M  END
$$$$
