
     RDKit          3D

 54 56  0  0  0  0  0  0  0  0999 V2000
   -6.9735   -2.0025   -0.3167 C   0  0  0  0  0  0  0  0  0  0  0  0
   -6.4810   -0.8846    0.5862 C   0  0  0  0  0  0  0  0  0  0  0  0
   -5.6704    0.1388   -0.1309 N   0  0  0  0  0  0  0  0  0  0  0  0
   -4.2842   -0.1732   -0.3386 C   0  0  0  0  0  0  0  0  0  0  0  0
   -3.3904    0.1635    0.6833 C   0  0  0  0  0  0  0  0  0  0  0  0
   -2.0337   -0.1560    0.5740 C   0  0  0  0  0  0  0  0  0  0  0  0
   -1.5641   -0.8295   -0.5614 C   0  0  0  0  0  0  0  0  0  0  0  0
   -0.1306   -1.2114   -0.7217 C   0  0  0  0  0  0  0  0  0  0  0  0
    0.1275   -2.2557   -1.3065 O   0  0  0  0  0  0  0  0  0  0  0  0
    0.7768   -0.3292   -0.1816 N   0  0  0  0  0  0  0  0  0  0  0  0
    2.1422   -0.4155   -0.1100 C   0  0  0  0  0  0  0  0  0  0  0  0
    3.0889   -1.2303   -0.6069 C   0  0  0  0  0  0  0  0  0  0  0  0
    2.9267   -2.3771   -1.5513 C   0  0  0  0  0  0  0  0  0  0  0  0
    4.3840   -0.8905   -0.1616 N   0  0  0  0  0  0  0  0  0  0  0  0
    5.1530   -1.9408    0.5328 C   0  0  0  0  0  0  0  0  0  0  0  0
    4.2324    0.2961    0.6133 N   0  0  0  0  0  0  0  0  0  0  0  0
    5.3068    1.2063    0.7988 C   0  0  0  0  0  0  0  0  0  0  0  0
    5.1750    2.3103    1.6540 C   0  0  0  0  0  0  0  0  0  0  0  0
    6.2332    3.2065    1.8424 C   0  0  0  0  0  0  0  0  0  0  0  0
    7.4392    3.0152    1.1742 C   0  0  0  0  0  0  0  0  0  0  0  0
    7.5881    1.9294    0.3162 C   0  0  0  0  0  0  0  0  0  0  0  0
    6.5292    1.0338    0.1300 C   0  0  0  0  0  0  0  0  0  0  0  0
    2.8776    0.6116    0.6995 C   0  0  0  0  0  0  0  0  0  0  0  0
    2.2925    1.5414    1.2422 O   0  0  0  0  0  0  0  0  0  0  0  0
   -2.4693   -1.2072   -1.5624 C   0  0  0  0  0  0  0  0  0  0  0  0
   -3.8250   -0.8848   -1.4486 C   0  0  0  0  0  0  0  0  0  0  0  0
   -6.4799    1.0643   -1.3071 S   0  0  0  0  0  6  0  0  0  0  0  0
   -5.5227    2.5675   -1.3080 C   0  0  0  0  0  0  0  0  0  0  0  0
   -7.7899    1.3934   -0.7809 O   0  0  0  0  0  0  0  0  0  0  0  0
   -6.3455    0.4317   -2.6026 O   0  0  0  0  0  0  0  0  0  0  0  0
   -7.5496   -2.7274    0.2659 H   0  0  0  0  0  0  0  0  0  0  0  0
   -6.1432   -2.5379   -0.7844 H   0  0  0  0  0  0  0  0  0  0  0  0
   -7.6219   -1.6256   -1.1137 H   0  0  0  0  0  0  0  0  0  0  0  0
   -5.8866   -1.3131    1.4031 H   0  0  0  0  0  0  0  0  0  0  0  0
   -7.3320   -0.3915    1.0703 H   0  0  0  0  0  0  0  0  0  0  0  0
   -3.7495    0.6744    1.5741 H   0  0  0  0  0  0  0  0  0  0  0  0
   -1.3719    0.0968    1.3987 H   0  0  0  0  0  0  0  0  0  0  0  0
    0.4206    0.5082    0.2711 H   0  0  0  0  0  0  0  0  0  0  0  0
    3.8885   -2.6660   -1.9929 H   0  0  0  0  0  0  0  0  0  0  0  0
    2.2831   -2.1039   -2.3914 H   0  0  0  0  0  0  0  0  0  0  0  0
    2.5221   -3.2535   -1.0352 H   0  0  0  0  0  0  0  0  0  0  0  0
    5.3813   -2.7640   -0.1513 H   0  0  0  0  0  0  0  0  0  0  0  0
    6.1086   -1.5686    0.9130 H   0  0  0  0  0  0  0  0  0  0  0  0
    4.5861   -2.3395    1.3821 H   0  0  0  0  0  0  0  0  0  0  0  0
    4.2546    2.4860    2.2046 H   0  0  0  0  0  0  0  0  0  0  0  0
    6.1107    4.0528    2.5152 H   0  0  0  0  0  0  0  0  0  0  0  0
    8.2589    3.7145    1.3174 H   0  0  0  0  0  0  0  0  0  0  0  0
    8.5232    1.7820   -0.2174 H   0  0  0  0  0  0  0  0  0  0  0  0
    6.6663    0.2159   -0.5727 H   0  0  0  0  0  0  0  0  0  0  0  0
   -2.1228   -1.7617   -2.4344 H   0  0  0  0  0  0  0  0  0  0  0  0
   -4.5079   -1.2087   -2.2316 H   0  0  0  0  0  0  0  0  0  0  0  0
   -5.4879    2.9686   -0.2929 H   0  0  0  0  0  0  0  0  0  0  0  0
   -4.5212    2.3600   -1.6877 H   0  0  0  0  0  0  0  0  0  0  0  0
   -6.0224    3.2807   -1.9678 H   0  0  0  0  0  0  0  0  0  0  0  0
  1  2  1  0
  2  3  1  0
  3  4  1  0
  4  5  2  0
  5  6  1  0
  6  7  2  0
  7  8  1  0
  8  9  2  0
  8 10  1  0
 10 11  1  0
 11 12  2  0
 12 13  1  0
 12 14  1  0
 14 15  1  0
 14 16  1  0
 16 17  1  0
 17 18  2  0
 18 19  1  0
 19 20  2  0
 20 21  1  0
 21 22  2  0
 16 23  1  0
 23 24  2  0
  7 25  1  0
 25 26  2  0
  3 27  1  0
 27 28  1  0
 27 29  2  0
 27 30  2  0
 26  4  1  0
 23 11  1  0
 22 17  1  0
  1 31  1  0
  1 32  1  0
  1 33  1  0
  2 34  1  0
  2 35  1  0
  5 36  1  0
  6 37  1  0
 10 38  1  0
 13 39  1  0
 13 40  1  0
 13 41  1  0
 15 42  1  0
 15 43  1  0
 15 44  1  0
 18 45  1  0
 19 46  1  0
 20 47  1  0
 21 48  1  0
 22 49  1  0
 25 50  1  0
 26 51  1  0
 28 52  1  0
 28 53  1  0
 28 54  1  0
M  END
$$$$
