
     RDKit          3D

 60 63  0  0  0  0  0  0  0  0999 V2000
    6.5850   -1.0541   -1.4117 C   0  0  0  0  0  0  0  0  0  0  0  0
    5.6396   -0.7009   -0.3546 N   0  0  0  0  0  0  0  0  0  0  0  0
    4.5865    0.2140   -0.8430 C   0  0  0  0  0  0  0  0  0  0  0  0
    4.7878    1.6971   -0.4762 C   0  0  0  0  0  0  0  0  0  0  0  0
    4.9284    1.8873    0.9946 N   0  0  0  0  0  0  0  0  0  0  0  0
    3.7973    2.8553    1.7942 S   0  0  0  0  0  6  0  0  0  0  0  0
    4.2163    2.9792    3.1749 O   0  0  0  0  0  0  0  0  0  0  0  0
    3.5489    4.0275    0.9836 O   0  0  0  0  0  0  0  0  0  0  0  0
    2.3139    1.8680    1.7780 C   0  0  0  0  0  0  0  0  0  0  0  0
    2.0023    1.0712    2.8819 C   0  0  0  0  0  0  0  0  0  0  0  0
    0.8228    0.3305    2.8829 C   0  0  0  0  0  0  0  0  0  0  0  0
   -0.0475    0.3902    1.7890 C   0  0  0  0  0  0  0  0  0  0  0  0
    0.2564    1.1944    0.6792 C   0  0  0  0  0  0  0  0  0  0  0  0
   -0.6323    1.3102   -0.5242 C   0  0  0  0  0  0  0  0  0  0  0  0
   -0.4460    2.2514   -1.2884 O   0  0  0  0  0  0  0  0  0  0  0  0
   -1.5880    0.3260   -0.6746 N   0  0  0  0  0  0  0  0  0  0  0  0
   -2.5284    0.1646   -1.7256 C   0  0  0  0  0  0  0  0  0  0  0  0
   -2.5361    0.9685   -2.8700 C   0  0  0  0  0  0  0  0  0  0  0  0
   -3.4357    0.7199   -3.9133 C   0  0  0  0  0  0  0  0  0  0  0  0
   -4.3333   -0.3414   -3.8338 C   0  0  0  0  0  0  0  0  0  0  0  0
   -4.3558   -1.1422   -2.6947 C   0  0  0  0  0  0  0  0  0  0  0  0
   -3.4863   -0.8693   -1.6289 C   0  0  0  0  0  0  0  0  0  0  0  0
   -3.5592   -1.6988   -0.3988 C   0  0  0  0  0  0  0  0  0  0  0  0
   -2.5092   -2.1680    0.0419 O   0  0  0  0  0  0  0  0  0  0  0  0
   -4.7749   -1.8491    0.2477 N   0  0  0  0  0  0  0  0  0  0  0  0
   -4.8540   -2.6042    1.4896 C   0  0  0  0  0  0  0  0  0  0  0  0
   -6.0637   -2.0329    2.2156 C   0  0  0  0  0  0  0  0  0  0  0  0
   -6.9659   -1.5845    1.0755 C   0  0  0  0  0  0  0  0  0  0  0  0
   -5.9758   -1.0426    0.0540 C   0  0  0  0  0  0  0  0  0  0  0  0
    1.4367    1.9525    0.6922 C   0  0  0  0  0  0  0  0  0  0  0  0
    5.4428    0.6970    1.7253 C   0  0  0  0  0  0  0  0  0  0  0  0
    6.3553   -0.1413    0.8125 C   0  0  0  0  0  0  0  0  0  0  0  0
    6.0693   -1.5690   -2.2299 H   0  0  0  0  0  0  0  0  0  0  0  0
    7.0928   -0.1741   -1.8231 H   0  0  0  0  0  0  0  0  0  0  0  0
    7.3436   -1.7485   -1.0336 H   0  0  0  0  0  0  0  0  0  0  0  0
    4.4488    0.1197   -1.9274 H   0  0  0  0  0  0  0  0  0  0  0  0
    3.6419   -0.1238   -0.3969 H   0  0  0  0  0  0  0  0  0  0  0  0
    5.6980    2.0818   -0.9523 H   0  0  0  0  0  0  0  0  0  0  0  0
    3.9574    2.2829   -0.8796 H   0  0  0  0  0  0  0  0  0  0  0  0
    2.6652    1.0302    3.7439 H   0  0  0  0  0  0  0  0  0  0  0  0
    0.5713   -0.2878    3.7421 H   0  0  0  0  0  0  0  0  0  0  0  0
   -0.9672   -0.1846    1.8494 H   0  0  0  0  0  0  0  0  0  0  0  0
   -1.5801   -0.4532   -0.0204 H   0  0  0  0  0  0  0  0  0  0  0  0
   -1.8339    1.7869   -2.9972 H   0  0  0  0  0  0  0  0  0  0  0  0
   -3.4152    1.3505   -4.7997 H   0  0  0  0  0  0  0  0  0  0  0  0
   -5.0109   -0.5439   -4.6594 H   0  0  0  0  0  0  0  0  0  0  0  0
   -5.0449   -1.9813   -2.6433 H   0  0  0  0  0  0  0  0  0  0  0  0
   -5.0087   -3.6563    1.2249 H   0  0  0  0  0  0  0  0  0  0  0  0
   -3.9368   -2.5169    2.0800 H   0  0  0  0  0  0  0  0  0  0  0  0
   -5.7650   -1.1642    2.8151 H   0  0  0  0  0  0  0  0  0  0  0  0
   -6.5401   -2.7603    2.8790 H   0  0  0  0  0  0  0  0  0  0  0  0
   -7.7062   -0.8401    1.3811 H   0  0  0  0  0  0  0  0  0  0  0  0
   -7.4975   -2.4502    0.6618 H   0  0  0  0  0  0  0  0  0  0  0  0
   -6.3648   -1.1282   -0.9619 H   0  0  0  0  0  0  0  0  0  0  0  0
   -5.7204    0.0037    0.2566 H   0  0  0  0  0  0  0  0  0  0  0  0
    1.6654    2.6122   -0.1434 H   0  0  0  0  0  0  0  0  0  0  0  0
    6.0226    1.0351    2.5909 H   0  0  0  0  0  0  0  0  0  0  0  0
    4.6150    0.0759    2.0829 H   0  0  0  0  0  0  0  0  0  0  0  0
    6.7836   -0.9673    1.3910 H   0  0  0  0  0  0  0  0  0  0  0  0
    7.1889    0.4949    0.4849 H   0  0  0  0  0  0  0  0  0  0  0  0
  1  2  1  0
  2  3  1  0
  3  4  1  0
  4  5  1  0
  5  6  1  0
  6  7  2  0
  6  8  2  0
  6  9  1  0
  9 10  2  0
 10 11  1  0
 11 12  2  0
 12 13  1  0
 13 14  1  0
 14 15  2  0
 14 16  1  0
 16 17  1  0
 17 18  2  0
 18 19  1  0
 19 20  2  0
 20 21  1  0
 21 22  2  0
 22 23  1  0
 23 24  2  0
 23 25  1  0
 25 26  1  0
 26 27  1  0
 27 28  1  0
 28 29  1  0
 13 30  2  0
  5 31  1  0
 31 32  1  0
 32  2  1  0
 30  9  1  0
 22 17  1  0
 29 25  1  0
  1 33  1  0
  1 34  1  0
  1 35  1  0
  3 36  1  0
  3 37  1  0
  4 38  1  0
  4 39  1  0
 10 40  1  0
 11 41  1  0
 12 42  1  0
 16 43  1  0
 18 44  1  0
 19 45  1  0
 20 46  1  0
 21 47  1  0
 26 48  1  0
 26 49  1  0
 27 50  1  0
 27 51  1  0
 28 52  1  0
 28 53  1  0
 29 54  1  0
 29 55  1  0
 30 56  1  0
 31 57  1  0
 31 58  1  0
 32 59  1  0
 32 60  1  0
M  END
$$$$
