
     RDKit          3D

 30 32  0  0  0  0  0  0  0  0999 V2000
   -1.8862    1.0542    4.9642 N   0  0  0  0  0  0  0  0  0  0  0  0
   -1.1336   -0.0487    4.6470 C   0  0  0  0  0  0  0  0  0  0  0  0
   -1.0135   -0.9288    5.4939 O   0  0  0  0  0  0  0  0  0  0  0  0
   -0.5801   -0.1003    3.3144 C   0  0  0  0  0  0  0  0  0  0  0  0
   -0.6047    1.2350    2.2433 S   0  0  0  0  0  0  0  0  0  0  0  0
   -0.0135    0.3012    0.9460 C   0  0  0  0  0  0  0  0  0  0  0  0
    0.1096    0.8496   -0.2830 N   0  0  0  0  0  0  0  0  0  0  0  0
    0.5647    0.0182   -1.2363 C   0  0  0  0  0  0  0  0  0  0  0  0
    0.4962    0.5523   -2.6110 C   0  0  0  0  0  0  0  0  0  0  0  0
   -0.1659   -0.1734   -3.6229 C   0  0  0  0  0  0  0  0  0  0  0  0
   -0.3026    0.3490   -4.9179 C   0  0  0  0  0  0  0  0  0  0  0  0
    0.2202    1.6017   -5.2235 C   0  0  0  0  0  0  0  0  0  0  0  0
    0.8889    2.3298   -4.2367 C   0  0  0  0  0  0  0  0  0  0  0  0
    1.0201    1.8103   -2.9492 C   0  0  0  0  0  0  0  0  0  0  0  0
    1.6577    2.5525   -2.0251 F   0  0  0  0  0  0  0  0  0  0  0  0
    0.9480   -1.2964   -0.9828 C   0  0  0  0  0  0  0  0  0  0  0  0
    0.8026   -1.8254    0.3012 C   0  0  0  0  0  0  0  0  0  0  0  0
    0.2621   -1.0079    1.3100 C   0  0  0  0  0  0  0  0  0  0  0  0
   -0.0557   -1.2382    2.6816 C   0  0  0  0  0  0  0  0  0  0  0  0
    0.0556   -2.4357    3.2915 N   0  0  0  0  0  0  0  0  0  0  0  0
   -2.1702    1.1213    5.9322 H   0  0  0  0  0  0  0  0  0  0  0  0
   -1.7749    1.9041    4.4306 H   0  0  0  0  0  0  0  0  0  0  0  0
   -0.6389   -1.1373   -3.4010 H   0  0  0  0  0  0  0  0  0  0  0  0
   -0.8450   -0.2295   -5.6684 H   0  0  0  0  0  0  0  0  0  0  0  0
    0.1058    2.0189   -6.2246 H   0  0  0  0  0  0  0  0  0  0  0  0
    1.3107    3.3066   -4.4555 H   0  0  0  0  0  0  0  0  0  0  0  0
    1.3639   -1.9142   -1.7800 H   0  0  0  0  0  0  0  0  0  0  0  0
    1.0857   -2.8519    0.5159 H   0  0  0  0  0  0  0  0  0  0  0  0
   -0.1711   -2.5462    4.2828 H   0  0  0  0  0  0  0  0  0  0  0  0
    0.4642   -3.2708    2.8730 H   0  0  0  0  0  0  0  0  0  0  0  0
  1  2  1  0
  2  3  2  0
  2  4  1  0
  4  5  1  0
  5  6  1  0
  6  7  2  0
  7  8  1  0
  8  9  1  0
  9 10  2  0
 10 11  1  0
 11 12  2  0
 12 13  1  0
 13 14  2  0
 14 15  1  0
  8 16  2  0
 16 17  1  0
 17 18  2  0
 18 19  1  0
 19 20  1  0
 19  4  2  0
 18  6  1  0
 14  9  1  0
  1 21  1  0
  1 22  1  0
 10 23  1  0
 11 24  1  0
 12 25  1  0
 13 26  1  0
 16 27  1  0
 17 28  1  0
 20 29  1  0
 20 30  1  0
M  END
$$$$
