
     RDKit          3D

 26 26  0  0  0  0  0  0  0  0999 V2000
    1.9101    1.9954    1.4838 C   0  0  0  0  0  0  0  0  0  0  0  0
    0.6663    1.3318    1.1022 C   0  0  0  0  0  0  0  0  0  0  0  0
   -0.8895    1.4258    2.0379 S   0  0  0  0  0  0  0  0  0  0  0  0
   -1.7917    0.4097    0.9441 C   0  0  0  0  0  0  0  0  0  0  0  0
   -3.1231   -0.0199    0.9657 C   0  0  0  0  0  0  0  0  0  0  0  0
   -3.6010   -0.8323   -0.0322 C   0  0  0  0  0  0  0  0  0  0  0  0
   -2.7113   -1.1814   -1.0186 C   0  0  0  0  0  0  0  0  0  0  0  0
   -3.3227   -2.2356   -2.3179 Cl  0  0  0  0  0  0  0  0  0  0  0  0
   -1.4231   -0.7536   -1.0210 C   0  0  0  0  0  0  0  0  0  0  0  0
   -0.8898    0.0826   -0.0150 C   0  0  0  0  0  0  0  0  0  0  0  0
    0.3307    0.5604    0.0940 N   0  0  0  0  0  4  0  0  0  0  0  0
    1.4027    0.2571   -0.9120 C   0  0  0  0  0  0  0  0  0  0  0  0
    2.1474   -0.9739   -0.5069 C   0  0  0  0  0  0  0  0  0  0  0  0
    3.1185   -1.2341   -1.4339 O   0  0  0  0  0  0  0  0  0  0  0  0
    0.0000    0.0000    0.0000 I   0  0  0  0  0 15  0  0  0  0  0  0
    2.3011    2.5302    0.5885 H   0  0  0  0  0  0  0  0  0  0  0  0
    2.7030    1.3488    1.8498 H   0  0  0  0  0  0  0  0  0  0  0  0
    1.6827    2.7551    2.2561 H   0  0  0  0  0  0  0  0  0  0  0  0
   -3.7124    0.3199    1.7850 H   0  0  0  0  0  0  0  0  0  0  0  0
   -4.6264   -1.1738   -0.0318 H   0  0  0  0  0  0  0  0  0  0  0  0
   -0.8104   -1.0987   -1.8603 H   0  0  0  0  0  0  0  0  0  0  0  0
    0.9145    0.0587   -1.8778 H   0  0  0  0  0  0  0  0  0  0  0  0
    2.0965    1.0891   -0.9970 H   0  0  0  0  0  0  0  0  0  0  0  0
    2.5454   -0.8406    0.5370 H   0  0  0  0  0  0  0  0  0  0  0  0
    1.4077   -1.8117   -0.4360 H   0  0  0  0  0  0  0  0  0  0  0  0
    3.6747   -2.0088   -1.1837 H   0  0  0  0  0  0  0  0  0  0  0  0
  1  2  1  0
  2  3  1  0
  3  4  1  0
  4  5  2  0
  5  6  1  0
  6  7  2  0
  7  8  1  0
  7  9  1  0
  9 10  2  0
 10 11  1  0
 11 12  1  0
 12 13  1  0
 13 14  1  0
 11  2  2  0
 10  4  1  0
  1 16  1  0
  1 17  1  0
  1 18  1  0
  5 19  1  0
  6 20  1  0
  9 21  1  0
 12 22  1  0
 12 23  1  0
 13 24  1  0
 13 25  1  0
 14 26  1  0
M  CHG  2  11   1  15  -1
M  END
$$$$
