
     RDKit          3D

 36 38  0  0  0  0  0  0  0  0999 V2000
    7.0420   -0.8810    0.2829 C   0  0  0  0  0  0  0  0  0  0  0  0
    5.5740   -0.6192    0.1691 C   0  0  0  0  0  0  0  0  0  0  0  0
    4.6419   -1.4855    0.5875 C   0  0  0  0  0  0  0  0  0  0  0  0
    3.2150   -1.1424    0.4347 C   0  0  0  0  0  0  0  0  0  0  0  0
    2.3442   -1.9208    0.8109 O   0  0  0  0  0  0  0  0  0  0  0  0
    2.8905    0.1758   -0.1893 C   0  0  0  0  0  0  0  0  0  0  0  0
    1.5547    0.4754   -0.3220 O   0  0  0  0  0  0  0  0  0  0  0  0
    1.1998    1.7214   -0.9115 C   0  0  0  0  0  0  0  0  0  0  0  0
   -0.3228    1.8817   -0.9766 C   0  0  0  0  0  0  0  0  0  0  0  0
   -0.8171    2.8984   -1.4562 O   0  0  0  0  0  0  0  0  0  0  0  0
   -0.9998    0.7945   -0.4551 N   0  0  0  0  0  0  0  0  0  0  0  0
   -2.3892    0.5944   -0.3500 C   0  0  0  0  0  0  0  0  0  0  0  0
   -3.3385    1.5198   -0.7828 C   0  0  0  0  0  0  0  0  0  0  0  0
   -4.7129    1.2647   -0.6517 C   0  0  0  0  0  0  0  0  0  0  0  0
   -5.1420    0.0565   -0.0745 C   0  0  0  0  0  0  0  0  0  0  0  0
   -6.4145   -0.5126    0.2052 C   0  0  0  0  0  0  0  0  0  0  0  0
   -6.2050   -1.7419    0.7878 C   0  0  0  0  0  0  0  0  0  0  0  0
   -4.8521   -1.9402    0.8722 N   0  0  0  0  0  0  0  0  0  0  0  0
   -4.1801   -0.8566    0.3525 C   0  0  0  0  0  0  0  0  0  0  0  0
   -2.8044   -0.6166    0.2285 C   0  0  0  0  0  0  0  0  0  0  0  0
    3.9339    0.9356   -0.5578 C   0  0  0  0  0  0  0  0  0  0  0  0
    5.2594    0.5994   -0.4077 O   0  0  0  0  0  0  0  0  0  0  0  0
    7.2519   -1.8522    0.7429 H   0  0  0  0  0  0  0  0  0  0  0  0
    7.5173   -0.1082    0.8954 H   0  0  0  0  0  0  0  0  0  0  0  0
    7.5057   -0.8704   -0.7086 H   0  0  0  0  0  0  0  0  0  0  0  0
    4.8709   -2.4412    1.0399 H   0  0  0  0  0  0  0  0  0  0  0  0
    1.5902    2.5481   -0.3074 H   0  0  0  0  0  0  0  0  0  0  0  0
    1.5784    1.7731   -1.9385 H   0  0  0  0  0  0  0  0  0  0  0  0
   -0.4036    0.0477   -0.1046 H   0  0  0  0  0  0  0  0  0  0  0  0
   -3.0474    2.4635   -1.2334 H   0  0  0  0  0  0  0  0  0  0  0  0
   -5.4352    1.9992   -0.9955 H   0  0  0  0  0  0  0  0  0  0  0  0
   -7.3790   -0.0671    0.0005 H   0  0  0  0  0  0  0  0  0  0  0  0
   -6.8989   -2.4893    1.1479 H   0  0  0  0  0  0  0  0  0  0  0  0
   -4.4057   -2.7604    1.2587 H   0  0  0  0  0  0  0  0  0  0  0  0
   -2.0865   -1.3539    0.5736 H   0  0  0  0  0  0  0  0  0  0  0  0
    3.8651    1.9101   -1.0204 H   0  0  0  0  0  0  0  0  0  0  0  0
  1  2  1  0
  2  3  2  0
  3  4  1  0
  4  5  2  0
  4  6  1  0
  6  7  1  0
  7  8  1  0
  8  9  1  0
  9 10  2  0
  9 11  1  0
 11 12  1  0
 12 13  2  0
 13 14  1  0
 14 15  2  0
 15 16  1  0
 16 17  2  0
 17 18  1  0
 18 19  1  0
 19 20  2  0
  6 21  2  0
 21 22  1  0
 22  2  1  0
 20 12  1  0
 19 15  1  0
  1 23  1  0
  1 24  1  0
  1 25  1  0
  3 26  1  0
  8 27  1  0
  8 28  1  0
 11 29  1  0
 13 30  1  0
 14 31  1  0
 16 32  1  0
 17 33  1  0
 18 34  1  0
 20 35  1  0
 21 36  1  0
M  END
$$$$
