
     RDKit          3D

 48 50  0  0  0  0  0  0  0  0999 V2000
    7.0868   -2.1055    1.0267 C   0  0  0  0  0  0  0  0  0  0  0  0
    6.2907   -0.9003    0.6946 C   0  0  0  0  0  0  0  0  0  0  0  0
    6.7307    0.4238    0.5654 C   0  0  0  0  0  0  0  0  0  0  0  0
    5.6133    1.1592    0.2171 C   0  0  0  0  0  0  0  0  0  0  0  0
    5.5718    2.6029   -0.1190 C   0  0  0  0  0  0  0  0  0  0  0  0
    4.5410    0.2610    0.2051 N   0  0  0  0  0  0  0  0  0  0  0  0
    3.1354    0.4582   -0.0111 C   0  0  0  0  0  0  0  0  0  0  0  0
    2.5453    1.7078   -0.0828 C   0  0  0  0  0  0  0  0  0  0  0  0
    1.1630    1.8008   -0.2915 C   0  0  0  0  0  0  0  0  0  0  0  0
    0.3846    0.6564   -0.4188 C   0  0  0  0  0  0  0  0  0  0  0  0
   -1.0065    0.7691   -0.6327 N   0  0  0  0  0  0  0  0  0  0  0  0
   -1.6518   -0.5084   -1.0317 C   0  0  0  0  0  0  0  0  0  0  0  0
   -2.3243   -1.2166    0.1554 C   0  0  0  0  0  0  0  0  0  0  0  0
   -3.3583   -0.3422    0.7695 N   0  0  0  0  0  0  0  0  0  0  0  0
   -4.8676   -0.9672    1.0685 S   0  0  0  0  0  6  0  0  0  0  0  0
   -5.7221    0.0795    1.5776 O   0  0  0  0  0  0  0  0  0  0  0  0
   -4.6818   -2.2045    1.7909 O   0  0  0  0  0  0  0  0  0  0  0  0
   -5.3958   -1.3697   -0.4975 N   0  0  0  0  0  0  0  0  0  0  0  0
   -5.7215   -0.2376   -1.3881 C   0  0  0  0  0  0  0  0  0  0  0  0
   -6.4894   -2.3726   -0.4853 C   0  0  0  0  0  0  0  0  0  0  0  0
   -3.1701    1.1141    0.5979 C   0  0  0  0  0  0  0  0  0  0  0  0
   -1.6733    1.4664    0.4979 C   0  0  0  0  0  0  0  0  0  0  0  0
    0.9945   -0.5397   -0.3444 N   0  0  0  0  0  0  0  0  0  0  0  0
    2.3617   -0.6443   -0.1301 N   0  0  0  0  0  0  0  0  0  0  0  0
    4.9870   -1.0065    0.4504 N   0  0  0  0  0  0  0  0  0  0  0  0
    6.5836   -2.7069    1.7907 H   0  0  0  0  0  0  0  0  0  0  0  0
    7.2299   -2.7249    0.1356 H   0  0  0  0  0  0  0  0  0  0  0  0
    8.0741   -1.8308    1.4112 H   0  0  0  0  0  0  0  0  0  0  0  0
    7.7394    0.7969    0.6791 H   0  0  0  0  0  0  0  0  0  0  0  0
    6.5872    2.9961   -0.2471 H   0  0  0  0  0  0  0  0  0  0  0  0
    5.1059    3.1796    0.6856 H   0  0  0  0  0  0  0  0  0  0  0  0
    5.0466    2.7796   -1.0624 H   0  0  0  0  0  0  0  0  0  0  0  0
    3.0884    2.6317    0.0350 H   0  0  0  0  0  0  0  0  0  0  0  0
    0.7046    2.7814   -0.3698 H   0  0  0  0  0  0  0  0  0  0  0  0
   -2.4203   -0.2583   -1.7742 H   0  0  0  0  0  0  0  0  0  0  0  0
   -0.9673   -1.1889   -1.5518 H   0  0  0  0  0  0  0  0  0  0  0  0
   -1.5867   -1.4668    0.9265 H   0  0  0  0  0  0  0  0  0  0  0  0
   -2.7630   -2.1564   -0.1960 H   0  0  0  0  0  0  0  0  0  0  0  0
   -6.1948   -0.5985   -2.3076 H   0  0  0  0  0  0  0  0  0  0  0  0
   -6.4103    0.4668   -0.9132 H   0  0  0  0  0  0  0  0  0  0  0  0
   -4.8113    0.2776   -1.6983 H   0  0  0  0  0  0  0  0  0  0  0  0
   -6.7524   -2.6550   -1.5099 H   0  0  0  0  0  0  0  0  0  0  0  0
   -7.3813   -1.9725    0.0059 H   0  0  0  0  0  0  0  0  0  0  0  0
   -6.1692   -3.2889    0.0179 H   0  0  0  0  0  0  0  0  0  0  0  0
   -3.6862    1.4651   -0.2986 H   0  0  0  0  0  0  0  0  0  0  0  0
   -3.5889    1.6398    1.4627 H   0  0  0  0  0  0  0  0  0  0  0  0
   -1.5755    2.5502    0.3647 H   0  0  0  0  0  0  0  0  0  0  0  0
   -1.1960    1.1989    1.4514 H   0  0  0  0  0  0  0  0  0  0  0  0
  1  2  1  0
  2  3  1  0
  3  4  2  0
  4  5  1  0
  4  6  1  0
  6  7  1  0
  7  8  2  0
  8  9  1  0
  9 10  2  0
 10 11  1  0
 11 12  1  0
 12 13  1  0
 13 14  1  0
 14 15  1  0
 15 16  2  0
 15 17  2  0
 15 18  1  0
 18 19  1  0
 18 20  1  0
 14 21  1  0
 21 22  1  0
 10 23  1  0
 23 24  2  0
  6 25  1  0
 25  2  2  0
 24  7  1  0
 22 11  1  0
  1 26  1  0
  1 27  1  0
  1 28  1  0
  3 29  1  0
  5 30  1  0
  5 31  1  0
  5 32  1  0
  8 33  1  0
  9 34  1  0
 12 35  1  0
 12 36  1  0
 13 37  1  0
 13 38  1  0
 19 39  1  0
 19 40  1  0
 19 41  1  0
 20 42  1  0
 20 43  1  0
 20 44  1  0
 21 45  1  0
 21 46  1  0
 22 47  1  0
 22 48  1  0
M  END
$$$$
