
     RDKit          3D

 56 59  0  0  0  0  0  0  0  0999 V2000
    0.2164    2.8012   -0.9639 O   0  0  0  0  0  0  0  0  0  0  0  0
    0.3423    1.6475   -0.5478 C   0  0  0  0  0  0  0  0  0  0  0  0
   -0.8798    0.8392   -0.1119 C   0  0  0  0  0  0  0  0  0  0  0  0
   -0.8964    0.6220    1.4114 C   0  0  0  0  0  0  0  0  0  0  0  0
   -2.1649    1.1580    2.0685 C   0  0  0  0  0  0  0  0  0  0  0  0
   -3.4319    0.6697    1.3701 C   0  0  0  0  0  0  0  0  0  0  0  0
   -3.3363    0.7504   -0.1165 N   0  0  0  0  0  0  0  0  0  0  0  0
   -4.7911    1.1426   -0.9323 S   0  0  0  0  0  6  0  0  0  0  0  0
   -5.3031    2.3660   -0.3511 O   0  0  0  0  0  0  0  0  0  0  0  0
   -4.5634    1.0206   -2.3570 O   0  0  0  0  0  0  0  0  0  0  0  0
   -5.8632   -0.1962   -0.4604 C   0  0  0  0  0  0  0  0  0  0  0  0
   -6.9281    0.0332    0.4178 C   0  0  0  0  0  0  0  0  0  0  0  0
   -7.7718   -1.0265    0.7579 C   0  0  0  0  0  0  0  0  0  0  0  0
   -7.5485   -2.2894    0.2135 C   0  0  0  0  0  0  0  0  0  0  0  0
   -8.3675   -3.3002    0.5369 F   0  0  0  0  0  0  0  0  0  0  0  0
   -6.4959   -2.5178   -0.6672 C   0  0  0  0  0  0  0  0  0  0  0  0
   -5.6452   -1.4659   -1.0115 C   0  0  0  0  0  0  0  0  0  0  0  0
   -2.1601    1.5305   -0.5990 C   0  0  0  0  0  0  0  0  0  0  0  0
    1.5924    1.0572   -0.4334 N   0  0  0  0  0  0  0  0  0  0  0  0
    2.7733    1.8501   -0.7921 C   0  0  0  0  0  0  0  0  0  0  0  0
    4.0520    1.4101   -0.0544 C   0  0  0  0  0  0  0  0  0  0  0  0
    4.3165   -0.0351   -0.2053 N   0  0  0  0  0  0  0  0  0  0  0  0
    5.6205   -0.5112   -0.2104 C   0  0  0  0  0  0  0  0  0  0  0  0
    6.6556    0.1770    0.4509 C   0  0  0  0  0  0  0  0  0  0  0  0
    7.9741   -0.2932    0.4562 C   0  0  0  0  0  0  0  0  0  0  0  0
    8.2806   -1.4724   -0.2019 C   0  0  0  0  0  0  0  0  0  0  0  0
    9.5411   -1.9264   -0.2022 F   0  0  0  0  0  0  0  0  0  0  0  0
    7.2933   -2.1873   -0.8585 C   0  0  0  0  0  0  0  0  0  0  0  0
    5.9774   -1.7084   -0.8579 C   0  0  0  0  0  0  0  0  0  0  0  0
    3.1863   -0.8811   -0.6143 C   0  0  0  0  0  0  0  0  0  0  0  0
    1.8501   -0.3417   -0.0660 C   0  0  0  0  0  0  0  0  0  0  0  0
   -0.8417   -0.1357   -0.6128 H   0  0  0  0  0  0  0  0  0  0  0  0
   -0.0266    1.0837    1.8970 H   0  0  0  0  0  0  0  0  0  0  0  0
   -0.8257   -0.4564    1.6129 H   0  0  0  0  0  0  0  0  0  0  0  0
   -2.1913    0.8647    3.1241 H   0  0  0  0  0  0  0  0  0  0  0  0
   -2.1415    2.2556    2.0578 H   0  0  0  0  0  0  0  0  0  0  0  0
   -3.6045   -0.3821    1.6295 H   0  0  0  0  0  0  0  0  0  0  0  0
   -4.2805    1.2452    1.7521 H   0  0  0  0  0  0  0  0  0  0  0  0
   -7.1098    1.0233    0.8298 H   0  0  0  0  0  0  0  0  0  0  0  0
   -8.6078   -0.8751    1.4336 H   0  0  0  0  0  0  0  0  0  0  0  0
   -6.3537   -3.5094   -1.0876 H   0  0  0  0  0  0  0  0  0  0  0  0
   -4.8276   -1.6313   -1.7103 H   0  0  0  0  0  0  0  0  0  0  0  0
   -2.2333    2.5688   -0.2532 H   0  0  0  0  0  0  0  0  0  0  0  0
   -2.1459    1.5504   -1.6948 H   0  0  0  0  0  0  0  0  0  0  0  0
    2.5878    2.9143   -0.5964 H   0  0  0  0  0  0  0  0  0  0  0  0
    2.9092    1.7354   -1.8771 H   0  0  0  0  0  0  0  0  0  0  0  0
    3.9527    1.6365    1.0133 H   0  0  0  0  0  0  0  0  0  0  0  0
    4.8790    2.0076   -0.4540 H   0  0  0  0  0  0  0  0  0  0  0  0
    6.4476    1.0920    1.0000 H   0  0  0  0  0  0  0  0  0  0  0  0
    8.7545    0.2533    0.9748 H   0  0  0  0  0  0  0  0  0  0  0  0
    7.5473   -3.1091   -1.3719 H   0  0  0  0  0  0  0  0  0  0  0  0
    5.2382   -2.2894   -1.4023 H   0  0  0  0  0  0  0  0  0  0  0  0
    3.3066   -1.9026   -0.2336 H   0  0  0  0  0  0  0  0  0  0  0  0
    3.1434   -0.9240   -1.7098 H   0  0  0  0  0  0  0  0  0  0  0  0
    1.8608   -0.3818    1.0291 H   0  0  0  0  0  0  0  0  0  0  0  0
    1.0384   -0.9824   -0.4182 H   0  0  0  0  0  0  0  0  0  0  0  0
  1  2  2  0
  2  3  1  0
  3  4  1  0
  4  5  1  0
  5  6  1  0
  6  7  1  0
  7  8  1  0
  8  9  2  0
  8 10  2  0
  8 11  1  0
 11 12  2  0
 12 13  1  0
 13 14  2  0
 14 15  1  0
 14 16  1  0
 16 17  2  0
  7 18  1  0
  2 19  1  0
 19 20  1  0
 20 21  1  0
 21 22  1  0
 22 23  1  0
 23 24  2  0
 24 25  1  0
 25 26  2  0
 26 27  1  0
 26 28  1  0
 28 29  2  0
 22 30  1  0
 30 31  1  0
 18  3  1  0
 31 19  1  0
 17 11  1  0
 29 23  1  0
  3 32  1  0
  4 33  1  0
  4 34  1  0
  5 35  1  0
  5 36  1  0
  6 37  1  0
  6 38  1  0
 12 39  1  0
 13 40  1  0
 16 41  1  0
 17 42  1  0
 18 43  1  0
 18 44  1  0
 20 45  1  0
 20 46  1  0
 21 47  1  0
 21 48  1  0
 24 49  1  0
 25 50  1  0
 28 51  1  0
 29 52  1  0
 30 53  1  0
 30 54  1  0
 31 55  1  0
 31 56  1  0
M  END
$$$$
