
     RDKit          3D

 38 39  0  0  0  0  0  0  0  0999 V2000
   -1.9015   -0.1017   -3.2486 C   0  0  0  0  0  0  0  0  0  0  0  0
   -2.1520   -0.5976   -1.8311 C   0  0  0  0  0  0  0  0  0  0  0  0
   -0.9945   -0.2134   -0.8970 C   0  0  0  0  0  0  0  0  0  0  0  0
   -1.2050   -0.8079    0.4562 N   0  0  0  0  0  0  0  0  0  0  0  0
   -0.2638   -0.1791    1.7214 S   0  0  0  0  0  6  0  0  0  0  0  0
   -0.4590    1.2544    1.7506 O   0  0  0  0  0  0  0  0  0  0  0  0
   -0.4845   -0.9882    2.9004 O   0  0  0  0  0  0  0  0  0  0  0  0
    1.3938   -0.5004    1.1729 C   0  0  0  0  0  0  0  0  0  0  0  0
    1.8214   -1.8266    1.0537 C   0  0  0  0  0  0  0  0  0  0  0  0
    3.1144   -2.0924    0.6079 C   0  0  0  0  0  0  0  0  0  0  0  0
    3.9740   -1.0359    0.2969 C   0  0  0  0  0  0  0  0  0  0  0  0
    3.5511    0.2937    0.4421 C   0  0  0  0  0  0  0  0  0  0  0  0
    4.5103    1.3780    0.1052 C   0  0  0  0  0  0  0  0  0  0  0  0
    4.3266    2.5904    0.7077 N   0  0  0  0  0  0  0  0  0  0  0  0
    5.4456    1.1888   -0.6606 O   0  0  0  0  0  0  0  0  0  0  0  0
    2.2490    0.5652    0.8739 C   0  0  0  0  0  0  0  0  0  0  0  0
   -2.6478   -1.0277    0.7849 C   0  0  0  0  0  0  0  0  0  0  0  0
   -3.6044   -0.0877    0.0270 C   0  0  0  0  0  0  0  0  0  0  0  0
   -3.5999    1.3384    0.5672 C   0  0  0  0  0  0  0  0  0  0  0  0
   -3.3958   -0.0341   -1.3931 O   0  0  0  0  0  0  0  0  0  0  0  0
   -0.9786   -0.5211   -3.6605 H   0  0  0  0  0  0  0  0  0  0  0  0
   -2.7345   -0.3803   -3.9034 H   0  0  0  0  0  0  0  0  0  0  0  0
   -1.8336    0.9918   -3.2742 H   0  0  0  0  0  0  0  0  0  0  0  0
   -2.2691   -1.6878   -1.8593 H   0  0  0  0  0  0  0  0  0  0  0  0
   -0.0547   -0.6011   -1.3043 H   0  0  0  0  0  0  0  0  0  0  0  0
   -0.9210    0.8766   -0.8223 H   0  0  0  0  0  0  0  0  0  0  0  0
    1.1509   -2.6474    1.3015 H   0  0  0  0  0  0  0  0  0  0  0  0
    3.4579   -3.1195    0.5055 H   0  0  0  0  0  0  0  0  0  0  0  0
    4.9835   -1.2504   -0.0520 H   0  0  0  0  0  0  0  0  0  0  0  0
    5.0557    3.2775    0.5617 H   0  0  0  0  0  0  0  0  0  0  0  0
    3.7196    2.7223    1.5044 H   0  0  0  0  0  0  0  0  0  0  0  0
    1.8916    1.5875    0.9584 H   0  0  0  0  0  0  0  0  0  0  0  0
   -2.8332   -0.9615    1.8622 H   0  0  0  0  0  0  0  0  0  0  0  0
   -2.8670   -2.0650    0.5005 H   0  0  0  0  0  0  0  0  0  0  0  0
   -4.6210   -0.4757    0.1665 H   0  0  0  0  0  0  0  0  0  0  0  0
   -2.6711    1.8623    0.3284 H   0  0  0  0  0  0  0  0  0  0  0  0
   -4.4030    1.9181    0.0985 H   0  0  0  0  0  0  0  0  0  0  0  0
   -3.7502    1.3575    1.6508 H   0  0  0  0  0  0  0  0  0  0  0  0
  1  2  1  0
  2  3  1  0
  3  4  1  0
  4  5  1  0
  5  6  2  0
  5  7  2  0
  5  8  1  0
  8  9  2  0
  9 10  1  0
 10 11  2  0
 11 12  1  0
 12 13  1  0
 13 14  1  0
 13 15  2  0
 12 16  2  0
  4 17  1  0
 17 18  1  0
 18 19  1  0
 18 20  1  0
 20  2  1  0
 16  8  1  0
  1 21  1  0
  1 22  1  0
  1 23  1  0
  2 24  1  0
  3 25  1  0
  3 26  1  0
  9 27  1  0
 10 28  1  0
 11 29  1  0
 14 30  1  0
 14 31  1  0
 16 32  1  0
 17 33  1  0
 17 34  1  0
 18 35  1  0
 19 36  1  0
 19 37  1  0
 19 38  1  0
M  END
$$$$
