
     RDKit          3D

 41 45  0  0  0  0  0  0  0  0999 V2000
    2.2833   -1.9926    0.4733 O   0  0  0  0  0  0  0  0  0  0  0  0
    1.6492   -1.4875   -0.4526 C   0  0  0  0  0  0  0  0  0  0  0  0
    0.2675   -0.9301   -0.2251 C   0  0  0  0  0  0  0  0  0  0  0  0
   -0.2781   -1.0011    1.0482 N   0  0  0  0  0  0  0  0  0  0  0  0
   -1.4351   -0.5544    1.2921 N   0  0  0  0  0  0  0  0  0  0  0  0
   -2.1921   -0.0047    0.2946 C   0  0  0  0  0  0  0  0  0  0  0  0
   -3.4585    0.5564    0.2541 C   0  0  0  0  0  0  0  0  0  0  0  0
   -4.3442    0.7352    1.3911 C   0  0  0  0  0  0  0  0  0  0  0  0
   -4.4865   -0.2588    2.3679 C   0  0  0  0  0  0  0  0  0  0  0  0
   -5.3370   -0.0629    3.4572 C   0  0  0  0  0  0  0  0  0  0  0  0
   -6.0501    1.1338    3.5858 C   0  0  0  0  0  0  0  0  0  0  0  0
   -5.9215    2.1264    2.6174 C   0  0  0  0  0  0  0  0  0  0  0  0
   -5.0769    1.9254    1.5224 C   0  0  0  0  0  0  0  0  0  0  0  0
   -3.6272    0.9389   -1.0939 C   0  0  0  0  0  0  0  0  0  0  0  0
   -2.5654    0.6619   -1.8594 N   0  0  0  0  0  0  0  0  0  0  0  0
   -1.6770    0.0836   -0.9975 N   0  0  0  0  0  0  0  0  0  0  0  0
   -0.3945   -0.3942   -1.2653 C   0  0  0  0  0  0  0  0  0  0  0  0
    0.2041   -0.3114   -2.5783 C   0  0  0  0  0  0  0  0  0  0  0  0
    1.4295   -0.8018   -2.7815 C   0  0  0  0  0  0  0  0  0  0  0  0
    2.1378   -1.4041   -1.7588 N   0  0  0  0  0  0  0  0  0  0  0  0
    3.4933   -1.8878   -2.0243 C   0  0  0  0  0  0  0  0  0  0  0  0
    4.5566   -0.8527   -1.7122 C   0  0  0  0  0  0  0  0  0  0  0  0
    5.5707   -1.1337   -0.7941 C   0  0  0  0  0  0  0  0  0  0  0  0
    6.5372   -0.1658   -0.5387 C   0  0  0  0  0  0  0  0  0  0  0  0
    6.4662    1.0544   -1.2013 C   0  0  0  0  0  0  0  0  0  0  0  0
    5.4427    1.2481   -2.1144 C   0  0  0  0  0  0  0  0  0  0  0  0
    4.4974    0.3237   -2.3882 N   0  0  0  0  0  0  0  0  0  0  0  0
   -3.9432   -1.1954    2.2950 H   0  0  0  0  0  0  0  0  0  0  0  0
   -5.4369   -0.8399    4.2121 H   0  0  0  0  0  0  0  0  0  0  0  0
   -6.6999    1.2906    4.4445 H   0  0  0  0  0  0  0  0  0  0  0  0
   -6.4695    3.0595    2.7214 H   0  0  0  0  0  0  0  0  0  0  0  0
   -4.9809    2.7160    0.7860 H   0  0  0  0  0  0  0  0  0  0  0  0
   -4.4841    1.4128   -1.5544 H   0  0  0  0  0  0  0  0  0  0  0  0
   -0.3479    0.1772   -3.3796 H   0  0  0  0  0  0  0  0  0  0  0  0
    1.9146   -0.7288   -3.7505 H   0  0  0  0  0  0  0  0  0  0  0  0
    3.5803   -2.1801   -3.0717 H   0  0  0  0  0  0  0  0  0  0  0  0
    3.6601   -2.8035   -1.4353 H   0  0  0  0  0  0  0  0  0  0  0  0
    5.6166   -2.0930   -0.2914 H   0  0  0  0  0  0  0  0  0  0  0  0
    7.3501   -0.3665    0.1524 H   0  0  0  0  0  0  0  0  0  0  0  0
    7.2005    1.8293   -1.0244 H   0  0  0  0  0  0  0  0  0  0  0  0
    5.3486    2.1775   -2.6638 H   0  0  0  0  0  0  0  0  0  0  0  0
  1  2  2  0
  2  3  1  0
  3  4  1  0
  4  5  2  0
  5  6  1  0
  6  7  2  0
  7  8  1  0
  8  9  2  0
  9 10  1  0
 10 11  2  0
 11 12  1  0
 12 13  2  0
  7 14  1  0
 14 15  2  0
 15 16  1  0
 16 17  1  0
 17 18  1  0
 18 19  2  0
 19 20  1  0
 20 21  1  0
 21 22  1  0
 22 23  2  0
 23 24  1  0
 24 25  2  0
 25 26  1  0
 26 27  2  0
 20  2  1  0
 27 22  1  0
 17  3  2  0
 16  6  1  0
 13  8  1  0
  9 28  1  0
 10 29  1  0
 11 30  1  0
 12 31  1  0
 13 32  1  0
 14 33  1  0
 18 34  1  0
 19 35  1  0
 21 36  1  0
 21 37  1  0
 23 38  1  0
 24 39  1  0
 25 40  1  0
 26 41  1  0
M  END
$$$$
