
     RDKit          3D

 48 51  0  0  0  0  0  0  0  0999 V2000
   -3.1090   -3.1485    0.6582 C   0  0  0  0  0  0  0  0  0  0  0  0
   -1.8907   -2.2727    0.7671 C   0  0  0  0  0  0  0  0  0  0  0  0
   -0.6269   -2.8645    0.5993 C   0  0  0  0  0  0  0  0  0  0  0  0
    0.5451   -2.1114    0.7134 C   0  0  0  0  0  0  0  0  0  0  0  0
    0.4746   -0.7444    0.9987 C   0  0  0  0  0  0  0  0  0  0  0  0
    1.7005    0.0946    1.1325 C   0  0  0  0  0  0  0  0  0  0  0  0
    1.6812    1.0179    1.9361 O   0  0  0  0  0  0  0  0  0  0  0  0
    2.7373   -0.2452    0.2821 N   0  0  0  0  0  0  0  0  0  0  0  0
    4.0175    0.3468    0.2135 C   0  0  0  0  0  0  0  0  0  0  0  0
    4.4641    1.3507    1.0944 C   0  0  0  0  0  0  0  0  0  0  0  0
    5.7504    1.8955    0.9779 C   0  0  0  0  0  0  0  0  0  0  0  0
    6.5638    1.4166   -0.0228 C   0  0  0  0  0  0  0  0  0  0  0  0
    6.1385    0.4357   -0.8840 C   0  0  0  0  0  0  0  0  0  0  0  0
    4.8779   -0.1185   -0.7926 C   0  0  0  0  0  0  0  0  0  0  0  0
    7.0882    0.0999   -1.7983 O   0  0  0  0  0  0  0  0  0  0  0  0
    8.1605    0.9863   -1.4120 C   0  0  0  0  0  0  0  0  0  0  0  0
    7.8337    1.8235   -0.2839 O   0  0  0  0  0  0  0  0  0  0  0  0
   -0.7723   -0.1436    1.2010 C   0  0  0  0  0  0  0  0  0  0  0  0
   -1.9488   -0.8996    1.0790 C   0  0  0  0  0  0  0  0  0  0  0  0
   -3.5030   -0.0646    1.3582 S   0  0  0  0  0  6  0  0  0  0  0  0
   -3.2359    1.3103    1.7245 O   0  0  0  0  0  0  0  0  0  0  0  0
   -4.3177   -0.9078    2.2056 O   0  0  0  0  0  0  0  0  0  0  0  0
   -4.2026   -0.0309   -0.2001 N   0  0  0  0  0  0  0  0  0  0  0  0
   -3.4031    0.6924   -1.2446 C   0  0  0  0  0  0  0  0  0  0  0  0
   -4.2911    1.0608   -2.4375 C   0  0  0  0  0  0  0  0  0  0  0  0
   -5.3479    1.9661   -2.0926 O   0  0  0  0  0  0  0  0  0  0  0  0
   -5.7903    1.8289   -0.7339 C   0  0  0  0  0  0  0  0  0  0  0  0
   -5.6429    0.4017   -0.2000 C   0  0  0  0  0  0  0  0  0  0  0  0
   -2.8619   -4.1128    0.2001 H   0  0  0  0  0  0  0  0  0  0  0  0
   -3.8728   -2.6936    0.0224 H   0  0  0  0  0  0  0  0  0  0  0  0
   -3.5210   -3.3517    1.6510 H   0  0  0  0  0  0  0  0  0  0  0  0
   -0.5459   -3.9312    0.3922 H   0  0  0  0  0  0  0  0  0  0  0  0
    1.5022   -2.6175    0.6149 H   0  0  0  0  0  0  0  0  0  0  0  0
    2.5495   -0.9525   -0.4158 H   0  0  0  0  0  0  0  0  0  0  0  0
    3.8295    1.7293    1.8906 H   0  0  0  0  0  0  0  0  0  0  0  0
    6.0918    2.6689    1.6568 H   0  0  0  0  0  0  0  0  0  0  0  0
    4.5827   -0.8909   -1.4930 H   0  0  0  0  0  0  0  0  0  0  0  0
    9.0394    0.3826   -1.1581 H   0  0  0  0  0  0  0  0  0  0  0  0
    8.4090    1.6280   -2.2652 H   0  0  0  0  0  0  0  0  0  0  0  0
   -0.8174    0.9148    1.4578 H   0  0  0  0  0  0  0  0  0  0  0  0
   -2.9701    1.6068   -0.8250 H   0  0  0  0  0  0  0  0  0  0  0  0
   -2.5951    0.0379   -1.5859 H   0  0  0  0  0  0  0  0  0  0  0  0
   -4.7453    0.1635   -2.8737 H   0  0  0  0  0  0  0  0  0  0  0  0
   -3.6934    1.5383   -3.2203 H   0  0  0  0  0  0  0  0  0  0  0  0
   -5.2215    2.5367   -0.1203 H   0  0  0  0  0  0  0  0  0  0  0  0
   -6.8400    2.1373   -0.7013 H   0  0  0  0  0  0  0  0  0  0  0  0
   -6.1883   -0.3018   -0.8405 H   0  0  0  0  0  0  0  0  0  0  0  0
   -6.0827    0.3319    0.7996 H   0  0  0  0  0  0  0  0  0  0  0  0
  1  2  1  0
  2  3  2  0
  3  4  1  0
  4  5  2  0
  5  6  1  0
  6  7  2  0
  6  8  1  0
  8  9  1  0
  9 10  2  0
 10 11  1  0
 11 12  2  0
 12 13  1  0
 13 14  2  0
 13 15  1  0
 15 16  1  0
 16 17  1  0
  5 18  1  0
 18 19  2  0
 19 20  1  0
 20 21  2  0
 20 22  2  0
 20 23  1  0
 23 24  1  0
 24 25  1  0
 25 26  1  0
 26 27  1  0
 27 28  1  0
 19  2  1  0
 28 23  1  0
 14  9  1  0
 17 12  1  0
  1 29  1  0
  1 30  1  0
  1 31  1  0
  3 32  1  0
  4 33  1  0
  8 34  1  0
 10 35  1  0
 11 36  1  0
 14 37  1  0
 16 38  1  0
 16 39  1  0
 18 40  1  0
 24 41  1  0
 24 42  1  0
 25 43  1  0
 25 44  1  0
 27 45  1  0
 27 46  1  0
 28 47  1  0
 28 48  1  0
M  END
$$$$
