
     RDKit          3D

 69 70  0  0  0  0  0  0  0  0999 V2000
   -7.2393   -2.1986   -0.0518 C   0  0  0  0  0  0  0  0  0  0  0  0
   -5.8662   -1.8968   -0.2644 O   0  0  0  0  0  0  0  0  0  0  0  0
   -5.4452   -0.6361    0.0631 C   0  0  0  0  0  0  0  0  0  0  0  0
   -6.2844    0.4303    0.3944 C   0  0  0  0  0  0  0  0  0  0  0  0
   -5.7490    1.6942    0.7011 C   0  0  0  0  0  0  0  0  0  0  0  0
   -6.6963    2.7937    1.0535 C   0  0  0  0  0  0  0  0  0  0  0  0
   -6.1817    4.2077    1.1247 C   0  0  0  0  0  0  0  0  0  0  0  0
   -7.8740    2.5311    1.2890 O   0  0  0  0  0  0  0  0  0  0  0  0
   -4.3622    1.8894    0.6839 C   0  0  0  0  0  0  0  0  0  0  0  0
   -3.5186    0.8279    0.3598 C   0  0  0  0  0  0  0  0  0  0  0  0
   -4.0616   -0.4179    0.0399 C   0  0  0  0  0  0  0  0  0  0  0  0
   -3.1982   -1.4485   -0.2223 O   0  0  0  0  0  0  0  0  0  0  0  0
   -2.8751   -1.5151   -1.6160 C   0  0  0  0  0  0  0  0  0  0  0  0
   -1.3583   -1.4334   -1.7885 C   0  0  0  0  0  0  0  0  0  0  0  0
   -0.6334   -2.5772   -1.0721 C   0  0  0  0  0  0  0  0  0  0  0  0
    0.8835   -2.5811   -1.3196 C   0  0  0  0  0  0  0  0  0  0  0  0
    1.5577   -1.3206   -0.9815 N   0  0  0  0  0  0  0  0  0  0  0  0
    1.6046   -1.0424    0.4680 C   0  0  0  0  0  0  0  0  0  0  0  0
    2.9687   -1.3099    1.1442 C   0  0  0  0  0  0  0  0  0  0  0  0
    4.1229   -0.6313    0.5227 N   0  0  0  0  0  0  0  0  0  0  0  0
    4.5615    0.5374    1.2988 C   0  0  0  0  0  0  0  0  0  0  0  0
    5.8941    1.0910    0.8390 C   0  0  0  0  0  0  0  0  0  0  0  0
    7.0642    0.3297    0.9839 C   0  0  0  0  0  0  0  0  0  0  0  0
    8.2957    0.8343    0.5639 C   0  0  0  0  0  0  0  0  0  0  0  0
    8.3706    2.1020   -0.0087 C   0  0  0  0  0  0  0  0  0  0  0  0
    7.2148    2.8659   -0.1624 C   0  0  0  0  0  0  0  0  0  0  0  0
    5.9819    2.3647    0.2607 C   0  0  0  0  0  0  0  0  0  0  0  0
    3.8440   -0.2760   -0.8849 C   0  0  0  0  0  0  0  0  0  0  0  0
    2.9143   -1.2955   -1.5731 C   0  0  0  0  0  0  0  0  0  0  0  0
   -1.1339    0.1729   -1.3668 O   0  0  0  0  0  0  0  0  0  0  0  0
   -0.7421    0.0980   -0.2192 C   0  0  0  0  0  0  0  0  0  0  0  0
   -1.5807    0.1806    0.8232 O   0  0  0  0  0  0  0  0  0  0  0  0
    0.7419   -0.0981    0.2194 C   0  0  0  0  0  0  0  0  0  0  0  0
    1.1343   -0.1668    1.3679 O   0  0  0  0  0  0  0  0  0  0  0  0
    1.5796   -0.1883   -0.8235 O   0  0  0  0  0  0  0  0  0  0  0  0
   -7.5259   -2.0308    0.9908 H   0  0  0  0  0  0  0  0  0  0  0  0
   -7.3843   -3.2610   -0.2689 H   0  0  0  0  0  0  0  0  0  0  0  0
   -7.8764   -1.6298   -0.7366 H   0  0  0  0  0  0  0  0  0  0  0  0
   -7.3639    0.3061    0.4205 H   0  0  0  0  0  0  0  0  0  0  0  0
   -5.6172    4.3549    2.0499 H   0  0  0  0  0  0  0  0  0  0  0  0
   -5.5629    4.4389    0.2540 H   0  0  0  0  0  0  0  0  0  0  0  0
   -7.0291    4.8988    1.1131 H   0  0  0  0  0  0  0  0  0  0  0  0
   -3.9147    2.8456    0.9375 H   0  0  0  0  0  0  0  0  0  0  0  0
   -2.4400    0.9646    0.3628 H   0  0  0  0  0  0  0  0  0  0  0  0
   -3.2479   -2.4708   -2.0008 H   0  0  0  0  0  0  0  0  0  0  0  0
   -3.3505   -0.7189   -2.2059 H   0  0  0  0  0  0  0  0  0  0  0  0
   -1.1186   -1.4524   -2.8574 H   0  0  0  0  0  0  0  0  0  0  0  0
   -1.0090   -0.4762   -1.3856 H   0  0  0  0  0  0  0  0  0  0  0  0
   -0.8412   -2.5408    0.0021 H   0  0  0  0  0  0  0  0  0  0  0  0
   -1.0365   -3.5334   -1.4272 H   0  0  0  0  0  0  0  0  0  0  0  0
    1.0313   -2.7913   -2.3886 H   0  0  0  0  0  0  0  0  0  0  0  0
    1.3360   -3.4188   -0.7728 H   0  0  0  0  0  0  0  0  0  0  0  0
    0.8284   -1.5848    1.0183 H   0  0  0  0  0  0  0  0  0  0  0  0
    1.3630    0.0198    0.5991 H   0  0  0  0  0  0  0  0  0  0  0  0
    2.8903   -1.0783    2.2134 H   0  0  0  0  0  0  0  0  0  0  0  0
    3.1658   -2.3886    1.0973 H   0  0  0  0  0  0  0  0  0  0  0  0
    4.6951    0.2578    2.3531 H   0  0  0  0  0  0  0  0  0  0  0  0
    3.7954    1.3245    1.2916 H   0  0  0  0  0  0  0  0  0  0  0  0
    7.0114   -0.6657    1.4197 H   0  0  0  0  0  0  0  0  0  0  0  0
    9.1943    0.2352    0.6806 H   0  0  0  0  0  0  0  0  0  0  0  0
    9.3293    2.4941   -0.3388 H   0  0  0  0  0  0  0  0  0  0  0  0
    7.2734    3.8524   -0.6130 H   0  0  0  0  0  0  0  0  0  0  0  0
    5.0896    2.9721    0.1315 H   0  0  0  0  0  0  0  0  0  0  0  0
    4.7887   -0.2352   -1.4397 H   0  0  0  0  0  0  0  0  0  0  0  0
    3.3789    0.7164   -0.9606 H   0  0  0  0  0  0  0  0  0  0  0  0
    3.3876   -2.2860   -1.5200 H   0  0  0  0  0  0  0  0  0  0  0  0
    2.8242   -1.0374   -2.6356 H   0  0  0  0  0  0  0  0  0  0  0  0
   -2.4620    0.3046    0.4169 H   0  0  0  0  0  0  0  0  0  0  0  0
    2.4629   -0.3029   -0.4179 H   0  0  0  0  0  0  0  0  0  0  0  0
  1  2  1  0
  2  3  1  0
  3  4  2  0
  4  5  1  0
  5  6  1  0
  6  7  1  0
  6  8  2  0
  5  9  2  0
  9 10  1  0
 10 11  2  0
 11 12  1  0
 12 13  1  0
 13 14  1  0
 14 15  1  0
 15 16  1  0
 16 17  1  0
 17 18  1  0
 18 19  1  0
 19 20  1  0
 20 21  1  0
 21 22  1  0
 22 23  2  0
 23 24  1  0
 24 25  2  0
 25 26  1  0
 26 27  2  0
 20 28  1  0
 28 29  1  0
 30 31  2  0
 31 32  1  0
 31 33  1  0
 33 34  2  0
 33 35  1  0
 11  3  1  0
 29 17  1  0
 27 22  1  0
  1 36  1  0
  1 37  1  0
  1 38  1  0
  4 39  1  0
  7 40  1  0
  7 41  1  0
  7 42  1  0
  9 43  1  0
 10 44  1  0
 13 45  1  0
 13 46  1  0
 14 47  1  0
 14 48  1  0
 15 49  1  0
 15 50  1  0
 16 51  1  0
 16 52  1  0
 18 53  1  0
 18 54  1  0
 19 55  1  0
 19 56  1  0
 21 57  1  0
 21 58  1  0
 23 59  1  0
 24 60  1  0
 25 61  1  0
 26 62  1  0
 27 63  1  0
 28 64  1  0
 28 65  1  0
 29 66  1  0
 29 67  1  0
 32 68  1  0
 35 69  1  0
M  END
$$$$
