
     RDKit          3D

 43 44  0  0  0  0  0  0  0  0999 V2000
   -5.4142    1.0962   -1.6952 C   0  0  0  0  0  0  0  0  0  0  0  0
   -4.3584    0.0742   -1.2913 C   0  0  0  0  0  0  0  0  0  0  0  0
   -3.7116    0.3754    0.0770 C   0  0  1  0  0  0  0  0  0  0  0  0
   -4.7257    0.2069    1.2175 C   0  0  0  0  0  0  0  0  0  0  0  0
   -2.4247   -0.4558    0.3608 C   0  0  1  0  0  0  0  0  0  0  0  0
   -2.6052   -1.9880    0.2772 C   0  0  0  0  0  0  0  0  0  0  0  0
   -2.7327   -2.4280   -1.0735 O   0  0  0  0  0  0  0  0  0  0  0  0
   -1.3277   -0.0016   -0.5052 N   0  0  0  0  0  0  0  0  0  0  0  0
    0.0015   -0.2419   -0.1938 C   0  0  0  0  0  0  0  0  0  0  0  0
    0.3315   -0.9150    0.7788 O   0  0  0  0  0  0  0  0  0  0  0  0
    0.9763    0.3915   -1.1917 C   0  0  0  0  0  0  0  0  0  0  0  0
    2.3586    0.1822   -0.7946 N   0  0  0  0  0  0  0  0  0  0  0  0
    3.0115   -0.8885   -1.3686 N   0  0  0  0  0  0  0  0  0  0  0  0
    4.2209   -1.1429   -0.9785 C   0  0  0  0  0  0  0  0  0  0  0  0
    4.9402   -0.3652    0.0231 C   0  0  0  0  0  0  0  0  0  0  0  0
    6.2424   -0.7028    0.3967 C   0  0  0  0  0  0  0  0  0  0  0  0
    6.8963    0.0709    1.3575 C   0  0  0  0  0  0  0  0  0  0  0  0
    6.2503    1.1683    1.9339 C   0  0  0  0  0  0  0  0  0  0  0  0
    4.9470    1.4969    1.5511 C   0  0  0  0  0  0  0  0  0  0  0  0
    4.2917    0.7225    0.5885 C   0  0  0  0  0  0  0  0  0  0  0  0
    2.9175    1.0349    0.1570 C   0  0  0  0  0  0  0  0  0  0  0  0
    2.3378    2.0099    0.6299 O   0  0  0  0  0  0  0  0  0  0  0  0
   -5.7746    0.8815   -2.7070 H   0  0  0  0  0  0  0  0  0  0  0  0
   -6.2781    1.0705   -1.0252 H   0  0  0  0  0  0  0  0  0  0  0  0
   -5.0011    2.1095   -1.6920 H   0  0  0  0  0  0  0  0  0  0  0  0
   -3.5908    0.0622   -2.0732 H   0  0  0  0  0  0  0  0  0  0  0  0
   -4.8244   -0.9172   -1.2828 H   0  0  0  0  0  0  0  0  0  0  0  0
   -3.4112    1.4331    0.0771 H   0  0  0  0  0  0  0  0  0  0  0  0
   -5.5321    0.9435    1.1398 H   0  0  0  0  0  0  0  0  0  0  0  0
   -4.2476    0.3575    2.1917 H   0  0  0  0  0  0  0  0  0  0  0  0
   -5.1813   -0.7887    1.2108 H   0  0  0  0  0  0  0  0  0  0  0  0
   -2.1108   -0.2277    1.3885 H   0  0  0  0  0  0  0  0  0  0  0  0
   -3.4890   -2.3177    0.8303 H   0  0  0  0  0  0  0  0  0  0  0  0
   -1.7428   -2.5071    0.7088 H   0  0  0  0  0  0  0  0  0  0  0  0
   -1.8853   -2.2062   -1.4986 H   0  0  0  0  0  0  0  0  0  0  0  0
   -1.5473    0.6129   -1.2792 H   0  0  0  0  0  0  0  0  0  0  0  0
    0.7711    1.4666   -1.2489 H   0  0  0  0  0  0  0  0  0  0  0  0
    0.8134   -0.0525   -2.1804 H   0  0  0  0  0  0  0  0  0  0  0  0
    4.7418   -2.0023   -1.4328 H   0  0  0  0  0  0  0  0  0  0  0  0
    6.7498   -1.5556   -0.0467 H   0  0  0  0  0  0  0  0  0  0  0  0
    7.9107   -0.1803    1.6612 H   0  0  0  0  0  0  0  0  0  0  0  0
    6.7609    1.7682    2.6843 H   0  0  0  0  0  0  0  0  0  0  0  0
    4.4452    2.3499    2.0041 H   0  0  0  0  0  0  0  0  0  0  0  0
  1  2  1  0
  2  3  1  0
  3  4  1  0
  3  5  1  0
  5  6  1  0
  6  7  1  0
  5  8  1  0
  8  9  1  0
  9 10  2  0
  9 11  1  0
 11 12  1  0
 12 13  1  0
 13 14  2  0
 14 15  1  0
 15 16  2  0
 16 17  1  0
 17 18  2  0
 18 19  1  0
 19 20  2  0
 20 21  1  0
 21 22  2  0
 21 12  1  0
 20 15  1  0
  1 23  1  0
  1 24  1  0
  1 25  1  0
  2 26  1  0
  2 27  1  0
  3 28  1  6
  4 29  1  0
  4 30  1  0
  4 31  1  0
  5 32  1  1
  6 33  1  0
  6 34  1  0
  7 35  1  0
  8 36  1  0
 11 37  1  0
 11 38  1  0
 14 39  1  0
 16 40  1  0
 17 41  1  0
 18 42  1  0
 19 43  1  0
M  END
$$$$
