
     RDKit          3D

 49 51  0  0  0  0  0  0  0  0999 V2000
   -2.9261    1.8485    1.6066 C   0  0  0  0  0  0  0  0  0  0  0  0
   -2.7025    0.3491    1.3716 C   0  0  0  0  0  0  0  0  0  0  0  0
   -4.0355   -0.4187    1.5078 C   0  0  0  0  0  0  0  0  0  0  0  0
   -4.4023   -0.6401    0.0752 C   0  0  0  0  0  0  0  0  0  0  0  0
   -5.6048   -1.1245   -0.4186 C   0  0  0  0  0  0  0  0  0  0  0  0
   -5.7173   -1.3382   -1.7917 C   0  0  0  0  0  0  0  0  0  0  0  0
   -4.6323   -1.0788   -2.6412 C   0  0  0  0  0  0  0  0  0  0  0  0
   -3.4220   -0.5974   -2.1298 C   0  0  0  0  0  0  0  0  0  0  0  0
   -3.3202   -0.3709   -0.7679 C   0  0  0  0  0  0  0  0  0  0  0  0
   -2.2186    0.0981   -0.0143 N   0  0  0  0  0  0  0  0  0  0  0  0
   -0.9624    0.3818   -0.5349 C   0  0  0  0  0  0  0  0  0  0  0  0
   -0.7126    0.4005   -1.7409 O   0  0  0  0  0  0  0  0  0  0  0  0
    0.1738    0.5587    0.4818 C   0  0  0  0  0  0  0  0  0  0  0  0
    0.6331   -0.8173    0.9821 C   0  0  0  0  0  0  0  0  0  0  0  0
    1.4190   -1.5959   -0.0771 C   0  0  0  0  0  0  0  0  0  0  0  0
    2.2606   -0.7044   -0.9929 C   0  0  0  0  0  0  0  0  0  0  0  0
    2.5807    0.5510   -0.2767 N   0  0  0  0  0  0  0  0  0  0  0  0
    3.9076    1.4362   -0.8584 S   0  0  0  0  0  6  0  0  0  0  0  0
    3.8414    2.7573   -0.2734 O   0  0  0  0  0  0  0  0  0  0  0  0
    4.0049    1.2494   -2.2855 O   0  0  0  0  0  0  0  0  0  0  0  0
    5.1823    0.6375   -0.1024 N   0  0  0  0  0  0  0  0  0  0  0  0
    5.2539    0.7479    1.3610 C   0  0  0  0  0  0  0  0  0  0  0  0
    5.6478   -0.6472   -0.6327 C   0  0  0  0  0  0  0  0  0  0  0  0
    1.3437    1.3806   -0.0928 C   0  0  0  0  0  0  0  0  0  0  0  0
   -2.0013    2.4185    1.4886 H   0  0  0  0  0  0  0  0  0  0  0  0
   -3.6524    2.2595    0.8965 H   0  0  0  0  0  0  0  0  0  0  0  0
   -3.3015    2.0268    2.6192 H   0  0  0  0  0  0  0  0  0  0  0  0
   -1.9753   -0.0214    2.1014 H   0  0  0  0  0  0  0  0  0  0  0  0
   -4.7990    0.1394    2.0571 H   0  0  0  0  0  0  0  0  0  0  0  0
   -3.8715   -1.3875    1.9935 H   0  0  0  0  0  0  0  0  0  0  0  0
   -6.4373   -1.3443    0.2416 H   0  0  0  0  0  0  0  0  0  0  0  0
   -6.6475   -1.7162   -2.2086 H   0  0  0  0  0  0  0  0  0  0  0  0
   -4.7302   -1.2569   -3.7091 H   0  0  0  0  0  0  0  0  0  0  0  0
   -2.5986   -0.4070   -2.8084 H   0  0  0  0  0  0  0  0  0  0  0  0
   -0.2157    1.1277    1.3301 H   0  0  0  0  0  0  0  0  0  0  0  0
    1.2756   -0.6698    1.8572 H   0  0  0  0  0  0  0  0  0  0  0  0
   -0.2097   -1.4284    1.3237 H   0  0  0  0  0  0  0  0  0  0  0  0
    2.0637   -2.3238    0.4297 H   0  0  0  0  0  0  0  0  0  0  0  0
    0.7319   -2.1845   -0.6947 H   0  0  0  0  0  0  0  0  0  0  0  0
    1.7128   -0.4798   -1.9145 H   0  0  0  0  0  0  0  0  0  0  0  0
    3.1558   -1.2525   -1.2890 H   0  0  0  0  0  0  0  0  0  0  0  0
    6.1351    0.2218    1.7420 H   0  0  0  0  0  0  0  0  0  0  0  0
    5.3587    1.7980    1.6577 H   0  0  0  0  0  0  0  0  0  0  0  0
    4.3704    0.3174    1.8397 H   0  0  0  0  0  0  0  0  0  0  0  0
    5.5472   -0.7009   -1.7200 H   0  0  0  0  0  0  0  0  0  0  0  0
    6.7170   -0.7634   -0.4126 H   0  0  0  0  0  0  0  0  0  0  0  0
    5.1125   -1.4823   -0.1708 H   0  0  0  0  0  0  0  0  0  0  0  0
    1.0858    1.8967   -1.0223 H   0  0  0  0  0  0  0  0  0  0  0  0
    1.5813    2.1496    0.6527 H   0  0  0  0  0  0  0  0  0  0  0  0
  1  2  1  0
  2  3  1  0
  3  4  1  0
  4  5  2  0
  5  6  1  0
  6  7  2  0
  7  8  1  0
  8  9  2  0
  9 10  1  0
 10 11  1  0
 11 12  2  0
 11 13  1  0
 13 14  1  0
 14 15  1  0
 15 16  1  0
 16 17  1  0
 17 18  1  0
 18 19  2  0
 18 20  2  0
 18 21  1  0
 21 22  1  0
 21 23  1  0
 17 24  1  0
 10  2  1  0
 24 13  1  0
  9  4  1  0
  1 25  1  0
  1 26  1  0
  1 27  1  0
  2 28  1  0
  3 29  1  0
  3 30  1  0
  5 31  1  0
  6 32  1  0
  7 33  1  0
  8 34  1  0
 13 35  1  0
 14 36  1  0
 14 37  1  0
 15 38  1  0
 15 39  1  0
 16 40  1  0
 16 41  1  0
 22 42  1  0
 22 43  1  0
 22 44  1  0
 23 45  1  0
 23 46  1  0
 23 47  1  0
 24 48  1  0
 24 49  1  0
M  END
$$$$
