
     RDKit          3D

 44 46  0  0  0  0  0  0  0  0999 V2000
   -6.2643   -0.2460   -4.2232 C   0  0  0  0  0  0  0  0  0  0  0  0
   -6.2065    0.3588   -2.9396 O   0  0  0  0  0  0  0  0  0  0  0  0
   -5.0569    0.1934   -2.2078 C   0  0  0  0  0  0  0  0  0  0  0  0
   -3.9479   -0.5422   -2.6345 C   0  0  0  0  0  0  0  0  0  0  0  0
   -2.8187   -0.6559   -1.8176 C   0  0  0  0  0  0  0  0  0  0  0  0
   -2.7778   -0.0384   -0.5620 C   0  0  0  0  0  0  0  0  0  0  0  0
   -1.5921   -0.1676    0.2804 C   0  0  0  0  0  0  0  0  0  0  0  0
   -1.4660    0.3982    1.4928 N   0  0  0  0  0  0  0  0  0  0  0  0
   -0.1926    0.0175    1.9085 O   0  0  0  0  0  0  0  0  0  0  0  0
    0.3286   -0.7492    0.9092 C   0  0  0  0  0  0  0  0  0  0  0  0
    1.6836   -1.3075    1.1344 C   0  0  0  0  0  0  0  0  0  0  0  0
    2.6063   -0.2263    1.0400 O   0  0  0  0  0  0  0  0  0  0  0  0
    3.9357   -0.4943    1.2487 C   0  0  0  0  0  0  0  0  0  0  0  0
    4.4623   -1.7699    1.4779 C   0  0  0  0  0  0  0  0  0  0  0  0
    5.8355   -1.9386    1.6766 C   0  0  0  0  0  0  0  0  0  0  0  0
    6.6908   -0.8352    1.6466 C   0  0  0  0  0  0  0  0  0  0  0  0
    8.0989   -1.0126    1.8510 C   0  0  0  0  0  0  0  0  0  0  0  0
    9.2384   -1.1556    2.0165 N   0  0  0  0  0  0  0  0  0  0  0  0
    6.1722    0.4439    1.4163 C   0  0  0  0  0  0  0  0  0  0  0  0
    4.7987    0.6218    1.2160 C   0  0  0  0  0  0  0  0  0  0  0  0
    4.1990    1.8345    0.9850 O   0  0  0  0  0  0  0  0  0  0  0  0
    5.0274    2.9877    0.9319 C   0  0  0  0  0  0  0  0  0  0  0  0
   -0.4929   -0.9077   -0.1051 N   0  0  0  0  0  0  0  0  0  0  0  0
   -3.8924    0.7009   -0.1353 C   0  0  0  0  0  0  0  0  0  0  0  0
   -5.0289    0.8216   -0.9463 C   0  0  0  0  0  0  0  0  0  0  0  0
   -6.1570    1.5249   -0.5998 O   0  0  0  0  0  0  0  0  0  0  0  0
   -6.1594    2.1962    0.6521 C   0  0  0  0  0  0  0  0  0  0  0  0
   -6.1916   -1.3361   -4.1498 H   0  0  0  0  0  0  0  0  0  0  0  0
   -7.2380   -0.0074   -4.6619 H   0  0  0  0  0  0  0  0  0  0  0  0
   -5.4931    0.1592   -4.8865 H   0  0  0  0  0  0  0  0  0  0  0  0
   -3.9269   -1.0408   -3.5977 H   0  0  0  0  0  0  0  0  0  0  0  0
   -1.9670   -1.2332   -2.1736 H   0  0  0  0  0  0  0  0  0  0  0  0
    1.8952   -2.0572    0.3635 H   0  0  0  0  0  0  0  0  0  0  0  0
    1.7260   -1.7673    2.1286 H   0  0  0  0  0  0  0  0  0  0  0  0
    3.8373   -2.6566    1.5054 H   0  0  0  0  0  0  0  0  0  0  0  0
    6.2309   -2.9379    1.8534 H   0  0  0  0  0  0  0  0  0  0  0  0
    6.8581    1.2858    1.3977 H   0  0  0  0  0  0  0  0  0  0  0  0
    4.3856    3.8518    0.7351 H   0  0  0  0  0  0  0  0  0  0  0  0
    5.7505    2.9168    0.1129 H   0  0  0  0  0  0  0  0  0  0  0  0
    5.5289    3.1572    1.8903 H   0  0  0  0  0  0  0  0  0  0  0  0
   -3.8548    1.1779    0.8393 H   0  0  0  0  0  0  0  0  0  0  0  0
   -5.3718    2.9557    0.6954 H   0  0  0  0  0  0  0  0  0  0  0  0
   -7.1206    2.7091    0.7543 H   0  0  0  0  0  0  0  0  0  0  0  0
   -6.0727    1.4860    1.4809 H   0  0  0  0  0  0  0  0  0  0  0  0
  1  2  1  0
  2  3  1  0
  3  4  2  0
  4  5  1  0
  5  6  2  0
  6  7  1  0
  7  8  2  0
  8  9  1  0
  9 10  1  0
 10 11  1  0
 11 12  1  0
 12 13  1  0
 13 14  2  0
 14 15  1  0
 15 16  2  0
 16 17  1  0
 17 18  3  0
 16 19  1  0
 19 20  2  0
 20 21  1  0
 21 22  1  0
 10 23  2  0
  6 24  1  0
 24 25  2  0
 25 26  1  0
 26 27  1  0
 25  3  1  0
 23  7  1  0
 20 13  1  0
  1 28  1  0
  1 29  1  0
  1 30  1  0
  4 31  1  0
  5 32  1  0
 11 33  1  0
 11 34  1  0
 14 35  1  0
 15 36  1  0
 19 37  1  0
 22 38  1  0
 22 39  1  0
 22 40  1  0
 24 41  1  0
 27 42  1  0
 27 43  1  0
 27 44  1  0
M  END
$$$$
