
     RDKit          3D

 34 35  0  0  0  0  0  0  0  0999 V2000
   -3.3828    3.3654    0.5351 C   0  0  0  0  0  0  0  0  0  0  0  0
   -2.1964    2.4569    0.2653 C   0  0  0  0  0  0  0  0  0  0  0  0
   -2.4570    1.0154    0.6770 C   0  0  0  0  0  0  0  0  0  0  0  0
   -3.5152    0.6618    1.1826 O   0  0  0  0  0  0  0  0  0  0  0  0
   -1.3587    0.2141    0.4128 N   0  0  0  0  0  0  0  0  0  0  0  0
   -1.2160   -1.1860    0.5963 C   0  0  0  0  0  0  0  0  0  0  0  0
   -2.2863   -1.9786    1.0383 C   0  0  0  0  0  0  0  0  0  0  0  0
   -2.1494   -3.3595    1.1906 C   0  0  0  0  0  0  0  0  0  0  0  0
   -0.9376   -3.9644    0.8976 C   0  0  0  0  0  0  0  0  0  0  0  0
   -0.7495   -5.8354    1.0864 Br  0  0  0  0  0  0  0  0  0  0  0  0
    0.1430   -3.1987    0.4639 C   0  0  0  0  0  0  0  0  0  0  0  0
    0.0409   -1.7966    0.3155 C   0  0  0  0  0  0  0  0  0  0  0  0
    1.2237   -1.0226   -0.1179 C   0  0  0  0  0  0  0  0  0  0  0  0
    1.0013   -0.0030   -0.9758 N   0  0  0  0  0  0  0  0  0  0  0  0
    2.0521    0.7696   -1.3977 N   0  0  0  0  0  0  0  0  0  0  0  0
    3.3012    0.5001   -0.9613 C   0  0  0  0  0  0  0  0  0  0  0  0
    4.6624    1.4992   -1.5070 S   0  0  0  0  0  0  0  0  0  0  0  0
    3.8786    2.4008   -2.8666 C   0  0  0  0  0  0  0  0  0  0  0  0
    3.5889   -0.4884   -0.1005 N   0  0  0  0  0  0  0  0  0  0  0  0
    2.5328   -1.2192    0.2958 C   0  0  0  0  0  0  0  0  0  0  0  0
    2.8831   -2.1774    1.1948 O   0  0  0  0  0  0  0  0  0  0  0  0
   -3.1565    4.3901    0.2246 H   0  0  0  0  0  0  0  0  0  0  0  0
   -4.2684    3.0291   -0.0141 H   0  0  0  0  0  0  0  0  0  0  0  0
   -3.6337    3.3784    1.6009 H   0  0  0  0  0  0  0  0  0  0  0  0
   -1.9605    2.4757   -0.8048 H   0  0  0  0  0  0  0  0  0  0  0  0
   -1.3241    2.8239    0.8179 H   0  0  0  0  0  0  0  0  0  0  0  0
   -0.5626    0.6800   -0.0162 H   0  0  0  0  0  0  0  0  0  0  0  0
   -3.2583   -1.5510    1.2651 H   0  0  0  0  0  0  0  0  0  0  0  0
   -2.9997   -3.9451    1.5310 H   0  0  0  0  0  0  0  0  0  0  0  0
    1.0794   -3.7053    0.2357 H   0  0  0  0  0  0  0  0  0  0  0  0
    4.6250    3.0414   -3.3444 H   0  0  0  0  0  0  0  0  0  0  0  0
    3.0697    3.0368   -2.4965 H   0  0  0  0  0  0  0  0  0  0  0  0
    3.4893    1.7084   -3.6183 H   0  0  0  0  0  0  0  0  0  0  0  0
    3.8414   -2.0159    1.2786 H   0  0  0  0  0  0  0  0  0  0  0  0
  1  2  1  0
  2  3  1  0
  3  4  2  0
  3  5  1  0
  5  6  1  0
  6  7  2  0
  7  8  1  0
  8  9  2  0
  9 10  1  0
  9 11  1  0
 11 12  2  0
 12 13  1  0
 13 14  2  0
 14 15  1  0
 15 16  2  0
 16 17  1  0
 17 18  1  0
 16 19  1  0
 19 20  2  0
 20 21  1  0
 12  6  1  0
 20 13  1  0
  1 22  1  0
  1 23  1  0
  1 24  1  0
  2 25  1  0
  2 26  1  0
  5 27  1  0
  7 28  1  0
  8 29  1  0
 11 30  1  0
 18 31  1  0
 18 32  1  0
 18 33  1  0
 21 34  1  0
M  END
$$$$
