
     RDKit          3D

 28 29  0  0  0  0  0  0  0  0999 V2000
   -4.6193    1.3653    0.0421 C   0  0  0  0  0  0  0  0  0  0  0  0
   -3.4558    0.4502   -0.1177 C   0  0  0  0  0  0  0  0  0  0  0  0
   -2.2318    0.7833    0.1470 N   0  0  0  0  0  0  0  0  0  0  0  0
   -1.4574   -0.3307   -0.1256 N   0  0  0  0  0  0  0  0  0  0  0  0
   -0.0578   -0.2488    0.0859 C   0  0  0  0  0  0  0  0  0  0  0  0
    0.5144    0.9475    0.5559 C   0  0  0  0  0  0  0  0  0  0  0  0
    1.8916    1.0588    0.7727 C   0  0  0  0  0  0  0  0  0  0  0  0
    2.7164   -0.0345    0.5121 C   0  0  0  0  0  0  0  0  0  0  0  0
    4.4614    0.1033    0.7904 S   0  0  0  0  0  6  0  0  0  0  0  0
    4.9844    0.7449   -0.6766 N   0  0  0  0  0  0  0  0  0  0  0  0
    4.6855    1.0943    1.8152 O   0  0  0  0  0  0  0  0  0  0  0  0
    5.0237   -1.2259    0.8556 O   0  0  0  0  0  0  0  0  0  0  0  0
    2.1745   -1.2368    0.0594 C   0  0  0  0  0  0  0  0  0  0  0  0
    0.7941   -1.3371   -0.1551 C   0  0  0  0  0  0  0  0  0  0  0  0
   -2.1970   -1.4302   -0.5920 C   0  0  0  0  0  0  0  0  0  0  0  0
   -1.8439   -2.5480   -0.9309 O   0  0  0  0  0  0  0  0  0  0  0  0
   -3.6177   -0.9505   -0.6070 C   0  0  0  0  0  0  0  0  0  0  0  0
   -5.1143    1.4938   -0.9240 H   0  0  0  0  0  0  0  0  0  0  0  0
   -5.3270    0.9306    0.7527 H   0  0  0  0  0  0  0  0  0  0  0  0
   -4.2906    2.3402    0.4112 H   0  0  0  0  0  0  0  0  0  0  0  0
   -0.1126    1.8119    0.7663 H   0  0  0  0  0  0  0  0  0  0  0  0
    2.3043    1.9935    1.1478 H   0  0  0  0  0  0  0  0  0  0  0  0
    4.2198    1.0417   -1.2818 H   0  0  0  0  0  0  0  0  0  0  0  0
    5.5920    0.0637   -1.1351 H   0  0  0  0  0  0  0  0  0  0  0  0
    2.8077   -2.1025   -0.1249 H   0  0  0  0  0  0  0  0  0  0  0  0
    0.4095   -2.2907   -0.5070 H   0  0  0  0  0  0  0  0  0  0  0  0
   -4.2326   -1.5295    0.0843 H   0  0  0  0  0  0  0  0  0  0  0  0
   -4.0213   -0.9578   -1.6211 H   0  0  0  0  0  0  0  0  0  0  0  0
  1  2  1  0
  2  3  2  0
  3  4  1  0
  4  5  1  0
  5  6  2  0
  6  7  1  0
  7  8  2  0
  8  9  1  0
  9 10  1  0
  9 11  2  0
  9 12  2  0
  8 13  1  0
 13 14  2  0
  4 15  1  0
 15 16  2  0
 15 17  1  0
 17  2  1  0
 14  5  1  0
  1 18  1  0
  1 19  1  0
  1 20  1  0
  6 21  1  0
  7 22  1  0
 10 23  1  0
 10 24  1  0
 13 25  1  0
 14 26  1  0
 17 27  1  0
 17 28  1  0
M  END
$$$$
