
     RDKit          3D

 55 59  0  0  0  0  0  0  0  0999 V2000
    1.9394   -2.6766    1.5171 C   0  0  0  0  0  0  0  0  0  0  0  0
    0.5892   -2.1333    1.1277 C   0  0  0  0  0  0  0  0  0  0  0  0
    0.2140   -0.8404    1.2617 C   0  0  0  0  0  0  0  0  0  0  0  0
    1.0966    0.1940    1.8577 C   0  0  0  0  0  0  0  0  0  0  0  0
    0.8074    0.6419    2.9666 O   0  0  0  0  0  0  0  0  0  0  0  0
    2.1980    0.6203    1.1310 N   0  0  0  0  0  0  0  0  0  0  0  0
    3.0260    1.6652    1.7301 C   0  0  0  0  0  0  0  0  0  0  0  0
    4.3594    1.8367    1.0136 C   0  0  0  0  0  0  0  0  0  0  0  0
    4.1710    2.1370   -0.4735 C   0  0  0  0  0  0  0  0  0  0  0  0
    2.9311    1.4655   -1.0671 C   0  0  0  0  0  0  0  0  0  0  0  0
    2.4960    0.2502   -0.2561 C   0  0  0  0  0  0  0  0  0  0  0  0
   -1.2080   -0.3761    0.9524 C   0  0  0  0  0  0  0  0  0  0  0  0
   -1.2028    0.6391   -0.1982 C   0  0  0  0  0  0  0  0  0  0  0  0
   -1.0456    0.2296   -1.5475 C   0  0  0  0  0  0  0  0  0  0  0  0
   -1.0047    1.1636   -2.5873 C   0  0  0  0  0  0  0  0  0  0  0  0
   -1.1167    2.4953   -2.2559 C   0  0  0  0  0  0  0  0  0  0  0  0
   -1.2641    2.9080   -0.9533 C   0  0  0  0  0  0  0  0  0  0  0  0
   -1.3101    2.0117    0.0934 C   0  0  0  0  0  0  0  0  0  0  0  0
   -1.3455    4.2612   -0.8443 O   0  0  0  0  0  0  0  0  0  0  0  0
   -1.2580    4.6501   -2.2296 C   0  0  0  0  0  0  0  0  0  0  0  0
   -1.0889    3.5360   -3.1310 O   0  0  0  0  0  0  0  0  0  0  0  0
   -2.1455   -1.5456    0.6773 C   0  0  0  0  0  0  0  0  0  0  0  0
   -1.6802   -2.8031    0.5203 C   0  0  0  0  0  0  0  0  0  0  0  0
   -2.5773   -3.9731    0.2036 C   0  0  0  0  0  0  0  0  0  0  0  0
   -3.8931   -3.5274   -0.4231 C   0  0  0  0  0  0  0  0  0  0  0  0
   -4.5516   -2.4428    0.4115 C   0  0  0  0  0  0  0  0  0  0  0  0
   -3.6124   -1.2831    0.6616 C   0  0  0  0  0  0  0  0  0  0  0  0
   -4.0540   -0.1646    0.9185 O   0  0  0  0  0  0  0  0  0  0  0  0
   -0.3259   -3.0651    0.6508 N   0  0  0  0  0  0  0  0  0  0  0  0
    2.4888   -2.9895    0.6232 H   0  0  0  0  0  0  0  0  0  0  0  0
    1.8208   -3.5494    2.1688 H   0  0  0  0  0  0  0  0  0  0  0  0
    2.5575   -1.9581    2.0615 H   0  0  0  0  0  0  0  0  0  0  0  0
    3.1955    1.4263    2.7864 H   0  0  0  0  0  0  0  0  0  0  0  0
    2.4520    2.5994    1.6936 H   0  0  0  0  0  0  0  0  0  0  0  0
    4.9432    0.9132    1.1190 H   0  0  0  0  0  0  0  0  0  0  0  0
    4.9460    2.6341    1.4831 H   0  0  0  0  0  0  0  0  0  0  0  0
    4.0952    3.2200   -0.6290 H   0  0  0  0  0  0  0  0  0  0  0  0
    5.0669    1.8122   -1.0159 H   0  0  0  0  0  0  0  0  0  0  0  0
    2.1101    2.1935   -1.0879 H   0  0  0  0  0  0  0  0  0  0  0  0
    3.1256    1.1810   -2.1072 H   0  0  0  0  0  0  0  0  0  0  0  0
    1.6394   -0.2224   -0.7370 H   0  0  0  0  0  0  0  0  0  0  0  0
    3.3019   -0.4926   -0.2269 H   0  0  0  0  0  0  0  0  0  0  0  0
   -1.5913    0.1186    1.8569 H   0  0  0  0  0  0  0  0  0  0  0  0
   -0.9416   -0.8265   -1.7893 H   0  0  0  0  0  0  0  0  0  0  0  0
   -0.8855    0.8533   -3.6188 H   0  0  0  0  0  0  0  0  0  0  0  0
   -1.4238    2.3672    1.1132 H   0  0  0  0  0  0  0  0  0  0  0  0
   -0.4056    5.3285   -2.3494 H   0  0  0  0  0  0  0  0  0  0  0  0
   -2.1742    5.1864   -2.5029 H   0  0  0  0  0  0  0  0  0  0  0  0
   -2.0747   -4.6538   -0.4945 H   0  0  0  0  0  0  0  0  0  0  0  0
   -2.7681   -4.5365    1.1252 H   0  0  0  0  0  0  0  0  0  0  0  0
   -3.7036   -3.1463   -1.4352 H   0  0  0  0  0  0  0  0  0  0  0  0
   -4.5678   -4.3847   -0.5251 H   0  0  0  0  0  0  0  0  0  0  0  0
   -4.8699   -2.8383    1.3824 H   0  0  0  0  0  0  0  0  0  0  0  0
   -5.4347   -2.0675   -0.1170 H   0  0  0  0  0  0  0  0  0  0  0  0
   -0.0457   -4.0425    0.6902 H   0  0  0  0  0  0  0  0  0  0  0  0
  1  2  1  0
  2  3  2  0
  3  4  1  0
  4  5  2  0
  4  6  1  0
  6  7  1  0
  7  8  1  0
  8  9  1  0
  9 10  1  0
 10 11  1  0
  3 12  1  0
 12 13  1  0
 13 14  2  0
 14 15  1  0
 15 16  2  0
 16 17  1  0
 17 18  2  0
 17 19  1  0
 19 20  1  0
 20 21  1  0
 12 22  1  0
 22 23  2  0
 23 24  1  0
 24 25  1  0
 25 26  1  0
 26 27  1  0
 27 28  2  0
 23 29  1  0
 29  2  1  0
 11  6  1  0
 18 13  1  0
 27 22  1  0
 21 16  1  0
  1 30  1  0
  1 31  1  0
  1 32  1  0
  7 33  1  0
  7 34  1  0
  8 35  1  0
  8 36  1  0
  9 37  1  0
  9 38  1  0
 10 39  1  0
 10 40  1  0
 11 41  1  0
 11 42  1  0
 12 43  1  0
 14 44  1  0
 15 45  1  0
 18 46  1  0
 20 47  1  0
 20 48  1  0
 24 49  1  0
 24 50  1  0
 25 51  1  0
 25 52  1  0
 26 53  1  0
 26 54  1  0
 29 55  1  0
M  END
$$$$
