
     RDKit          3D

 43 47  0  0  0  0  0  0  0  0999 V2000
   -1.7994    2.6330    0.9682 C   0  0  0  0  0  0  0  0  0  0  0  0
   -0.4416    1.9123    1.0829 C   0  0  0  0  0  0  0  0  0  0  0  0
    0.6143    2.8858    0.5517 C   0  0  0  0  0  0  0  0  0  0  0  0
   -0.4643    0.4931    0.4141 C   0  0  0  0  0  0  0  0  0  0  0  0
   -0.7817    0.5697   -0.9850 O   0  0  0  0  0  0  0  0  0  0  0  0
   -1.8222   -0.3673   -1.2931 C   0  0  0  0  0  0  0  0  0  0  0  0
   -1.2717   -1.8125   -1.4267 C   0  0  0  0  0  0  0  0  0  0  0  0
   -1.9003   -2.4823   -2.5160 O   0  0  0  0  0  0  0  0  0  0  0  0
   -1.7304   -2.4562   -0.0976 C   0  0  0  0  0  0  0  0  0  0  0  0
   -3.1502   -1.8883    0.0344 C   0  0  0  0  0  0  0  0  0  0  0  0
   -2.6799   -0.4447   -0.0289 C   0  0  0  0  0  0  0  0  0  0  0  0
   -1.5913   -0.3469    1.0383 C   0  0  0  0  0  0  0  0  0  0  0  0
   -1.0557   -1.7783    1.1093 C   0  0  0  0  0  0  0  0  0  0  0  0
    0.4325   -1.6310    1.0200 C   0  0  0  0  0  0  0  0  0  0  0  0
    1.1878   -2.5767    1.1969 O   0  0  0  0  0  0  0  0  0  0  0  0
    0.7373   -0.3233    0.6066 N   0  0  0  0  0  0  0  0  0  0  0  0
    2.0331   -0.0356    0.0815 C   0  0  0  0  0  0  0  0  0  0  0  0
    2.2228    0.7260   -1.0792 C   0  0  0  0  0  0  0  0  0  0  0  0
    3.5070    0.9828   -1.5763 C   0  0  0  0  0  0  0  0  0  0  0  0
    4.6209    0.4747   -0.9176 C   0  0  0  0  0  0  0  0  0  0  0  0
    6.1973    0.7913   -1.5266 Cl  0  0  0  0  0  0  0  0  0  0  0  0
    4.4602   -0.2915    0.2302 C   0  0  0  0  0  0  0  0  0  0  0  0
    3.1745   -0.5459    0.7213 C   0  0  0  0  0  0  0  0  0  0  0  0
   -2.5956    2.0904    1.4848 H   0  0  0  0  0  0  0  0  0  0  0  0
   -1.7546    3.6259    1.4299 H   0  0  0  0  0  0  0  0  0  0  0  0
   -2.0937    2.7651   -0.0784 H   0  0  0  0  0  0  0  0  0  0  0  0
   -0.2330    1.7744    2.1528 H   0  0  0  0  0  0  0  0  0  0  0  0
    0.4988    3.8739    1.0129 H   0  0  0  0  0  0  0  0  0  0  0  0
    1.6248    2.5592    0.8060 H   0  0  0  0  0  0  0  0  0  0  0  0
    0.5312    3.0224   -0.5305 H   0  0  0  0  0  0  0  0  0  0  0  0
   -2.3739   -0.0434   -2.1805 H   0  0  0  0  0  0  0  0  0  0  0  0
   -0.1901   -1.8456   -1.5855 H   0  0  0  0  0  0  0  0  0  0  0  0
   -1.4788   -3.3565   -2.5965 H   0  0  0  0  0  0  0  0  0  0  0  0
   -1.6849   -3.5476   -0.0915 H   0  0  0  0  0  0  0  0  0  0  0  0
   -3.6273   -2.1419    0.9869 H   0  0  0  0  0  0  0  0  0  0  0  0
   -3.8134   -2.1623   -0.7918 H   0  0  0  0  0  0  0  0  0  0  0  0
   -3.4497    0.3257    0.0391 H   0  0  0  0  0  0  0  0  0  0  0  0
   -1.9380   -0.0261    2.0254 H   0  0  0  0  0  0  0  0  0  0  0  0
   -1.3345   -2.2538    2.0561 H   0  0  0  0  0  0  0  0  0  0  0  0
    1.3831    1.1152   -1.6460 H   0  0  0  0  0  0  0  0  0  0  0  0
    3.6233    1.5728   -2.4815 H   0  0  0  0  0  0  0  0  0  0  0  0
    5.3233   -0.6973    0.7507 H   0  0  0  0  0  0  0  0  0  0  0  0
    3.0843   -1.1389    1.6292 H   0  0  0  0  0  0  0  0  0  0  0  0
  1  2  1  0
  2  3  1  0
  2  4  1  0
  4  5  1  0
  5  6  1  0
  6  7  1  0
  7  8  1  0
  7  9  1  0
  9 10  1  0
 10 11  1  0
 11 12  1  0
 12 13  1  0
 13 14  1  0
 14 15  2  0
 14 16  1  0
 16 17  1  0
 17 18  2  0
 18 19  1  0
 19 20  2  0
 20 21  1  0
 20 22  1  0
 22 23  2  0
 12  4  1  0
 23 17  1  0
 16  4  1  0
 11  6  1  0
 13  9  1  0
  1 24  1  0
  1 25  1  0
  1 26  1  0
  2 27  1  0
  3 28  1  0
  3 29  1  0
  3 30  1  0
  6 31  1  0
  7 32  1  0
  8 33  1  0
  9 34  1  0
 10 35  1  0
 10 36  1  0
 11 37  1  0
 12 38  1  0
 13 39  1  0
 18 40  1  0
 19 41  1  0
 22 42  1  0
 23 43  1  0
M  END
$$$$
