
     RDKit          3D

 51 53  0  0  0  0  0  0  0  0999 V2000
   10.4303   -0.7211   -1.0954 C   0  0  0  0  0  0  0  0  0  0  0  0
    9.0167   -0.8388   -1.1942 O   0  0  0  0  0  0  0  0  0  0  0  0
    8.3539    0.0850   -0.3313 C   0  0  0  0  0  0  0  0  0  0  0  0
    6.8447   -0.0809   -0.4788 C   0  0  0  0  0  0  0  0  0  0  0  0
    6.1971    0.8448    0.3931 O   0  0  0  0  0  0  0  0  0  0  0  0
    4.8301    0.8428    0.4009 C   0  0  0  0  0  0  0  0  0  0  0  0
    4.0052    0.0190   -0.3672 C   0  0  0  0  0  0  0  0  0  0  0  0
    2.6120    0.1192   -0.2615 C   0  0  0  0  0  0  0  0  0  0  0  0
    2.0376    1.0416    0.6221 C   0  0  0  0  0  0  0  0  0  0  0  0
    0.5605    1.1810    0.7626 C   0  0  0  0  0  0  0  0  0  0  0  0
    0.1000    2.3000    0.9512 O   0  0  0  0  0  0  0  0  0  0  0  0
   -0.1434   -0.0081    0.6933 N   0  0  0  0  0  0  0  0  0  0  0  0
   -1.5415   -0.1811    0.7662 C   0  0  0  0  0  0  0  0  0  0  0  0
   -2.4541    0.8720    0.8747 C   0  0  0  0  0  0  0  0  0  0  0  0
   -3.8290    0.6179    0.9383 C   0  0  0  0  0  0  0  0  0  0  0  0
   -4.2980   -0.6946    0.8703 C   0  0  0  0  0  0  0  0  0  0  0  0
   -5.7432   -0.9931    0.9560 C   0  0  0  0  0  0  0  0  0  0  0  0
   -6.1310   -1.7092    1.8753 O   0  0  0  0  0  0  0  0  0  0  0  0
   -6.5802   -0.4805   -0.0173 N   0  0  0  0  0  0  0  0  0  0  0  0
   -6.1947    0.1702   -1.2627 C   0  0  0  0  0  0  0  0  0  0  0  0
   -7.5170    0.5380   -1.9214 C   0  0  0  0  0  0  0  0  0  0  0  0
   -8.4536   -0.5619   -1.4415 C   0  0  0  0  0  0  0  0  0  0  0  0
   -7.9988   -0.7963   -0.0081 C   0  0  0  0  0  0  0  0  0  0  0  0
   -3.3967   -1.7565    0.7848 C   0  0  0  0  0  0  0  0  0  0  0  0
   -2.0243   -1.4974    0.7260 C   0  0  0  0  0  0  0  0  0  0  0  0
    2.8631    1.8804    1.3763 C   0  0  0  0  0  0  0  0  0  0  0  0
    4.2517    1.7739    1.2679 C   0  0  0  0  0  0  0  0  0  0  0  0
   10.8844   -1.4484   -1.7738 H   0  0  0  0  0  0  0  0  0  0  0  0
   10.7624   -0.9390   -0.0758 H   0  0  0  0  0  0  0  0  0  0  0  0
   10.7527    0.2819   -1.3914 H   0  0  0  0  0  0  0  0  0  0  0  0
    8.6420    1.1119   -0.5871 H   0  0  0  0  0  0  0  0  0  0  0  0
    8.6482   -0.0955    0.7096 H   0  0  0  0  0  0  0  0  0  0  0  0
    6.5709   -1.1117   -0.2215 H   0  0  0  0  0  0  0  0  0  0  0  0
    6.5642    0.1089   -1.5225 H   0  0  0  0  0  0  0  0  0  0  0  0
    4.4130   -0.7044   -1.0664 H   0  0  0  0  0  0  0  0  0  0  0  0
    1.9929   -0.5069   -0.8984 H   0  0  0  0  0  0  0  0  0  0  0  0
    0.4002   -0.8601    0.6511 H   0  0  0  0  0  0  0  0  0  0  0  0
   -2.1283    1.9065    0.9232 H   0  0  0  0  0  0  0  0  0  0  0  0
   -4.5230    1.4463    1.0543 H   0  0  0  0  0  0  0  0  0  0  0  0
   -5.5731    1.0496   -1.0838 H   0  0  0  0  0  0  0  0  0  0  0  0
   -5.6328   -0.5527   -1.8642 H   0  0  0  0  0  0  0  0  0  0  0  0
   -7.4439    0.5945   -3.0108 H   0  0  0  0  0  0  0  0  0  0  0  0
   -7.8653    1.5089   -1.5486 H   0  0  0  0  0  0  0  0  0  0  0  0
   -8.2951   -1.4684   -2.0382 H   0  0  0  0  0  0  0  0  0  0  0  0
   -9.5095   -0.2865   -1.5094 H   0  0  0  0  0  0  0  0  0  0  0  0
   -8.1823   -1.8214    0.3274 H   0  0  0  0  0  0  0  0  0  0  0  0
   -8.4874   -0.1017    0.6839 H   0  0  0  0  0  0  0  0  0  0  0  0
   -3.7619   -2.7807    0.7700 H   0  0  0  0  0  0  0  0  0  0  0  0
   -1.3420   -2.3406    0.6566 H   0  0  0  0  0  0  0  0  0  0  0  0
    2.4290    2.6163    2.0502 H   0  0  0  0  0  0  0  0  0  0  0  0
    4.8875    2.4267    1.8618 H   0  0  0  0  0  0  0  0  0  0  0  0
  1  2  1  0
  2  3  1  0
  3  4  1  0
  4  5  1  0
  5  6  1  0
  6  7  2  0
  7  8  1  0
  8  9  2  0
  9 10  1  0
 10 11  2  0
 10 12  1  0
 12 13  1  0
 13 14  2  0
 14 15  1  0
 15 16  2  0
 16 17  1  0
 17 18  2  0
 17 19  1  0
 19 20  1  0
 20 21  1  0
 21 22  1  0
 22 23  1  0
 16 24  1  0
 24 25  2  0
  9 26  1  0
 26 27  2  0
 27  6  1  0
 25 13  1  0
 23 19  1  0
  1 28  1  0
  1 29  1  0
  1 30  1  0
  3 31  1  0
  3 32  1  0
  4 33  1  0
  4 34  1  0
  7 35  1  0
  8 36  1  0
 12 37  1  0
 14 38  1  0
 15 39  1  0
 20 40  1  0
 20 41  1  0
 21 42  1  0
 21 43  1  0
 22 44  1  0
 22 45  1  0
 23 46  1  0
 23 47  1  0
 24 48  1  0
 25 49  1  0
 26 50  1  0
 27 51  1  0
M  END
$$$$
