
     RDKit          3D

 41 43  0  0  0  0  0  0  0  0999 V2000
   -6.5467   -0.1380    0.8273 C   0  0  0  0  0  0  0  0  0  0  0  0
   -5.6942   -1.1682    0.1015 C   0  0  0  0  0  0  0  0  0  0  0  0
   -4.5269   -0.5569   -0.5165 N   0  0  0  0  0  0  0  0  0  0  0  0
   -4.6087   -0.0849   -1.8138 C   0  0  0  0  0  0  0  0  0  0  0  0
   -3.6571    0.4968   -2.4686 N   0  0  0  0  0  0  0  0  0  0  0  0
   -2.5044    0.6401   -1.7686 C   0  0  0  0  0  0  0  0  0  0  0  0
   -1.1409    1.3820   -2.4587 S   0  0  0  0  0  0  0  0  0  0  0  0
   -0.2013    1.1485   -1.0434 C   0  0  0  0  0  0  0  0  0  0  0  0
    1.1953    1.5777   -1.0793 C   0  0  0  0  0  0  0  0  0  0  0  0
    1.5459    2.6414   -1.5801 O   0  0  0  0  0  0  0  0  0  0  0  0
    2.0536    0.6507   -0.5203 N   0  0  0  0  0  0  0  0  0  0  0  0
    3.4528    0.7258   -0.3479 C   0  0  0  0  0  0  0  0  0  0  0  0
    4.2219    1.8332   -0.7097 C   0  0  0  0  0  0  0  0  0  0  0  0
    5.6027    1.8273   -0.5018 C   0  0  0  0  0  0  0  0  0  0  0  0
    6.2209    0.7180    0.0693 C   0  0  0  0  0  0  0  0  0  0  0  0
    5.4625   -0.3945    0.4383 C   0  0  0  0  0  0  0  0  0  0  0  0
    4.0796   -0.3985    0.2340 C   0  0  0  0  0  0  0  0  0  0  0  0
    3.2366   -1.4365    0.5640 O   0  0  0  0  0  0  0  0  0  0  0  0
    3.8333   -2.5956    1.1333 C   0  0  0  0  0  0  0  0  0  0  0  0
   -0.9400    0.5669   -0.0157 C   0  0  0  0  0  0  0  0  0  0  0  0
   -0.4526    0.3163    1.3788 C   0  0  0  0  0  0  0  0  0  0  0  0
   -2.2714    0.2426   -0.4710 C   0  0  0  0  0  0  0  0  0  0  0  0
   -3.3627   -0.4111    0.2389 C   0  0  0  0  0  0  0  0  0  0  0  0
   -3.2546   -0.8008    1.3987 O   0  0  0  0  0  0  0  0  0  0  0  0
   -5.9784    0.3550    1.6228 H   0  0  0  0  0  0  0  0  0  0  0  0
   -7.4213   -0.6173    1.2778 H   0  0  0  0  0  0  0  0  0  0  0  0
   -6.8974    0.6373    0.1381 H   0  0  0  0  0  0  0  0  0  0  0  0
   -6.2963   -1.6540   -0.6748 H   0  0  0  0  0  0  0  0  0  0  0  0
   -5.3730   -1.9431    0.8062 H   0  0  0  0  0  0  0  0  0  0  0  0
   -5.5878   -0.2414   -2.2950 H   0  0  0  0  0  0  0  0  0  0  0  0
    1.6589   -0.2340   -0.2197 H   0  0  0  0  0  0  0  0  0  0  0  0
    3.7781    2.7173   -1.1561 H   0  0  0  0  0  0  0  0  0  0  0  0
    6.1936    2.6940   -0.7887 H   0  0  0  0  0  0  0  0  0  0  0  0
    7.2965    0.7202    0.2281 H   0  0  0  0  0  0  0  0  0  0  0  0
    5.9818   -1.2371    0.8817 H   0  0  0  0  0  0  0  0  0  0  0  0
    3.0362   -3.3206    1.3247 H   0  0  0  0  0  0  0  0  0  0  0  0
    4.3088   -2.3640    2.0920 H   0  0  0  0  0  0  0  0  0  0  0  0
    4.5424   -3.0570    0.4383 H   0  0  0  0  0  0  0  0  0  0  0  0
   -1.2202    0.5783    2.1135 H   0  0  0  0  0  0  0  0  0  0  0  0
   -0.1911   -0.7391    1.5037 H   0  0  0  0  0  0  0  0  0  0  0  0
    0.4256    0.9230    1.6187 H   0  0  0  0  0  0  0  0  0  0  0  0
  1  2  1  0
  2  3  1  0
  3  4  1  0
  4  5  2  0
  5  6  1  0
  6  7  1  0
  7  8  1  0
  8  9  1  0
  9 10  2  0
  9 11  1  0
 11 12  1  0
 12 13  2  0
 13 14  1  0
 14 15  2  0
 15 16  1  0
 16 17  2  0
 17 18  1  0
 18 19  1  0
  8 20  2  0
 20 21  1  0
 20 22  1  0
 22 23  1  0
 23 24  2  0
 23  3  1  0
 22  6  2  0
 17 12  1  0
  1 25  1  0
  1 26  1  0
  1 27  1  0
  2 28  1  0
  2 29  1  0
  4 30  1  0
 11 31  1  0
 13 32  1  0
 14 33  1  0
 15 34  1  0
 16 35  1  0
 19 36  1  0
 19 37  1  0
 19 38  1  0
 21 39  1  0
 21 40  1  0
 21 41  1  0
M  END
$$$$
