
     RDKit          3D

 44 45  0  0  0  0  0  0  0  0999 V2000
    5.3238    1.1263   -2.0359 C   0  0  0  0  0  0  0  0  0  0  0  0
    4.1408    1.0982   -1.0795 C   0  0  0  0  0  0  0  0  0  0  0  0
    4.1147   -0.1420   -0.1701 C   0  0  0  0  0  0  0  0  0  0  0  0
    5.3145   -0.2036    0.7727 C   0  0  0  0  0  0  0  0  0  0  0  0
    2.8844   -0.1535    0.6156 N   0  0  0  0  0  0  0  0  0  0  0  0
    1.6979   -0.6370    0.1095 C   0  0  0  0  0  0  0  0  0  0  0  0
    1.6047   -1.1739   -0.9900 O   0  0  0  0  0  0  0  0  0  0  0  0
    0.4779   -0.4843    0.9478 C   0  0  0  0  0  0  0  0  0  0  0  0
   -0.6781   -1.1808    0.5629 C   0  0  0  0  0  0  0  0  0  0  0  0
   -1.8637   -1.0253    1.2898 C   0  0  0  0  0  0  0  0  0  0  0  0
   -3.3223   -1.9280    0.7998 S   0  0  0  0  0  6  0  0  0  0  0  0
   -4.2256   -1.9205    1.9311 O   0  0  0  0  0  0  0  0  0  0  0  0
   -2.8781   -3.1674    0.2019 O   0  0  0  0  0  0  0  0  0  0  0  0
   -3.9976   -0.9598   -0.4065 N   0  0  0  0  0  0  0  0  0  0  0  0
   -3.3363   -0.8978   -1.7397 C   0  0  0  0  0  0  0  0  0  0  0  0
   -2.8837    0.5320   -2.0553 C   0  0  0  0  0  0  0  0  0  0  0  0
   -3.9501    1.4924   -2.0506 O   0  0  0  0  0  0  0  0  0  0  0  0
   -5.0616    1.1151   -1.2259 C   0  0  0  0  0  0  0  0  0  0  0  0
   -4.6375    0.3164    0.0102 C   0  0  0  0  0  0  0  0  0  0  0  0
   -1.8969   -0.2179    2.4314 C   0  0  0  0  0  0  0  0  0  0  0  0
   -0.7452    0.4652    2.8221 C   0  0  0  0  0  0  0  0  0  0  0  0
    0.4287    0.3339    2.0794 C   0  0  0  0  0  0  0  0  0  0  0  0
    1.5073    1.0220    2.4843 F   0  0  0  0  0  0  0  0  0  0  0  0
    5.2324    1.9762   -2.7201 H   0  0  0  0  0  0  0  0  0  0  0  0
    5.3659    0.2120   -2.6360 H   0  0  0  0  0  0  0  0  0  0  0  0
    6.2713    1.2352   -1.5005 H   0  0  0  0  0  0  0  0  0  0  0  0
    3.2194    1.1331   -1.6744 H   0  0  0  0  0  0  0  0  0  0  0  0
    4.1452    2.0106   -0.4701 H   0  0  0  0  0  0  0  0  0  0  0  0
    4.1182   -1.0419   -0.7974 H   0  0  0  0  0  0  0  0  0  0  0  0
    6.2536   -0.3086    0.2217 H   0  0  0  0  0  0  0  0  0  0  0  0
    5.3780    0.6969    1.3936 H   0  0  0  0  0  0  0  0  0  0  0  0
    5.2305   -1.0626    1.4479 H   0  0  0  0  0  0  0  0  0  0  0  0
    2.8644    0.3967    1.4677 H   0  0  0  0  0  0  0  0  0  0  0  0
   -0.6463   -1.8457   -0.2994 H   0  0  0  0  0  0  0  0  0  0  0  0
   -2.4852   -1.5801   -1.8046 H   0  0  0  0  0  0  0  0  0  0  0  0
   -4.0720   -1.2302   -2.4817 H   0  0  0  0  0  0  0  0  0  0  0  0
   -2.1375    0.8681   -1.3268 H   0  0  0  0  0  0  0  0  0  0  0  0
   -2.4134    0.5695   -3.0430 H   0  0  0  0  0  0  0  0  0  0  0  0
   -5.5726    2.0349   -0.9247 H   0  0  0  0  0  0  0  0  0  0  0  0
   -5.7605    0.5379   -1.8426 H   0  0  0  0  0  0  0  0  0  0  0  0
   -3.9302    0.9114    0.5963 H   0  0  0  0  0  0  0  0  0  0  0  0
   -5.5190    0.0971    0.6208 H   0  0  0  0  0  0  0  0  0  0  0  0
   -2.8073   -0.1203    3.0202 H   0  0  0  0  0  0  0  0  0  0  0  0
   -0.7529    1.1002    3.7040 H   0  0  0  0  0  0  0  0  0  0  0  0
  1  2  1  0
  2  3  1  0
  3  4  1  0
  3  5  1  0
  5  6  1  0
  6  7  2  0
  6  8  1  0
  8  9  2  0
  9 10  1  0
 10 11  1  0
 11 12  2  0
 11 13  2  0
 11 14  1  0
 14 15  1  0
 15 16  1  0
 16 17  1  0
 17 18  1  0
 18 19  1  0
 10 20  2  0
 20 21  1  0
 21 22  2  0
 22 23  1  0
 22  8  1  0
 19 14  1  0
  1 24  1  0
  1 25  1  0
  1 26  1  0
  2 27  1  0
  2 28  1  0
  3 29  1  0
  4 30  1  0
  4 31  1  0
  4 32  1  0
  5 33  1  0
  9 34  1  0
 15 35  1  0
 15 36  1  0
 16 37  1  0
 16 38  1  0
 18 39  1  0
 18 40  1  0
 19 41  1  0
 19 42  1  0
 20 43  1  0
 21 44  1  0
M  END
$$$$
