
     RDKit          3D

 50 53  0  0  0  0  0  0  0  0999 V2000
    0.4832   -1.9546   -2.1534 O   0  0  0  0  0  0  0  0  0  0  0  0
    1.4279   -1.1849   -2.0162 C   0  0  0  0  0  0  0  0  0  0  0  0
    2.8315   -1.5848   -2.4881 C   0  0  0  0  0  0  0  0  0  0  0  0
    3.8180   -1.5091   -1.4204 N   0  0  0  0  0  0  0  0  0  0  0  0
    4.4288   -0.3269   -1.0749 C   0  0  0  0  0  0  0  0  0  0  0  0
    4.1553    0.7400   -1.6140 O   0  0  0  0  0  0  0  0  0  0  0  0
    5.4324   -0.3913    0.0144 C   0  0  0  0  0  0  0  0  0  0  0  0
    5.2532   -1.2186    1.1291 C   0  0  0  0  0  0  0  0  0  0  0  0
    6.2192   -1.2428    2.1372 C   0  0  0  0  0  0  0  0  0  0  0  0
    7.3578   -0.4422    2.0347 C   0  0  0  0  0  0  0  0  0  0  0  0
    7.5315    0.3931    0.9292 C   0  0  0  0  0  0  0  0  0  0  0  0
    6.5661    0.4246   -0.0776 C   0  0  0  0  0  0  0  0  0  0  0  0
    1.3790    0.1063   -1.5221 N   0  0  0  0  0  0  0  0  0  0  0  0
    0.2852    0.7820   -0.9474 C   0  0  0  0  0  0  0  0  0  0  0  0
    0.5006    2.1289   -0.5901 C   0  0  0  0  0  0  0  0  0  0  0  0
   -0.5089    2.8904   -0.0001 C   0  0  0  0  0  0  0  0  0  0  0  0
   -1.7330    2.2866    0.2326 C   0  0  0  0  0  0  0  0  0  0  0  0
   -1.9593    0.9535   -0.1093 C   0  0  0  0  0  0  0  0  0  0  0  0
   -0.9600    0.1908   -0.7021 C   0  0  0  0  0  0  0  0  0  0  0  0
   -3.2764    0.5828    0.2364 N   0  0  0  0  0  0  0  0  0  0  0  0
   -3.7867   -0.7052    0.1692 C   0  0  0  0  0  0  0  0  0  0  0  0
   -3.1586   -1.7207   -0.1142 O   0  0  0  0  0  0  0  0  0  0  0  0
   -5.2044   -0.9027    0.5170 C   0  0  0  0  0  0  0  0  0  0  0  0
   -5.5542   -1.7984    1.5261 C   0  0  0  0  0  0  0  0  0  0  0  0
   -6.9010   -1.9917    1.8243 C   0  0  0  0  0  0  0  0  0  0  0  0
   -7.8443   -1.2810    1.0979 C   0  0  0  0  0  0  0  0  0  0  0  0
   -7.5358   -0.4219    0.1004 N   0  0  0  0  0  0  0  0  0  0  0  0
   -6.2186   -0.2715   -0.1859 C   0  0  0  0  0  0  0  0  0  0  0  0
   -3.9501    1.7622    0.8175 C   0  0  0  0  0  0  0  0  0  0  0  0
   -2.9328    2.9047    0.8700 C   0  0  0  0  0  0  0  0  0  0  0  0
    3.1282   -0.9362   -3.3185 H   0  0  0  0  0  0  0  0  0  0  0  0
    2.8086   -2.6210   -2.8384 H   0  0  0  0  0  0  0  0  0  0  0  0
    4.0481   -2.3646   -0.9313 H   0  0  0  0  0  0  0  0  0  0  0  0
    4.3603   -1.8234    1.2400 H   0  0  0  0  0  0  0  0  0  0  0  0
    6.0811   -1.8781    3.0097 H   0  0  0  0  0  0  0  0  0  0  0  0
    8.1076   -0.4621    2.8220 H   0  0  0  0  0  0  0  0  0  0  0  0
    8.4164    1.0200    0.8534 H   0  0  0  0  0  0  0  0  0  0  0  0
    6.7011    1.0788   -0.9361 H   0  0  0  0  0  0  0  0  0  0  0  0
    2.2499    0.6339   -1.5959 H   0  0  0  0  0  0  0  0  0  0  0  0
    1.4669    2.5964   -0.7709 H   0  0  0  0  0  0  0  0  0  0  0  0
   -0.3295    3.9250    0.2723 H   0  0  0  0  0  0  0  0  0  0  0  0
   -1.1484   -0.8442   -0.9587 H   0  0  0  0  0  0  0  0  0  0  0  0
   -4.7852   -2.3471    2.0630 H   0  0  0  0  0  0  0  0  0  0  0  0
   -7.2060   -2.6838    2.6002 H   0  0  0  0  0  0  0  0  0  0  0  0
   -8.9070   -1.3978    1.2955 H   0  0  0  0  0  0  0  0  0  0  0  0
   -6.0057    0.3851   -1.0244 H   0  0  0  0  0  0  0  0  0  0  0  0
   -4.7996    2.0391    0.1898 H   0  0  0  0  0  0  0  0  0  0  0  0
   -4.3254    1.5132    1.8138 H   0  0  0  0  0  0  0  0  0  0  0  0
   -3.2842    3.7733    0.3058 H   0  0  0  0  0  0  0  0  0  0  0  0
   -2.7229    3.1959    1.9042 H   0  0  0  0  0  0  0  0  0  0  0  0
  1  2  2  0
  2  3  1  0
  3  4  1  0
  4  5  1  0
  5  6  2  0
  5  7  1  0
  7  8  2  0
  8  9  1  0
  9 10  2  0
 10 11  1  0
 11 12  2  0
  2 13  1  0
 13 14  1  0
 14 15  2  0
 15 16  1  0
 16 17  2  0
 17 18  1  0
 18 19  2  0
 18 20  1  0
 20 21  1  0
 21 22  2  0
 21 23  1  0
 23 24  2  0
 24 25  1  0
 25 26  2  0
 26 27  1  0
 27 28  2  0
 20 29  1  0
 29 30  1  0
 12  7  1  0
 19 14  1  0
 28 23  1  0
 30 17  1  0
  3 31  1  0
  3 32  1  0
  4 33  1  0
  8 34  1  0
  9 35  1  0
 10 36  1  0
 11 37  1  0
 12 38  1  0
 13 39  1  0
 15 40  1  0
 16 41  1  0
 19 42  1  0
 24 43  1  0
 25 44  1  0
 26 45  1  0
 28 46  1  0
 29 47  1  0
 29 48  1  0
 30 49  1  0
 30 50  1  0
M  END
$$$$
