
     RDKit          3D

 48 50  0  0  0  0  0  0  0  0999 V2000
   -1.1135    2.4096   -1.0076 C   0  0  0  0  0  0  0  0  0  0  0  0
   -1.4102    1.0725   -0.4089 C   0  0  0  0  0  0  0  0  0  0  0  0
   -0.6111   -0.0039   -0.3284 C   0  0  0  0  0  0  0  0  0  0  0  0
    0.6914   -0.2779   -0.6546 N   0  0  0  0  0  0  0  0  0  0  0  0
    1.7183    0.6085   -0.8898 C   0  0  0  0  0  0  0  0  0  0  0  0
    1.6567    1.8229   -0.7257 O   0  0  0  0  0  0  0  0  0  0  0  0
    3.0297    0.0011   -1.2714 C   0  0  0  0  0  0  0  0  0  0  0  0
    3.0742   -1.2232   -1.9604 C   0  0  0  0  0  0  0  0  0  0  0  0
    4.3012   -1.7955   -2.3026 C   0  0  0  0  0  0  0  0  0  0  0  0
    5.4890   -1.1482   -1.9723 C   0  0  0  0  0  0  0  0  0  0  0  0
    5.4553    0.0795   -1.3107 C   0  0  0  0  0  0  0  0  0  0  0  0
    4.2344    0.6654   -0.9633 C   0  0  0  0  0  0  0  0  0  0  0  0
    4.2502    1.9351   -0.2919 N   0  0  0  0  0  0  0  0  0  0  0  0
    4.7832    2.0051    1.3074 S   0  0  0  0  0  6  0  0  0  0  0  0
    3.4731    1.1725    2.1820 C   0  0  0  0  0  0  0  0  0  0  0  0
    5.9932    1.2260    1.4558 O   0  0  0  0  0  0  0  0  0  0  0  0
    4.7393    3.3987    1.6959 O   0  0  0  0  0  0  0  0  0  0  0  0
   -1.4641   -1.1017    0.2299 C   0  0  0  0  0  0  0  0  0  0  0  0
   -1.0357   -2.2400    0.3631 O   0  0  0  0  0  0  0  0  0  0  0  0
   -2.7271   -0.5535    0.4569 N   0  0  0  0  0  0  0  0  0  0  0  0
   -3.9427   -1.2828    0.5202 C   0  0  0  0  0  0  0  0  0  0  0  0
   -5.1594   -0.7068    0.1233 C   0  0  0  0  0  0  0  0  0  0  0  0
   -6.3560   -1.4279    0.1892 C   0  0  0  0  0  0  0  0  0  0  0  0
   -6.3544   -2.7398    0.6524 C   0  0  0  0  0  0  0  0  0  0  0  0
   -5.1570   -3.3309    1.0442 C   0  0  0  0  0  0  0  0  0  0  0  0
   -3.9609   -2.6084    0.9757 C   0  0  0  0  0  0  0  0  0  0  0  0
   -2.7011    0.8276    0.1028 N   0  0  0  0  0  0  0  0  0  0  0  0
   -3.1771    1.7175    1.1798 C   0  0  0  0  0  0  0  0  0  0  0  0
   -2.0301    2.8706   -1.3928 H   0  0  0  0  0  0  0  0  0  0  0  0
   -0.6863    3.0836   -0.2593 H   0  0  0  0  0  0  0  0  0  0  0  0
   -0.4370    2.3297   -1.8629 H   0  0  0  0  0  0  0  0  0  0  0  0
    0.9238   -1.2624   -0.5395 H   0  0  0  0  0  0  0  0  0  0  0  0
    2.1658   -1.7375   -2.2648 H   0  0  0  0  0  0  0  0  0  0  0  0
    4.3318   -2.7435   -2.8359 H   0  0  0  0  0  0  0  0  0  0  0  0
    6.4462   -1.5910   -2.2393 H   0  0  0  0  0  0  0  0  0  0  0  0
    6.3913    0.5833   -1.0758 H   0  0  0  0  0  0  0  0  0  0  0  0
    3.3795    2.4749   -0.4155 H   0  0  0  0  0  0  0  0  0  0  0  0
    3.7046    1.2181    3.2488 H   0  0  0  0  0  0  0  0  0  0  0  0
    2.5312    1.6887    1.9901 H   0  0  0  0  0  0  0  0  0  0  0  0
    3.4285    0.1302    1.8632 H   0  0  0  0  0  0  0  0  0  0  0  0
   -5.1916    0.3031   -0.2761 H   0  0  0  0  0  0  0  0  0  0  0  0
   -7.2860   -0.9651   -0.1310 H   0  0  0  0  0  0  0  0  0  0  0  0
   -7.2828   -3.3028    0.7028 H   0  0  0  0  0  0  0  0  0  0  0  0
   -5.1483   -4.3564    1.4051 H   0  0  0  0  0  0  0  0  0  0  0  0
   -3.0499   -3.1016    1.3046 H   0  0  0  0  0  0  0  0  0  0  0  0
   -4.1681    1.4290    1.5412 H   0  0  0  0  0  0  0  0  0  0  0  0
   -2.4870    1.7004    2.0314 H   0  0  0  0  0  0  0  0  0  0  0  0
   -3.2546    2.7470    0.8148 H   0  0  0  0  0  0  0  0  0  0  0  0
  1  2  1  0
  2  3  2  0
  3  4  1  0
  4  5  1  0
  5  6  2  0
  5  7  1  0
  7  8  2  0
  8  9  1  0
  9 10  2  0
 10 11  1  0
 11 12  2  0
 12 13  1  0
 13 14  1  0
 14 15  1  0
 14 16  2  0
 14 17  2  0
  3 18  1  0
 18 19  2  0
 18 20  1  0
 20 21  1  0
 21 22  2  0
 22 23  1  0
 23 24  2  0
 24 25  1  0
 25 26  2  0
 20 27  1  0
 27 28  1  0
 27  2  1  0
 12  7  1  0
 26 21  1  0
  1 29  1  0
  1 30  1  0
  1 31  1  0
  4 32  1  0
  8 33  1  0
  9 34  1  0
 10 35  1  0
 11 36  1  0
 13 37  1  0
 15 38  1  0
 15 39  1  0
 15 40  1  0
 22 41  1  0
 23 42  1  0
 24 43  1  0
 25 44  1  0
 26 45  1  0
 28 46  1  0
 28 47  1  0
 28 48  1  0
M  END
$$$$
