
     RDKit          3D

 51 54  0  0  0  0  0  0  0  0999 V2000
    8.8848   -1.1911   -0.5613 C   0  0  0  0  0  0  0  0  0  0  0  0
    7.4318   -0.8969   -0.3291 C   0  0  0  0  0  0  0  0  0  0  0  0
    6.6606   -1.7193    0.4986 C   0  0  0  0  0  0  0  0  0  0  0  0
    5.3128   -1.4232    0.7346 C   0  0  0  0  0  0  0  0  0  0  0  0
    4.7174   -0.2912    0.1628 C   0  0  0  0  0  0  0  0  0  0  0  0
    3.3469   -0.0732    0.4228 N   0  0  0  0  0  0  0  0  0  0  0  0
    2.6128    1.0550    0.1318 C   0  0  0  0  0  0  0  0  0  0  0  0
    3.0895    2.1283   -0.2347 O   0  0  0  0  0  0  0  0  0  0  0  0
    1.2388    0.9031    0.2973 N   0  0  0  0  0  0  0  0  0  0  0  0
    0.4018    2.0919    0.1107 C   0  0  0  0  0  0  0  0  0  0  0  0
   -1.0106    1.9373    0.6899 C   0  0  0  0  0  0  0  0  0  0  0  0
   -1.6838    0.7541    0.1295 N   0  0  0  0  0  0  0  0  0  0  0  0
   -3.0630    0.6777    0.2576 C   0  0  0  0  0  0  0  0  0  0  0  0
   -3.8052   -0.3056   -0.3722 C   0  0  0  0  0  0  0  0  0  0  0  0
   -5.1807   -0.2809   -0.2027 C   0  0  0  0  0  0  0  0  0  0  0  0
   -5.9981   -1.2635   -0.8260 N   0  0  0  0  0  0  0  0  0  0  0  0
   -5.6251   -2.3397   -1.6036 C   0  0  0  0  0  0  0  0  0  0  0  0
   -6.7967   -2.9719   -1.9558 C   0  0  0  0  0  0  0  0  0  0  0  0
   -7.8771   -2.3293   -1.4203 N   0  0  0  0  0  0  0  0  0  0  0  0
   -7.3739   -1.3154   -0.7480 C   0  0  0  0  0  0  0  0  0  0  0  0
   -5.8061    0.6568    0.5377 N   0  0  0  0  0  0  0  0  0  0  0  0
   -5.0223    1.5750    1.1161 C   0  0  0  0  0  0  0  0  0  0  0  0
   -5.6809    2.6577    1.9134 C   0  0  0  0  0  0  0  0  0  0  0  0
   -3.6841    1.6195    0.9935 N   0  0  0  0  0  0  0  0  0  0  0  0
   -0.8523   -0.3915   -0.2505 C   0  0  0  0  0  0  0  0  0  0  0  0
    0.5261   -0.3711    0.4409 C   0  0  0  0  0  0  0  0  0  0  0  0
    5.4910    0.5332   -0.6552 C   0  0  0  0  0  0  0  0  0  0  0  0
    6.8394    0.2386   -0.8921 C   0  0  0  0  0  0  0  0  0  0  0  0
    9.0705   -2.2712   -0.5585 H   0  0  0  0  0  0  0  0  0  0  0  0
    9.4917   -0.7234    0.2198 H   0  0  0  0  0  0  0  0  0  0  0  0
    9.2102   -0.8101   -1.5367 H   0  0  0  0  0  0  0  0  0  0  0  0
    7.1032   -2.5986    0.9633 H   0  0  0  0  0  0  0  0  0  0  0  0
    4.7423   -2.0883    1.3785 H   0  0  0  0  0  0  0  0  0  0  0  0
    2.9105   -0.7276    1.0514 H   0  0  0  0  0  0  0  0  0  0  0  0
    0.8933    2.9601    0.5642 H   0  0  0  0  0  0  0  0  0  0  0  0
    0.3446    2.2724   -0.9695 H   0  0  0  0  0  0  0  0  0  0  0  0
   -1.5639    2.8566    0.4541 H   0  0  0  0  0  0  0  0  0  0  0  0
   -0.9545    1.8402    1.7814 H   0  0  0  0  0  0  0  0  0  0  0  0
   -3.3179   -1.0414   -0.9973 H   0  0  0  0  0  0  0  0  0  0  0  0
   -4.6003   -2.5765   -1.8442 H   0  0  0  0  0  0  0  0  0  0  0  0
   -6.9152   -3.8579   -2.5670 H   0  0  0  0  0  0  0  0  0  0  0  0
   -7.9474   -0.5852   -0.1879 H   0  0  0  0  0  0  0  0  0  0  0  0
   -5.8071    3.5491    1.2901 H   0  0  0  0  0  0  0  0  0  0  0  0
   -5.0676    2.9203    2.7815 H   0  0  0  0  0  0  0  0  0  0  0  0
   -6.6635    2.3368    2.2727 H   0  0  0  0  0  0  0  0  0  0  0  0
   -1.3306   -1.3424    0.0100 H   0  0  0  0  0  0  0  0  0  0  0  0
   -0.7138   -0.3723   -1.3371 H   0  0  0  0  0  0  0  0  0  0  0  0
    1.1280   -1.1929    0.0445 H   0  0  0  0  0  0  0  0  0  0  0  0
    0.4014   -0.5341    1.5164 H   0  0  0  0  0  0  0  0  0  0  0  0
    5.0728    1.4160   -1.1314 H   0  0  0  0  0  0  0  0  0  0  0  0
    7.4198    0.9063   -1.5252 H   0  0  0  0  0  0  0  0  0  0  0  0
  1  2  1  0
  2  3  2  0
  3  4  1  0
  4  5  2  0
  5  6  1  0
  6  7  1  0
  7  8  2  0
  7  9  1  0
  9 10  1  0
 10 11  1  0
 11 12  1  0
 12 13  1  0
 13 14  2  0
 14 15  1  0
 15 16  1  0
 16 17  1  0
 17 18  2  0
 18 19  1  0
 19 20  2  0
 15 21  2  0
 21 22  1  0
 22 23  1  0
 22 24  2  0
 12 25  1  0
 25 26  1  0
  5 27  1  0
 27 28  2  0
 28  2  1  0
 26  9  1  0
 24 13  1  0
 20 16  1  0
  1 29  1  0
  1 30  1  0
  1 31  1  0
  3 32  1  0
  4 33  1  0
  6 34  1  0
 10 35  1  0
 10 36  1  0
 11 37  1  0
 11 38  1  0
 14 39  1  0
 17 40  1  0
 18 41  1  0
 20 42  1  0
 23 43  1  0
 23 44  1  0
 23 45  1  0
 25 46  1  0
 25 47  1  0
 26 48  1  0
 26 49  1  0
 27 50  1  0
 28 51  1  0
M  END
$$$$
