
     RDKit          3D

 40 41  0  0  0  0  0  0  0  0999 V2000
    5.5889    1.7611   -1.6826 C   0  0  0  0  0  0  0  0  0  0  0  0
    4.6719    1.2438   -0.6491 C   0  0  0  0  0  0  0  0  0  0  0  0
    5.0712    0.3546    0.3122 N   0  0  0  0  0  0  0  0  0  0  0  0
    3.9815    0.1579    1.0251 C   0  0  0  0  0  0  0  0  0  0  0  0
    3.8459   -0.7136    2.2136 C   0  0  0  0  0  0  0  0  0  0  0  0
    2.9634    0.9005    0.4869 N   0  0  0  0  0  0  0  0  0  0  0  0
    1.5850    0.9937    0.9237 C   0  0  0  0  0  0  0  0  0  0  0  0
    0.6783   -0.0466    0.2530 C   0  0  0  0  0  0  0  0  0  0  0  0
    0.3557    0.3238   -1.1966 C   0  0  0  0  0  0  0  0  0  0  0  0
   -0.6097   -0.1731    1.0541 C   0  0  0  0  0  0  0  0  0  0  0  0
   -0.9179    0.6141    1.9433 O   0  0  0  0  0  0  0  0  0  0  0  0
   -1.3838   -1.2558    0.7030 N   0  0  0  0  0  0  0  0  0  0  0  0
   -2.7105   -1.4520    1.2456 C   0  0  0  0  0  0  0  0  0  0  0  0
   -3.7545   -0.9836    0.2657 C   0  0  0  0  0  0  0  0  0  0  0  0
   -4.0776    0.3784    0.1768 C   0  0  0  0  0  0  0  0  0  0  0  0
   -5.0240    0.8233   -0.7471 C   0  0  0  0  0  0  0  0  0  0  0  0
   -5.6528   -0.0871   -1.5942 C   0  0  0  0  0  0  0  0  0  0  0  0
   -5.3344   -1.4421   -1.5205 C   0  0  0  0  0  0  0  0  0  0  0  0
   -4.3872   -1.8894   -0.5975 C   0  0  0  0  0  0  0  0  0  0  0  0
    3.3855    1.6025   -0.5806 N   0  0  0  0  0  0  0  0  0  0  0  0
    6.6064    1.3908   -1.5227 H   0  0  0  0  0  0  0  0  0  0  0  0
    5.2636    1.4431   -2.6780 H   0  0  0  0  0  0  0  0  0  0  0  0
    5.6187    2.8549   -1.6594 H   0  0  0  0  0  0  0  0  0  0  0  0
    4.7760   -1.2617    2.3944 H   0  0  0  0  0  0  0  0  0  0  0  0
    3.0457   -1.4464    2.0726 H   0  0  0  0  0  0  0  0  0  0  0  0
    3.6257   -0.1193    3.1056 H   0  0  0  0  0  0  0  0  0  0  0  0
    1.5940    0.8732    2.0134 H   0  0  0  0  0  0  0  0  0  0  0  0
    1.2409    2.0163    0.7240 H   0  0  0  0  0  0  0  0  0  0  0  0
    1.1714   -1.0274    0.2687 H   0  0  0  0  0  0  0  0  0  0  0  0
   -0.3139   -0.4075   -1.6610 H   0  0  0  0  0  0  0  0  0  0  0  0
   -0.1413    1.2987   -1.2523 H   0  0  0  0  0  0  0  0  0  0  0  0
    1.2612    0.3644   -1.8089 H   0  0  0  0  0  0  0  0  0  0  0  0
   -1.1544   -1.7757   -0.1330 H   0  0  0  0  0  0  0  0  0  0  0  0
   -2.8247   -2.5235    1.4433 H   0  0  0  0  0  0  0  0  0  0  0  0
   -2.8247   -0.9309    2.2027 H   0  0  0  0  0  0  0  0  0  0  0  0
   -3.5871    1.0996    0.8292 H   0  0  0  0  0  0  0  0  0  0  0  0
   -5.2684    1.8808   -0.8059 H   0  0  0  0  0  0  0  0  0  0  0  0
   -6.3902    0.2604   -2.3132 H   0  0  0  0  0  0  0  0  0  0  0  0
   -5.8246   -2.1505   -2.1835 H   0  0  0  0  0  0  0  0  0  0  0  0
   -4.1493   -2.9498   -0.5559 H   0  0  0  0  0  0  0  0  0  0  0  0
  1  2  1  0
  2  3  1  0
  3  4  2  0
  4  5  1  0
  4  6  1  0
  6  7  1  0
  7  8  1  0
  8  9  1  0
  8 10  1  0
 10 11  2  0
 10 12  1  0
 12 13  1  0
 13 14  1  0
 14 15  2  0
 15 16  1  0
 16 17  2  0
 17 18  1  0
 18 19  2  0
  6 20  1  0
 20  2  2  0
 19 14  1  0
  1 21  1  0
  1 22  1  0
  1 23  1  0
  5 24  1  0
  5 25  1  0
  5 26  1  0
  7 27  1  0
  7 28  1  0
  8 29  1  0
  9 30  1  0
  9 31  1  0
  9 32  1  0
 12 33  1  0
 13 34  1  0
 13 35  1  0
 15 36  1  0
 16 37  1  0
 17 38  1  0
 18 39  1  0
 19 40  1  0
M  END
$$$$
