
     RDKit          3D

 43 45  0  0  0  0  0  0  0  0999 V2000
    5.4161    1.2823   -1.2521 C   0  0  0  0  0  0  0  0  0  0  0  0
    5.9897    0.4186   -0.1319 C   0  0  0  0  0  0  0  0  0  0  0  0
    5.0367   -0.4313    0.5832 N   0  0  0  0  0  0  0  0  0  0  0  0
    4.5612   -1.5784   -0.2059 C   0  0  0  0  0  0  0  0  0  0  0  0
    3.2910   -2.2216    0.3768 C   0  0  0  0  0  0  0  0  0  0  0  0
    2.1810   -1.2685    0.4292 N   0  0  0  0  0  0  0  0  0  0  0  0
    0.8756   -1.7626    0.3597 C   0  0  0  0  0  0  0  0  0  0  0  0
    0.6645   -2.9775    0.3992 O   0  0  0  0  0  0  0  0  0  0  0  0
   -0.2662   -0.8402    0.2349 C   0  0  0  0  0  0  0  0  0  0  0  0
   -1.6310   -1.1885    0.4390 C   0  0  0  0  0  0  0  0  0  0  0  0
   -2.3447   -0.0424    0.1838 C   0  0  0  0  0  0  0  0  0  0  0  0
   -3.7578    0.3205    0.2042 C   0  0  0  0  0  0  0  0  0  0  0  0
   -4.1854    1.6175   -0.1154 C   0  0  0  0  0  0  0  0  0  0  0  0
   -5.5430    1.9554   -0.0918 C   0  0  0  0  0  0  0  0  0  0  0  0
   -6.5047    1.0053    0.2627 C   0  0  0  0  0  0  0  0  0  0  0  0
   -7.9625    1.3576    0.2551 C   0  0  0  0  0  0  0  0  0  0  0  0
   -6.0895   -0.2939    0.5681 C   0  0  0  0  0  0  0  0  0  0  0  0
   -4.7312   -0.6301    0.5440 C   0  0  0  0  0  0  0  0  0  0  0  0
   -1.4635    0.9366   -0.1668 O   0  0  0  0  0  0  0  0  0  0  0  0
   -0.1749    0.4430   -0.1512 N   0  0  0  0  0  0  0  0  0  0  0  0
    2.5514    0.1350    0.6514 C   0  0  0  0  0  0  0  0  0  0  0  0
    3.9569    0.2957    1.2678 C   0  0  0  0  0  0  0  0  0  0  0  0
    4.6604    1.9808   -0.8806 H   0  0  0  0  0  0  0  0  0  0  0  0
    6.2168    1.8770   -1.7047 H   0  0  0  0  0  0  0  0  0  0  0  0
    4.9677    0.6793   -2.0466 H   0  0  0  0  0  0  0  0  0  0  0  0
    6.4814    1.0767    0.5956 H   0  0  0  0  0  0  0  0  0  0  0  0
    6.7923   -0.2075   -0.5418 H   0  0  0  0  0  0  0  0  0  0  0  0
    5.3558   -2.3316   -0.2521 H   0  0  0  0  0  0  0  0  0  0  0  0
    4.3359   -1.2793   -1.2363 H   0  0  0  0  0  0  0  0  0  0  0  0
    3.4698   -2.5775    1.3988 H   0  0  0  0  0  0  0  0  0  0  0  0
    3.0085   -3.0891   -0.2300 H   0  0  0  0  0  0  0  0  0  0  0  0
   -2.0139   -2.1549    0.7312 H   0  0  0  0  0  0  0  0  0  0  0  0
   -3.4665    2.3864   -0.3916 H   0  0  0  0  0  0  0  0  0  0  0  0
   -5.8412    2.9687   -0.3527 H   0  0  0  0  0  0  0  0  0  0  0  0
   -8.3875    1.1705   -0.7358 H   0  0  0  0  0  0  0  0  0  0  0  0
   -8.5116    0.7644    0.9938 H   0  0  0  0  0  0  0  0  0  0  0  0
   -8.1109    2.4121    0.5108 H   0  0  0  0  0  0  0  0  0  0  0  0
   -6.8205   -1.0566    0.8282 H   0  0  0  0  0  0  0  0  0  0  0  0
   -4.4498   -1.6506    0.7926 H   0  0  0  0  0  0  0  0  0  0  0  0
    2.5117    0.6400   -0.3201 H   0  0  0  0  0  0  0  0  0  0  0  0
    1.8259    0.6011    1.3250 H   0  0  0  0  0  0  0  0  0  0  0  0
    4.1905    1.3609    1.3845 H   0  0  0  0  0  0  0  0  0  0  0  0
    3.9153   -0.1032    2.2901 H   0  0  0  0  0  0  0  0  0  0  0  0
  1  2  1  0
  2  3  1  0
  3  4  1  0
  4  5  1  0
  5  6  1  0
  6  7  1  0
  7  8  2  0
  7  9  1  0
  9 10  1  0
 10 11  2  0
 11 12  1  0
 12 13  2  0
 13 14  1  0
 14 15  2  0
 15 16  1  0
 15 17  1  0
 17 18  2  0
 11 19  1  0
 19 20  1  0
  6 21  1  0
 21 22  1  0
 22  3  1  0
 20  9  2  0
 18 12  1  0
  1 23  1  0
  1 24  1  0
  1 25  1  0
  2 26  1  0
  2 27  1  0
  4 28  1  0
  4 29  1  0
  5 30  1  0
  5 31  1  0
 10 32  1  0
 13 33  1  0
 14 34  1  0
 16 35  1  0
 16 36  1  0
 16 37  1  0
 17 38  1  0
 18 39  1  0
 21 40  1  0
 21 41  1  0
 22 42  1  0
 22 43  1  0
M  END
$$$$
