
     RDKit          3D

 48 51  0  0  0  0  0  0  0  0999 V2000
    4.4376   -1.4895    3.1104 C   0  0  0  0  0  0  0  0  0  0  0  0
    4.0485   -0.9764    1.7597 C   0  0  0  0  0  0  0  0  0  0  0  0
    2.7370   -0.8107    1.5133 N   0  0  0  0  0  0  0  0  0  0  0  0
    2.3590   -0.3662    0.3002 C   0  0  0  0  0  0  0  0  0  0  0  0
    0.9994   -0.2008    0.0436 N   0  0  0  0  0  0  0  0  0  0  0  0
    0.5763    0.9321   -0.8037 C   0  0  0  0  0  0  0  0  0  0  0  0
   -0.7317    1.5842   -0.3166 C   0  0  0  0  0  0  0  0  0  0  0  0
   -1.7933    0.6117   -0.0478 N   0  0  0  0  0  0  0  0  0  0  0  0
   -3.1147    1.0166   -0.2035 C   0  0  0  0  0  0  0  0  0  0  0  0
   -3.3939    2.1778   -0.4889 O   0  0  0  0  0  0  0  0  0  0  0  0
   -4.0355    0.0074   -0.0246 N   0  0  0  0  0  0  0  0  0  0  0  0
   -5.4400    0.1226    0.0149 C   0  0  0  0  0  0  0  0  0  0  0  0
   -6.1192    1.3407    0.0993 C   0  0  0  0  0  0  0  0  0  0  0  0
   -7.5177    1.3727    0.1480 C   0  0  0  0  0  0  0  0  0  0  0  0
   -8.2416    0.1846    0.1187 C   0  0  0  0  0  0  0  0  0  0  0  0
   -9.9599    0.2242    0.1802 Cl  0  0  0  0  0  0  0  0  0  0  0  0
   -7.5790   -1.0371    0.0440 C   0  0  0  0  0  0  0  0  0  0  0  0
   -6.1817   -1.0668   -0.0047 C   0  0  0  0  0  0  0  0  0  0  0  0
   -1.3678   -0.6395    0.5948 C   0  0  0  0  0  0  0  0  0  0  0  0
    0.0799   -0.6014    1.1172 C   0  0  0  0  0  0  0  0  0  0  0  0
    3.3038   -0.1248   -0.6781 C   0  0  0  0  0  0  0  0  0  0  0  0
    4.6306   -0.3301   -0.3474 C   0  0  0  0  0  0  0  0  0  0  0  0
    5.6319   -0.0853   -1.3328 N   0  0  0  0  0  0  0  0  0  0  0  0
    6.9930   -0.2468   -1.1701 C   0  0  0  0  0  0  0  0  0  0  0  0
    7.5870    0.1003   -2.3587 C   0  0  0  0  0  0  0  0  0  0  0  0
    6.5178    0.4629   -3.1920 C   0  0  0  0  0  0  0  0  0  0  0  0
    5.3330    0.3578   -2.5869 N   0  0  0  0  0  0  0  0  0  0  0  0
    5.0265   -0.7566    0.8721 N   0  0  0  0  0  0  0  0  0  0  0  0
    5.4337   -1.1305    3.3870 H   0  0  0  0  0  0  0  0  0  0  0  0
    4.4469   -2.5832    3.1001 H   0  0  0  0  0  0  0  0  0  0  0  0
    3.7278   -1.1493    3.8706 H   0  0  0  0  0  0  0  0  0  0  0  0
    1.3398    1.7188   -0.8446 H   0  0  0  0  0  0  0  0  0  0  0  0
    0.4301    0.5535   -1.8225 H   0  0  0  0  0  0  0  0  0  0  0  0
   -1.0663    2.3198   -1.0564 H   0  0  0  0  0  0  0  0  0  0  0  0
   -0.5539    2.1252    0.6213 H   0  0  0  0  0  0  0  0  0  0  0  0
   -3.6728   -0.9278   -0.1130 H   0  0  0  0  0  0  0  0  0  0  0  0
   -5.5879    2.2872    0.1365 H   0  0  0  0  0  0  0  0  0  0  0  0
   -8.0284    2.3300    0.2105 H   0  0  0  0  0  0  0  0  0  0  0  0
   -8.1404   -1.9672    0.0235 H   0  0  0  0  0  0  0  0  0  0  0  0
   -5.6854   -2.0320   -0.0621 H   0  0  0  0  0  0  0  0  0  0  0  0
   -1.4666   -1.4282   -0.1608 H   0  0  0  0  0  0  0  0  0  0  0  0
   -2.0493   -0.8731    1.4201 H   0  0  0  0  0  0  0  0  0  0  0  0
    0.1522    0.1040    1.9552 H   0  0  0  0  0  0  0  0  0  0  0  0
    0.3248   -1.6033    1.4914 H   0  0  0  0  0  0  0  0  0  0  0  0
    3.0156    0.1905   -1.6728 H   0  0  0  0  0  0  0  0  0  0  0  0
    7.4001   -0.5915   -0.2298 H   0  0  0  0  0  0  0  0  0  0  0  0
    8.6427    0.0921   -2.5890 H   0  0  0  0  0  0  0  0  0  0  0  0
    6.5525    0.8017   -4.2200 H   0  0  0  0  0  0  0  0  0  0  0  0
  1  2  1  0
  2  3  2  0
  3  4  1  0
  4  5  1  0
  5  6  1  0
  6  7  1  0
  7  8  1  0
  8  9  1  0
  9 10  2  0
  9 11  1  0
 11 12  1  0
 12 13  2  0
 13 14  1  0
 14 15  2  0
 15 16  1  0
 15 17  1  0
 17 18  2  0
  8 19  1  0
 19 20  1  0
  4 21  2  0
 21 22  1  0
 22 23  1  0
 23 24  1  0
 24 25  2  0
 25 26  1  0
 26 27  2  0
 22 28  2  0
 28  2  1  0
 20  5  1  0
 27 23  1  0
 18 12  1  0
  1 29  1  0
  1 30  1  0
  1 31  1  0
  6 32  1  0
  6 33  1  0
  7 34  1  0
  7 35  1  0
 11 36  1  0
 13 37  1  0
 14 38  1  0
 17 39  1  0
 18 40  1  0
 19 41  1  0
 19 42  1  0
 20 43  1  0
 20 44  1  0
 21 45  1  0
 24 46  1  0
 25 47  1  0
 26 48  1  0
M  END
$$$$
