
     RDKit          3D

 62 63  0  0  0  0  0  0  0  0999 V2000
   -6.3261   -1.6585    0.7364 C   0  0  0  0  0  0  0  0  0  0  0  0
   -5.7319   -2.2128   -0.5466 C   0  0  0  0  0  0  0  0  0  0  0  0
   -4.5519   -1.4098   -1.0585 C   0  0  0  0  0  0  0  0  0  0  0  0
   -3.5081   -1.9336   -1.4419 O   0  0  0  0  0  0  0  0  0  0  0  0
   -4.7074    0.0523   -1.1884 C   0  0  0  0  0  0  0  0  0  0  0  0
   -5.5899    0.5626   -2.1464 C   0  0  0  0  0  0  0  0  0  0  0  0
   -5.7228    1.9438   -2.2922 C   0  0  0  0  0  0  0  0  0  0  0  0
   -4.9805    2.8075   -1.4826 C   0  0  0  0  0  0  0  0  0  0  0  0
   -4.1025    2.2945   -0.5241 C   0  0  0  0  0  0  0  0  0  0  0  0
   -3.9523    0.9130   -0.3869 C   0  0  0  0  0  0  0  0  0  0  0  0
   -3.1545    0.3905    0.5941 O   0  0  0  0  0  0  0  0  0  0  0  0
   -1.7676    0.6917    0.3712 C   0  0  0  0  0  0  0  0  0  0  0  0
   -0.9301   -0.2927    1.2051 C   0  0  0  0  0  0  0  0  0  0  0  0
    0.5199   -0.0911    1.2413 N   0  0  0  0  0  0  0  0  0  0  0  0
    0.9538    1.1916    1.7903 C   0  0  0  0  0  0  0  0  0  0  0  0
    2.4881    1.2410    2.0296 C   0  0  0  0  0  0  0  0  0  0  0  0
    3.2904    0.3608    1.1557 N   0  0  0  0  0  0  0  0  0  0  0  0
    4.6754    0.8355    1.0557 C   0  0  0  0  0  0  0  0  0  0  0  0
    5.6201   -0.1740    0.4380 C   0  0  0  0  0  0  0  0  0  0  0  0
    6.4316    0.1776   -0.6507 C   0  0  0  0  0  0  0  0  0  0  0  0
    7.3138   -0.7521   -1.2064 C   0  0  0  0  0  0  0  0  0  0  0  0
    7.3971   -2.0399   -0.6784 C   0  0  0  0  0  0  0  0  0  0  0  0
    6.6015   -2.3999    0.4079 C   0  0  0  0  0  0  0  0  0  0  0  0
    5.7204   -1.4715    0.9650 C   0  0  0  0  0  0  0  0  0  0  0  0
    2.6354    0.1947   -0.1496 C   0  0  0  0  0  0  0  0  0  0  0  0
    1.2022   -0.3968   -0.0260 C   0  0  0  0  0  0  0  0  0  0  0  0
    1.1031   -0.8783    1.0923 O   0  0  0  0  0  0  0  0  0  0  0  0
    0.7409   -0.1340    0.2023 C   0  0  0  0  0  0  0  0  0  0  0  0
    1.6147    0.5551   -0.5440 O   0  0  0  0  0  0  0  0  0  0  0  0
   -0.7410    0.1336   -0.2031 C   0  0  0  0  0  0  0  0  0  0  0  0
   -1.1044    0.8793   -1.0910 O   0  0  0  0  0  0  0  0  0  0  0  0
   -1.6141   -0.5571    0.5426 O   0  0  0  0  0  0  0  0  0  0  0  0
   -6.8044   -0.6889    0.5687 H   0  0  0  0  0  0  0  0  0  0  0  0
   -5.5539   -1.5254    1.5002 H   0  0  0  0  0  0  0  0  0  0  0  0
   -7.0858   -2.3421    1.1278 H   0  0  0  0  0  0  0  0  0  0  0  0
   -5.3778   -3.2336   -0.3546 H   0  0  0  0  0  0  0  0  0  0  0  0
   -6.4905   -2.2723   -1.3340 H   0  0  0  0  0  0  0  0  0  0  0  0
   -6.1623   -0.1054   -2.7856 H   0  0  0  0  0  0  0  0  0  0  0  0
   -6.4031    2.3496   -3.0377 H   0  0  0  0  0  0  0  0  0  0  0  0
   -5.0912    3.8848   -1.5943 H   0  0  0  0  0  0  0  0  0  0  0  0
   -3.5538    2.9768    0.1203 H   0  0  0  0  0  0  0  0  0  0  0  0
   -1.5176    0.5957   -0.6923 H   0  0  0  0  0  0  0  0  0  0  0  0
   -1.5790    1.7194    0.6977 H   0  0  0  0  0  0  0  0  0  0  0  0
   -1.1464   -1.3137    0.8628 H   0  0  0  0  0  0  0  0  0  0  0  0
   -1.3048   -0.2758    2.2374 H   0  0  0  0  0  0  0  0  0  0  0  0
    0.4523    1.3912    2.7443 H   0  0  0  0  0  0  0  0  0  0  0  0
    0.6845    2.0046    1.1041 H   0  0  0  0  0  0  0  0  0  0  0  0
    2.6891    0.9450    3.0675 H   0  0  0  0  0  0  0  0  0  0  0  0
    2.8019    2.2889    1.9261 H   0  0  0  0  0  0  0  0  0  0  0  0
    4.7148    1.7834    0.5025 H   0  0  0  0  0  0  0  0  0  0  0  0
    5.0665    1.0469    2.0610 H   0  0  0  0  0  0  0  0  0  0  0  0
    6.3799    1.1772   -1.0747 H   0  0  0  0  0  0  0  0  0  0  0  0
    7.9360   -0.4732   -2.0535 H   0  0  0  0  0  0  0  0  0  0  0  0
    8.0818   -2.7626   -1.1139 H   0  0  0  0  0  0  0  0  0  0  0  0
    6.6614   -3.4042    0.8198 H   0  0  0  0  0  0  0  0  0  0  0  0
    5.0956   -1.7620    1.8088 H   0  0  0  0  0  0  0  0  0  0  0  0
    2.5742    1.1680   -0.6560 H   0  0  0  0  0  0  0  0  0  0  0  0
    3.2122   -0.4708   -0.8019 H   0  0  0  0  0  0  0  0  0  0  0  0
    1.2667   -1.4890   -0.1120 H   0  0  0  0  0  0  0  0  0  0  0  0
    0.6295   -0.0369   -0.8888 H   0  0  0  0  0  0  0  0  0  0  0  0
    2.4920    0.3026   -0.1912 H   0  0  0  0  0  0  0  0  0  0  0  0
   -2.4912   -0.3012    0.1921 H   0  0  0  0  0  0  0  0  0  0  0  0
  1  2  1  0
  2  3  1  0
  3  4  2  0
  3  5  1  0
  5  6  2  0
  6  7  1  0
  7  8  2  0
  8  9  1  0
  9 10  2  0
 10 11  1  0
 11 12  1  0
 12 13  1  0
 13 14  1  0
 14 15  1  0
 15 16  1  0
 16 17  1  0
 17 18  1  0
 18 19  1  0
 19 20  2  0
 20 21  1  0
 21 22  2  0
 22 23  1  0
 23 24  2  0
 17 25  1  0
 25 26  1  0
 27 28  2  0
 28 29  1  0
 28 30  1  0
 30 31  2  0
 30 32  1  0
 10  5  1  0
 26 14  1  0
 24 19  1  0
  1 33  1  0
  1 34  1  0
  1 35  1  0
  2 36  1  0
  2 37  1  0
  6 38  1  0
  7 39  1  0
  8 40  1  0
  9 41  1  0
 12 42  1  0
 12 43  1  0
 13 44  1  0
 13 45  1  0
 15 46  1  0
 15 47  1  0
 16 48  1  0
 16 49  1  0
 18 50  1  0
 18 51  1  0
 20 52  1  0
 21 53  1  0
 22 54  1  0
 23 55  1  0
 24 56  1  0
 25 57  1  0
 25 58  1  0
 26 59  1  0
 26 60  1  0
 29 61  1  0
 32 62  1  0
M  END
$$$$
