
     RDKit          3D

 47 49  0  0  0  0  0  0  0  0999 V2000
   -3.2644    1.0419    3.5379 C   0  0  0  0  0  0  0  0  0  0  0  0
   -2.8038   -0.3977    3.3899 C   0  0  0  0  0  0  0  0  0  0  0  0
   -1.7230   -0.4903    2.4628 O   0  0  0  0  0  0  0  0  0  0  0  0
   -2.0002   -0.6841    1.1384 C   0  0  0  0  0  0  0  0  0  0  0  0
   -3.2660   -0.6701    0.5472 C   0  0  0  0  0  0  0  0  0  0  0  0
   -3.4043   -0.8756   -0.8297 C   0  0  0  0  0  0  0  0  0  0  0  0
   -2.2723   -1.0746   -1.6170 C   0  0  0  0  0  0  0  0  0  0  0  0
   -2.3988   -1.3126   -2.9605 O   0  0  0  0  0  0  0  0  0  0  0  0
   -2.7099   -0.1121   -3.6823 C   0  0  0  0  0  0  0  0  0  0  0  0
   -3.8344   -0.4179   -4.6541 C   0  0  0  0  0  0  0  0  0  0  0  0
   -1.0053   -1.1155   -1.0289 C   0  0  0  0  0  0  0  0  0  0  0  0
    0.1511   -1.2906   -1.8518 N   0  0  0  0  0  0  0  0  0  0  0  0
    0.9639    0.1142   -2.3325 S   0  0  0  0  0  6  0  0  0  0  0  0
    0.0440    1.2313   -2.3635 O   0  0  0  0  0  0  0  0  0  0  0  0
    1.7442   -0.2422   -3.4984 O   0  0  0  0  0  0  0  0  0  0  0  0
    2.1131    0.3626   -0.9997 C   0  0  0  0  0  0  0  0  0  0  0  0
    1.9168    1.4332   -0.0980 C   0  0  0  0  0  0  0  0  0  0  0  0
    2.8170    1.6456    0.9509 C   0  0  0  0  0  0  0  0  0  0  0  0
    3.8842    0.7775    1.0460 C   0  0  0  0  0  0  0  0  0  0  0  0
    4.0791   -0.2619    0.1562 C   0  0  0  0  0  0  0  0  0  0  0  0
    3.2118   -0.4987   -0.8871 C   0  0  0  0  0  0  0  0  0  0  0  0
    5.2145   -1.0036    0.4408 O   0  0  0  0  0  0  0  0  0  0  0  0
    5.7251   -0.3580    1.5779 C   0  0  0  0  0  0  0  0  0  0  0  0
    6.7447   -0.7230    2.1471 O   0  0  0  0  0  0  0  0  0  0  0  0
    4.9265    0.7086    1.9378 N   0  0  0  0  0  0  0  0  0  0  0  0
    5.1386    1.5947    3.0454 C   0  0  0  0  0  0  0  0  0  0  0  0
   -0.8708   -0.9047    0.3420 C   0  0  0  0  0  0  0  0  0  0  0  0
   -2.4253    1.6845    3.8250 H   0  0  0  0  0  0  0  0  0  0  0  0
   -4.0447    1.1214    4.3003 H   0  0  0  0  0  0  0  0  0  0  0  0
   -3.6568    1.4362    2.5959 H   0  0  0  0  0  0  0  0  0  0  0  0
   -2.4116   -0.7354    4.3560 H   0  0  0  0  0  0  0  0  0  0  0  0
   -3.6269   -1.0784    3.1467 H   0  0  0  0  0  0  0  0  0  0  0  0
   -4.1680   -0.4991    1.1250 H   0  0  0  0  0  0  0  0  0  0  0  0
   -4.3921   -0.8790   -1.2815 H   0  0  0  0  0  0  0  0  0  0  0  0
   -2.9970    0.7248   -3.0329 H   0  0  0  0  0  0  0  0  0  0  0  0
   -1.8156    0.1837   -4.2412 H   0  0  0  0  0  0  0  0  0  0  0  0
   -4.0771    0.4606   -5.2586 H   0  0  0  0  0  0  0  0  0  0  0  0
   -4.7333   -0.7346   -4.1151 H   0  0  0  0  0  0  0  0  0  0  0  0
   -3.5560   -1.2401   -5.3215 H   0  0  0  0  0  0  0  0  0  0  0  0
   -0.0099   -1.8794   -2.6727 H   0  0  0  0  0  0  0  0  0  0  0  0
    1.0601    2.0964   -0.2102 H   0  0  0  0  0  0  0  0  0  0  0  0
    2.6726    2.4602    1.6511 H   0  0  0  0  0  0  0  0  0  0  0  0
    3.3769   -1.3142   -1.5831 H   0  0  0  0  0  0  0  0  0  0  0  0
    6.0458    1.3169    3.5892 H   0  0  0  0  0  0  0  0  0  0  0  0
    4.2838    1.5349    3.7254 H   0  0  0  0  0  0  0  0  0  0  0  0
    5.2453    2.6186    2.6751 H   0  0  0  0  0  0  0  0  0  0  0  0
    0.1087   -0.9326    0.8101 H   0  0  0  0  0  0  0  0  0  0  0  0
  1  2  1  0
  2  3  1  0
  3  4  1  0
  4  5  2  0
  5  6  1  0
  6  7  2  0
  7  8  1  0
  8  9  1  0
  9 10  1  0
  7 11  1  0
 11 12  1  0
 12 13  1  0
 13 14  2  0
 13 15  2  0
 13 16  1  0
 16 17  2  0
 17 18  1  0
 18 19  2  0
 19 20  1  0
 20 21  2  0
 20 22  1  0
 22 23  1  0
 23 24  2  0
 23 25  1  0
 25 26  1  0
 11 27  2  0
 27  4  1  0
 21 16  1  0
 25 19  1  0
  1 28  1  0
  1 29  1  0
  1 30  1  0
  2 31  1  0
  2 32  1  0
  5 33  1  0
  6 34  1  0
  9 35  1  0
  9 36  1  0
 10 37  1  0
 10 38  1  0
 10 39  1  0
 12 40  1  0
 17 41  1  0
 18 42  1  0
 21 43  1  0
 26 44  1  0
 26 45  1  0
 26 46  1  0
 27 47  1  0
M  END
$$$$
