
     RDKit          3D

 37 39  0  0  0  0  0  0  0  0999 V2000
   -5.2471    0.0357    0.5200 C   0  0  0  0  0  0  0  0  0  0  0  0
   -3.7651   -0.0530    0.3066 C   0  0  0  0  0  0  0  0  0  0  0  0
   -3.0713   -1.2219    0.6222 C   0  0  0  0  0  0  0  0  0  0  0  0
   -1.6735   -1.3085    0.4786 C   0  0  0  0  0  0  0  0  0  0  0  0
   -1.0245   -2.5974    0.9120 C   0  0  0  0  0  0  0  0  0  0  0  0
   -0.9553   -0.1991   -0.0291 C   0  0  0  0  0  0  0  0  0  0  0  0
    0.4499   -0.2623   -0.2107 N   0  0  0  0  0  0  0  0  0  0  0  0
    1.0997   -1.2492   -0.9127 C   0  0  0  0  0  0  0  0  0  0  0  0
    0.6197   -2.1583   -1.5757 O   0  0  0  0  0  0  0  0  0  0  0  0
    2.5808   -1.0848   -0.7227 C   0  0  0  0  0  0  0  0  0  0  0  0
    2.7001    0.3287   -0.1902 C   0  0  0  0  0  0  0  0  0  0  0  0
    3.8618    0.5924    0.7367 C   0  0  0  0  0  0  0  0  0  0  0  0
    4.9039    1.0385   -0.2587 C   0  0  0  0  0  0  0  0  0  0  0  0
    4.1198    1.6584   -1.3380 N   0  0  0  0  0  0  0  0  0  0  0  0
    2.9233    1.2730   -1.3072 N   0  0  0  0  0  0  0  0  0  0  0  0
    1.3322    0.6155    0.3816 C   0  0  0  0  0  0  0  0  0  0  0  0
    1.0964    1.4628    1.2325 O   0  0  0  0  0  0  0  0  0  0  0  0
   -1.6560    0.9888   -0.3533 C   0  0  0  0  0  0  0  0  0  0  0  0
   -0.9897    2.2128   -0.9287 C   0  0  0  0  0  0  0  0  0  0  0  0
   -3.0477    1.0508   -0.1554 C   0  0  0  0  0  0  0  0  0  0  0  0
   -5.7219   -0.9404    0.3751 H   0  0  0  0  0  0  0  0  0  0  0  0
   -5.7043    0.7275   -0.1952 H   0  0  0  0  0  0  0  0  0  0  0  0
   -5.4586    0.3850    1.5352 H   0  0  0  0  0  0  0  0  0  0  0  0
   -3.6244   -2.0787    1.0055 H   0  0  0  0  0  0  0  0  0  0  0  0
   -0.9830   -3.3031    0.0777 H   0  0  0  0  0  0  0  0  0  0  0  0
   -1.5949   -3.0643    1.7233 H   0  0  0  0  0  0  0  0  0  0  0  0
   -0.0186   -2.4309    1.3087 H   0  0  0  0  0  0  0  0  0  0  0  0
    2.9115   -1.8340    0.0043 H   0  0  0  0  0  0  0  0  0  0  0  0
    3.1019   -1.2312   -1.6734 H   0  0  0  0  0  0  0  0  0  0  0  0
    3.6460    1.4084    1.4363 H   0  0  0  0  0  0  0  0  0  0  0  0
    4.1785   -0.2750    1.3229 H   0  0  0  0  0  0  0  0  0  0  0  0
    5.6059    1.7551    0.1771 H   0  0  0  0  0  0  0  0  0  0  0  0
    5.4699    0.1906   -0.6594 H   0  0  0  0  0  0  0  0  0  0  0  0
   -1.6950    2.7902   -1.5373 H   0  0  0  0  0  0  0  0  0  0  0  0
   -0.6250    2.8613   -0.1273 H   0  0  0  0  0  0  0  0  0  0  0  0
   -0.1639    1.9449   -1.5946 H   0  0  0  0  0  0  0  0  0  0  0  0
   -3.5814    1.9717   -0.3868 H   0  0  0  0  0  0  0  0  0  0  0  0
  1  2  1  0
  2  3  2  0
  3  4  1  0
  4  5  1  0
  4  6  2  0
  6  7  1  0
  7  8  1  0
  8  9  2  0
  8 10  1  0
 10 11  1  0
 11 12  1  0
 12 13  1  0
 13 14  1  0
 14 15  2  0
 11 16  1  0
 16 17  2  0
  6 18  1  0
 18 19  1  0
 18 20  2  0
 20  2  1  0
 16  7  1  0
 15 11  1  0
  1 21  1  0
  1 22  1  0
  1 23  1  0
  3 24  1  0
  5 25  1  0
  5 26  1  0
  5 27  1  0
 10 28  1  0
 10 29  1  0
 12 30  1  0
 12 31  1  0
 13 32  1  0
 13 33  1  0
 19 34  1  0
 19 35  1  0
 19 36  1  0
 20 37  1  0
M  END
$$$$
