
     RDKit          3D

 41 43  0  0  0  0  0  0  0  0999 V2000
    6.4223    0.4423   -1.2794 C   0  0  0  0  0  0  0  0  0  0  0  0
    5.0356    0.8641   -0.8278 C   0  0  0  0  0  0  0  0  0  0  0  0
    4.3335   -0.3069   -0.4159 O   0  0  0  0  0  0  0  0  0  0  0  0
    3.0624   -0.1484    0.0712 C   0  0  0  0  0  0  0  0  0  0  0  0
    2.3761    1.0702    0.1305 C   0  0  0  0  0  0  0  0  0  0  0  0
    1.0778    1.1266    0.6427 C   0  0  0  0  0  0  0  0  0  0  0  0
    0.4624   -0.0426    1.0917 C   0  0  0  0  0  0  0  0  0  0  0  0
   -1.1945    0.0497    1.7379 S   0  0  0  0  0  6  0  0  0  0  0  0
   -1.5540   -1.2656    2.2293 O   0  0  0  0  0  0  0  0  0  0  0  0
   -1.2294    1.2070    2.6085 O   0  0  0  0  0  0  0  0  0  0  0  0
   -2.0963    0.3601    0.3254 N   0  0  0  0  0  0  0  0  0  0  0  0
   -1.9999   -0.6780   -0.7574 C   0  0  0  0  0  0  0  0  0  0  0  0
   -3.3198   -0.6052   -1.5409 C   0  0  0  0  0  0  0  0  0  0  0  0
   -4.2218    0.0843   -0.5717 C   0  0  0  0  0  0  0  0  0  0  0  0
   -5.5933    0.2617   -0.6743 C   0  0  0  0  0  0  0  0  0  0  0  0
   -6.2382    1.0128    0.3091 C   0  0  0  0  0  0  0  0  0  0  0  0
   -5.5063    1.5901    1.3571 C   0  0  0  0  0  0  0  0  0  0  0  0
   -4.1217    1.4128    1.4423 C   0  0  0  0  0  0  0  0  0  0  0  0
   -3.4972    0.6271    0.4893 C   0  0  0  0  0  0  0  0  0  0  0  0
    1.1357   -1.2648    1.0497 C   0  0  0  0  0  0  0  0  0  0  0  0
    2.4391   -1.3253    0.5332 C   0  0  0  0  0  0  0  0  0  0  0  0
    3.1621   -2.6443    0.4892 C   0  0  0  0  0  0  0  0  0  0  0  0
    6.9578   -0.0565   -0.4648 H   0  0  0  0  0  0  0  0  0  0  0  0
    7.0053    1.3072   -1.6081 H   0  0  0  0  0  0  0  0  0  0  0  0
    6.3575   -0.2750   -2.1043 H   0  0  0  0  0  0  0  0  0  0  0  0
    4.5168    1.3421   -1.6666 H   0  0  0  0  0  0  0  0  0  0  0  0
    5.1303    1.5665    0.0084 H   0  0  0  0  0  0  0  0  0  0  0  0
    2.8244    1.9971   -0.2123 H   0  0  0  0  0  0  0  0  0  0  0  0
    0.5534    2.0790    0.6904 H   0  0  0  0  0  0  0  0  0  0  0  0
   -1.1448   -0.4801   -1.4109 H   0  0  0  0  0  0  0  0  0  0  0  0
   -1.8899   -1.6806   -0.3277 H   0  0  0  0  0  0  0  0  0  0  0  0
   -3.2034    0.0056   -2.4424 H   0  0  0  0  0  0  0  0  0  0  0  0
   -3.6776   -1.6018   -1.8145 H   0  0  0  0  0  0  0  0  0  0  0  0
   -6.1544   -0.1601   -1.5021 H   0  0  0  0  0  0  0  0  0  0  0  0
   -7.3134    1.1673    0.2553 H   0  0  0  0  0  0  0  0  0  0  0  0
   -6.0179    2.1906    2.1058 H   0  0  0  0  0  0  0  0  0  0  0  0
   -3.5697    1.8917    2.2434 H   0  0  0  0  0  0  0  0  0  0  0  0
    0.6531   -2.1677    1.4188 H   0  0  0  0  0  0  0  0  0  0  0  0
    4.0634   -2.6028    1.1093 H   0  0  0  0  0  0  0  0  0  0  0  0
    2.5354   -3.4590    0.8671 H   0  0  0  0  0  0  0  0  0  0  0  0
    3.4390   -2.8911   -0.5409 H   0  0  0  0  0  0  0  0  0  0  0  0
  1  2  1  0
  2  3  1  0
  3  4  1  0
  4  5  2  0
  5  6  1  0
  6  7  2  0
  7  8  1  0
  8  9  2  0
  8 10  2  0
  8 11  1  0
 11 12  1  0
 12 13  1  0
 13 14  1  0
 14 15  2  0
 15 16  1  0
 16 17  2  0
 17 18  1  0
 18 19  2  0
  7 20  1  0
 20 21  2  0
 21 22  1  0
 21  4  1  0
 19 11  1  0
 19 14  1  0
  1 23  1  0
  1 24  1  0
  1 25  1  0
  2 26  1  0
  2 27  1  0
  5 28  1  0
  6 29  1  0
 12 30  1  0
 12 31  1  0
 13 32  1  0
 13 33  1  0
 15 34  1  0
 16 35  1  0
 17 36  1  0
 18 37  1  0
 20 38  1  0
 22 39  1  0
 22 40  1  0
 22 41  1  0
M  END
$$$$
