
     RDKit          3D

 37 38  0  0  0  0  0  0  0  0999 V2000
   -5.2729   -2.0563    1.0520 C   0  0  0  0  0  0  0  0  0  0  0  0
   -4.5680   -0.9502    0.5039 O   0  0  0  0  0  0  0  0  0  0  0  0
   -3.2277   -1.1081    0.2342 C   0  0  0  0  0  0  0  0  0  0  0  0
   -2.5159   -2.2722    0.5266 C   0  0  0  0  0  0  0  0  0  0  0  0
   -1.1602   -2.3547    0.2290 C   0  0  0  0  0  0  0  0  0  0  0  0
   -0.4993   -1.2709   -0.3645 C   0  0  0  0  0  0  0  0  0  0  0  0
    1.2395   -1.4782   -0.6907 S   0  0  0  0  0  6  0  0  0  0  0  0
    1.4891   -1.1817   -2.0823 O   0  0  0  0  0  0  0  0  0  0  0  0
    1.6823   -2.7196   -0.0910 O   0  0  0  0  0  0  0  0  0  0  0  0
    1.9372   -0.2670    0.2794 N   0  0  0  0  0  0  0  0  0  0  0  0
    3.2784    0.1722   -0.1749 C   0  0  0  0  0  0  0  0  0  0  0  0
    3.7837    1.2624    0.7625 C   0  0  0  0  0  0  0  0  0  0  0  0
    5.1559    1.7637    0.3374 C   0  0  0  0  0  0  0  0  0  0  0  0
    5.5879    2.7949    1.2146 O   0  0  0  0  0  0  0  0  0  0  0  0
   -1.1887   -0.0702   -0.6863 C   0  0  0  0  0  0  0  0  0  0  0  0
   -0.5961    1.0664   -1.2990 C   0  0  0  0  0  0  0  0  0  0  0  0
   -1.3224    2.2233   -1.5864 C   0  0  0  0  0  0  0  0  0  0  0  0
   -2.6681    2.2842   -1.2723 C   0  0  0  0  0  0  0  0  0  0  0  0
   -3.2827    1.1862   -0.6742 C   0  0  0  0  0  0  0  0  0  0  0  0
   -2.5751    0.0000   -0.3714 C   0  0  0  0  0  0  0  0  0  0  0  0
   -4.8884   -2.3161    2.0436 H   0  0  0  0  0  0  0  0  0  0  0  0
   -6.3196   -1.7597    1.1695 H   0  0  0  0  0  0  0  0  0  0  0  0
   -5.2458   -2.9173    0.3761 H   0  0  0  0  0  0  0  0  0  0  0  0
   -2.9856   -3.1349    0.9873 H   0  0  0  0  0  0  0  0  0  0  0  0
   -0.6282   -3.2751    0.4636 H   0  0  0  0  0  0  0  0  0  0  0  0
    1.9818   -0.6382    1.2316 H   0  0  0  0  0  0  0  0  0  0  0  0
    3.9660   -0.6805   -0.1614 H   0  0  0  0  0  0  0  0  0  0  0  0
    3.2130    0.5688   -1.1934 H   0  0  0  0  0  0  0  0  0  0  0  0
    3.8306    0.8891    1.7935 H   0  0  0  0  0  0  0  0  0  0  0  0
    3.0771    2.1019    0.7880 H   0  0  0  0  0  0  0  0  0  0  0  0
    5.1228    2.1770   -0.6755 H   0  0  0  0  0  0  0  0  0  0  0  0
    5.8983    0.9593    0.3550 H   0  0  0  0  0  0  0  0  0  0  0  0
    5.6648    2.4169    2.1073 H   0  0  0  0  0  0  0  0  0  0  0  0
    0.4561    1.0745   -1.5738 H   0  0  0  0  0  0  0  0  0  0  0  0
   -0.8309    3.0703   -2.0577 H   0  0  0  0  0  0  0  0  0  0  0  0
   -3.2445    3.1785   -1.4923 H   0  0  0  0  0  0  0  0  0  0  0  0
   -4.3442    1.2615   -0.4417 H   0  0  0  0  0  0  0  0  0  0  0  0
  1  2  1  0
  2  3  1  0
  3  4  2  0
  4  5  1  0
  5  6  2  0
  6  7  1  0
  7  8  2  0
  7  9  2  0
  7 10  1  0
 10 11  1  0
 11 12  1  0
 12 13  1  0
 13 14  1  0
  6 15  1  0
 15 16  2  0
 16 17  1  0
 17 18  2  0
 18 19  1  0
 19 20  2  0
 20  3  1  0
 20 15  1  0
  1 21  1  0
  1 22  1  0
  1 23  1  0
  4 24  1  0
  5 25  1  0
 10 26  1  0
 11 27  1  0
 11 28  1  0
 12 29  1  0
 12 30  1  0
 13 31  1  0
 13 32  1  0
 14 33  1  0
 16 34  1  0
 17 35  1  0
 18 36  1  0
 19 37  1  0
M  END
$$$$
