
     RDKit          3D

 47 49  0  0  0  0  0  0  0  0999 V2000
   -0.7562   -2.9386   -1.8863 C   0  0  0  0  0  0  0  0  0  0  0  0
   -0.6307   -2.1033   -0.6154 C   0  0  0  0  0  0  0  0  0  0  0  0
    0.8161   -1.6381   -0.3754 C   0  0  0  0  0  0  0  0  0  0  0  0
    1.7278   -1.8275   -1.1771 O   0  0  0  0  0  0  0  0  0  0  0  0
    1.0041   -0.9771    0.8265 N   0  0  0  0  0  0  0  0  0  0  0  0
    2.3149   -0.5609    1.2685 C   0  0  0  0  0  0  0  0  0  0  0  0
    2.9579    0.5362    0.3916 C   0  0  0  0  0  0  0  0  0  0  0  0
    3.3275    1.6258    1.4154 C   0  0  0  0  0  0  0  0  0  0  0  0
    2.0399    2.3367    1.8609 C   0  0  0  0  0  0  0  0  0  0  0  0
    1.3562    1.2834    2.7425 C   0  0  0  0  0  0  0  0  0  0  0  0
    2.3241    0.0858    2.6728 C   0  0  0  0  0  0  0  0  0  0  0  0
    3.6771    0.8008    2.6543 C   0  0  0  0  0  0  0  0  0  0  0  0
   -1.5061   -0.8814   -0.5938 N   0  0  0  0  0  0  0  0  0  0  0  0
   -1.9436   -0.3006   -1.8273 C   0  0  0  0  0  0  0  0  0  0  0  0
   -1.0519    0.5315   -2.5116 C   0  0  0  0  0  0  0  0  0  0  0  0
   -1.4125    1.0876   -3.7411 C   0  0  0  0  0  0  0  0  0  0  0  0
   -2.6586    0.7961   -4.2924 C   0  0  0  0  0  0  0  0  0  0  0  0
   -3.1051    1.4800   -5.8057 Cl  0  0  0  0  0  0  0  0  0  0  0  0
   -3.5419   -0.0538   -3.6287 C   0  0  0  0  0  0  0  0  0  0  0  0
   -3.1801   -0.6111   -2.3991 C   0  0  0  0  0  0  0  0  0  0  0  0
   -2.4455   -0.6766    0.7951 S   0  0  0  0  0  6  0  0  0  0  0  0
   -2.6931    1.0891    0.8505 C   0  0  0  0  0  0  0  0  0  0  0  0
   -3.7225   -1.3280    0.6016 O   0  0  0  0  0  0  0  0  0  0  0  0
   -1.6053   -1.0295    1.9258 O   0  0  0  0  0  0  0  0  0  0  0  0
   -0.4206   -2.3979   -2.7775 H   0  0  0  0  0  0  0  0  0  0  0  0
   -1.7900   -3.2620   -2.0459 H   0  0  0  0  0  0  0  0  0  0  0  0
   -0.1352   -3.8385   -1.8107 H   0  0  0  0  0  0  0  0  0  0  0  0
   -0.8927   -2.7686    0.2173 H   0  0  0  0  0  0  0  0  0  0  0  0
    0.2583   -1.0611    1.5194 H   0  0  0  0  0  0  0  0  0  0  0  0
    2.9595   -1.4497    1.2633 H   0  0  0  0  0  0  0  0  0  0  0  0
    2.2955    0.9165   -0.3933 H   0  0  0  0  0  0  0  0  0  0  0  0
    3.8628    0.1436   -0.0868 H   0  0  0  0  0  0  0  0  0  0  0  0
    4.1051    2.3078    1.0661 H   0  0  0  0  0  0  0  0  0  0  0  0
    1.4113    2.6378    1.0168 H   0  0  0  0  0  0  0  0  0  0  0  0
    2.2706    3.2304    2.4514 H   0  0  0  0  0  0  0  0  0  0  0  0
    0.3457    1.0525    2.3968 H   0  0  0  0  0  0  0  0  0  0  0  0
    1.2785    1.6530    3.7718 H   0  0  0  0  0  0  0  0  0  0  0  0
    2.1823   -0.6314    3.4843 H   0  0  0  0  0  0  0  0  0  0  0  0
    3.8556    1.4129    3.5448 H   0  0  0  0  0  0  0  0  0  0  0  0
    4.5238    0.1240    2.4984 H   0  0  0  0  0  0  0  0  0  0  0  0
   -0.0716    0.7504   -2.0938 H   0  0  0  0  0  0  0  0  0  0  0  0
   -0.7155    1.7371   -4.2644 H   0  0  0  0  0  0  0  0  0  0  0  0
   -4.5078   -0.2952   -4.0654 H   0  0  0  0  0  0  0  0  0  0  0  0
   -3.8688   -1.2945   -1.9085 H   0  0  0  0  0  0  0  0  0  0  0  0
   -1.7204    1.5840    0.8269 H   0  0  0  0  0  0  0  0  0  0  0  0
   -3.2011    1.3230    1.7890 H   0  0  0  0  0  0  0  0  0  0  0  0
   -3.3176    1.3993    0.0118 H   0  0  0  0  0  0  0  0  0  0  0  0
  1  2  1  0
  2  3  1  0
  3  4  2  0
  3  5  1  0
  5  6  1  0
  6  7  1  0
  7  8  1  0
  8  9  1  0
  9 10  1  0
 10 11  1  0
 11 12  1  0
  2 13  1  0
 13 14  1  0
 14 15  2  0
 15 16  1  0
 16 17  2  0
 17 18  1  0
 17 19  1  0
 19 20  2  0
 13 21  1  0
 21 22  1  0
 21 23  2  0
 21 24  2  0
 11  6  1  0
 20 14  1  0
 12  8  1  0
  1 25  1  0
  1 26  1  0
  1 27  1  0
  2 28  1  0
  5 29  1  0
  6 30  1  0
  7 31  1  0
  7 32  1  0
  8 33  1  0
  9 34  1  0
  9 35  1  0
 10 36  1  0
 10 37  1  0
 11 38  1  0
 12 39  1  0
 12 40  1  0
 15 41  1  0
 16 42  1  0
 19 43  1  0
 20 44  1  0
 22 45  1  0
 22 46  1  0
 22 47  1  0
M  END
$$$$
