
     RDKit          3D

 40 42  0  0  0  0  0  0  0  0999 V2000
    5.7340   -1.7751   -2.2169 C   0  0  0  0  0  0  0  0  0  0  0  0
    4.5664   -1.0591   -1.6098 C   0  0  0  0  0  0  0  0  0  0  0  0
    4.1843   -1.3199   -0.2913 C   0  0  0  0  0  0  0  0  0  0  0  0
    3.0835   -0.6608    0.2667 C   0  0  0  0  0  0  0  0  0  0  0  0
    2.3405    0.2617   -0.4833 C   0  0  0  0  0  0  0  0  0  0  0  0
    1.2507    0.8835    0.1590 N   0  0  0  0  0  0  0  0  0  0  0  0
    0.3437    1.7713   -0.3896 C   0  0  0  0  0  0  0  0  0  0  0  0
    0.2933    2.1468   -1.5568 O   0  0  0  0  0  0  0  0  0  0  0  0
   -0.6592    2.2736    0.6210 C   0  0  0  0  0  0  0  0  0  0  0  0
   -1.5697    1.1724    1.1132 C   0  0  0  0  0  0  0  0  0  0  0  0
   -1.2204    0.5899    2.2213 N   0  0  0  0  0  0  0  0  0  0  0  0
   -2.0116   -0.4084    2.7294 N   0  0  0  0  0  0  0  0  0  0  0  0
   -1.5610   -0.9900    3.9825 C   0  0  0  0  0  0  0  0  0  0  0  0
   -3.1790   -0.8693    2.1267 C   0  0  0  0  0  0  0  0  0  0  0  0
   -3.8879   -1.7641    2.5825 O   0  0  0  0  0  0  0  0  0  0  0  0
   -3.5558   -0.2298    0.8527 C   0  0  0  0  0  0  0  0  0  0  0  0
   -4.7008   -0.6565    0.1652 C   0  0  0  0  0  0  0  0  0  0  0  0
   -5.0451   -0.0662   -1.0497 C   0  0  0  0  0  0  0  0  0  0  0  0
   -4.2428    0.9402   -1.5816 C   0  0  0  0  0  0  0  0  0  0  0  0
   -3.1000    1.3667   -0.8987 C   0  0  0  0  0  0  0  0  0  0  0  0
   -2.7604    0.7845    0.3294 C   0  0  0  0  0  0  0  0  0  0  0  0
    2.7155    0.5137   -1.8010 C   0  0  0  0  0  0  0  0  0  0  0  0
    3.8140   -0.1466   -2.3505 C   0  0  0  0  0  0  0  0  0  0  0  0
    4.1470    0.1127   -3.6228 F   0  0  0  0  0  0  0  0  0  0  0  0
    6.0418   -1.3174   -3.1630 H   0  0  0  0  0  0  0  0  0  0  0  0
    5.4756   -2.8211   -2.4092 H   0  0  0  0  0  0  0  0  0  0  0  0
    6.5959   -1.7363   -1.5411 H   0  0  0  0  0  0  0  0  0  0  0  0
    4.7438   -2.0332    0.3116 H   0  0  0  0  0  0  0  0  0  0  0  0
    2.8140   -0.8852    1.2962 H   0  0  0  0  0  0  0  0  0  0  0  0
    1.0852    0.6107    1.1249 H   0  0  0  0  0  0  0  0  0  0  0  0
   -1.2365    3.0987    0.1921 H   0  0  0  0  0  0  0  0  0  0  0  0
   -0.1131    2.7017    1.4716 H   0  0  0  0  0  0  0  0  0  0  0  0
   -0.6737   -1.5963    3.7823 H   0  0  0  0  0  0  0  0  0  0  0  0
   -1.3047   -0.1829    4.6757 H   0  0  0  0  0  0  0  0  0  0  0  0
   -2.3314   -1.6186    4.4362 H   0  0  0  0  0  0  0  0  0  0  0  0
   -5.3237   -1.4496    0.5752 H   0  0  0  0  0  0  0  0  0  0  0  0
   -5.9370   -0.3933   -1.5805 H   0  0  0  0  0  0  0  0  0  0  0  0
   -4.5055    1.3961   -2.5345 H   0  0  0  0  0  0  0  0  0  0  0  0
   -2.4940    2.1424   -1.3581 H   0  0  0  0  0  0  0  0  0  0  0  0
    2.1839    1.2132   -2.4348 H   0  0  0  0  0  0  0  0  0  0  0  0
  1  2  1  0
  2  3  2  0
  3  4  1  0
  4  5  2  0
  5  6  1  0
  6  7  1  0
  7  8  2  0
  7  9  1  0
  9 10  1  0
 10 11  2  0
 11 12  1  0
 12 13  1  0
 12 14  1  0
 14 15  2  0
 14 16  1  0
 16 17  2  0
 17 18  1  0
 18 19  2  0
 19 20  1  0
 20 21  2  0
  5 22  1  0
 22 23  2  0
 23 24  1  0
 23  2  1  0
 21 10  1  0
 21 16  1  0
  1 25  1  0
  1 26  1  0
  1 27  1  0
  3 28  1  0
  4 29  1  0
  6 30  1  0
  9 31  1  0
  9 32  1  0
 13 33  1  0
 13 34  1  0
 13 35  1  0
 17 36  1  0
 18 37  1  0
 19 38  1  0
 20 39  1  0
 22 40  1  0
M  END
$$$$
