
     RDKit          3D

 38 39  0  0  0  0  0  0  0  0999 V2000
    5.7724    1.8513   -1.1656 C   0  0  0  0  0  0  0  0  0  0  0  0
    4.8284    1.2996   -0.2571 O   0  0  0  0  0  0  0  0  0  0  0  0
    5.1593   -0.0488    0.0939 C   0  0  0  0  0  0  0  0  0  0  0  0
    4.1013   -0.5856    1.0753 C   0  0  0  0  0  0  0  0  0  0  0  0
    4.4560   -2.0152    1.4825 C   0  0  0  0  0  0  0  0  0  0  0  0
    2.7745   -0.5112    0.4715 N   0  0  0  0  0  0  0  0  0  0  0  0
    1.6125   -0.6711    1.1971 C   0  0  0  0  0  0  0  0  0  0  0  0
    1.5821   -1.0822    2.3532 O   0  0  0  0  0  0  0  0  0  0  0  0
    0.3965   -0.2888    0.4752 C   0  0  0  0  0  0  0  0  0  0  0  0
   -0.9372   -0.3523    0.9513 C   0  0  0  0  0  0  0  0  0  0  0  0
   -1.7111    0.1151   -0.0845 C   0  0  0  0  0  0  0  0  0  0  0  0
   -3.1408    0.3223   -0.2916 C   0  0  0  0  0  0  0  0  0  0  0  0
   -4.0588    0.0096    0.7215 C   0  0  0  0  0  0  0  0  0  0  0  0
   -5.4321    0.2041    0.5349 C   0  0  0  0  0  0  0  0  0  0  0  0
   -5.9182    0.7264   -0.6669 C   0  0  0  0  0  0  0  0  0  0  0  0
   -7.3922    0.9037   -0.8801 C   0  0  0  0  0  0  0  0  0  0  0  0
   -5.0122    1.0271   -1.6876 C   0  0  0  0  0  0  0  0  0  0  0  0
   -3.6395    0.8319   -1.4993 C   0  0  0  0  0  0  0  0  0  0  0  0
   -0.8869    0.4413   -1.1221 O   0  0  0  0  0  0  0  0  0  0  0  0
    0.4298    0.1931   -0.7796 N   0  0  0  0  0  0  0  0  0  0  0  0
    5.7903    1.2752   -2.0957 H   0  0  0  0  0  0  0  0  0  0  0  0
    5.4705    2.8766   -1.3954 H   0  0  0  0  0  0  0  0  0  0  0  0
    6.7696    1.8726   -0.7156 H   0  0  0  0  0  0  0  0  0  0  0  0
    5.1799   -0.6597   -0.8170 H   0  0  0  0  0  0  0  0  0  0  0  0
    6.1511   -0.0682    0.5606 H   0  0  0  0  0  0  0  0  0  0  0  0
    4.0776    0.0548    1.9656 H   0  0  0  0  0  0  0  0  0  0  0  0
    4.4254   -2.6898    0.6196 H   0  0  0  0  0  0  0  0  0  0  0  0
    5.4614   -2.0585    1.9145 H   0  0  0  0  0  0  0  0  0  0  0  0
    3.7596   -2.4078    2.2295 H   0  0  0  0  0  0  0  0  0  0  0  0
    2.6777    0.0621   -0.3640 H   0  0  0  0  0  0  0  0  0  0  0  0
   -1.2643   -0.6953    1.9213 H   0  0  0  0  0  0  0  0  0  0  0  0
   -3.7214   -0.3936    1.6733 H   0  0  0  0  0  0  0  0  0  0  0  0
   -6.1187   -0.0553    1.3380 H   0  0  0  0  0  0  0  0  0  0  0  0
   -7.8986    1.1322    0.0636 H   0  0  0  0  0  0  0  0  0  0  0  0
   -7.5906    1.7354   -1.5643 H   0  0  0  0  0  0  0  0  0  0  0  0
   -7.8221   -0.0107   -1.3003 H   0  0  0  0  0  0  0  0  0  0  0  0
   -5.3659    1.4174   -2.6396 H   0  0  0  0  0  0  0  0  0  0  0  0
   -2.9653    1.0834   -2.3158 H   0  0  0  0  0  0  0  0  0  0  0  0
  1  2  1  0
  2  3  1  0
  3  4  1  0
  4  5  1  0
  4  6  1  0
  6  7  1  0
  7  8  2  0
  7  9  1  0
  9 10  1  0
 10 11  2  0
 11 12  1  0
 12 13  2  0
 13 14  1  0
 14 15  2  0
 15 16  1  0
 15 17  1  0
 17 18  2  0
 11 19  1  0
 19 20  1  0
 20  9  2  0
 18 12  1  0
  1 21  1  0
  1 22  1  0
  1 23  1  0
  3 24  1  0
  3 25  1  0
  4 26  1  0
  5 27  1  0
  5 28  1  0
  5 29  1  0
  6 30  1  0
 10 31  1  0
 13 32  1  0
 14 33  1  0
 16 34  1  0
 16 35  1  0
 16 36  1  0
 17 37  1  0
 18 38  1  0
M  END
$$$$
