
     RDKit          3D

 55 56  0  0  0  0  0  0  0  0999 V2000
   -0.5318   -1.4395    0.5738 C   0  0  0  0  0  0  0  0  0  0  0  0
   -1.0184   -0.0438    0.9931 C   0  0  0  0  0  0  0  0  0  0  0  0
   -2.4547    0.3135    0.4992 C   0  0  0  0  0  0  0  0  0  0  0  0
   -3.4912   -0.4524    1.3508 C   0  0  0  0  0  0  0  0  0  0  0  0
   -4.7114   -0.9140    0.5799 C   0  0  0  0  0  0  0  0  0  0  0  0
   -4.2216   -1.6778   -0.6265 C   0  0  0  0  0  0  0  0  0  0  0  0
   -3.4871   -0.7305   -1.5664 C   0  0  0  0  0  0  0  0  0  0  0  0
   -2.5072    0.1896   -0.9731 N   0  0  0  0  0  0  0  0  0  0  0  0
   -2.5434    1.4899   -1.6792 C   0  0  0  0  0  0  0  0  0  0  0  0
   -1.3046    2.3727   -1.5015 C   0  0  0  0  0  0  0  0  0  0  0  0
   -0.0682    1.7666   -2.1641 C   0  0  0  0  0  0  0  0  0  0  0  0
    1.0730    2.6563   -1.9288 N   0  0  0  0  0  0  0  0  0  0  0  0
    2.6222    2.0528   -2.1406 S   0  0  0  0  0  6  0  0  0  0  0  0
    3.5074    3.1966   -2.1418 O   0  0  0  0  0  0  0  0  0  0  0  0
    2.5852    1.1061   -3.2365 O   0  0  0  0  0  0  0  0  0  0  0  0
    2.8863    1.1800   -0.6244 C   0  0  0  0  0  0  0  0  0  0  0  0
    2.9394    1.8967    0.5744 C   0  0  0  0  0  0  0  0  0  0  0  0
    3.1372    1.2125    1.7764 C   0  0  0  0  0  0  0  0  0  0  0  0
    3.2932   -0.1788    1.7797 C   0  0  0  0  0  0  0  0  0  0  0  0
    3.4984   -0.9342    2.9072 O   0  0  0  0  0  0  0  0  0  0  0  0
    3.4503   -0.2684    4.1620 C   0  0  0  0  0  0  0  0  0  0  0  0
    3.2601   -0.8921    0.5577 C   0  0  0  0  0  0  0  0  0  0  0  0
    3.4329   -2.2551    0.6441 O   0  0  0  0  0  0  0  0  0  0  0  0
    3.5985   -2.9779   -0.5620 C   0  0  0  0  0  0  0  0  0  0  0  0
    3.0437   -0.2081   -0.6426 C   0  0  0  0  0  0  0  0  0  0  0  0
    0.4345   -1.6545    1.0467 H   0  0  0  0  0  0  0  0  0  0  0  0
   -1.2317   -2.2289    0.8830 H   0  0  0  0  0  0  0  0  0  0  0  0
   -0.3927   -1.5130   -0.5104 H   0  0  0  0  0  0  0  0  0  0  0  0
   -0.9894    0.0301    2.0877 H   0  0  0  0  0  0  0  0  0  0  0  0
   -0.2915    0.6968    0.6322 H   0  0  0  0  0  0  0  0  0  0  0  0
   -2.6137    1.3745    0.7686 H   0  0  0  0  0  0  0  0  0  0  0  0
   -3.8180    0.1940    2.1744 H   0  0  0  0  0  0  0  0  0  0  0  0
   -3.0439   -1.3307    1.8366 H   0  0  0  0  0  0  0  0  0  0  0  0
   -5.3274   -0.0550    0.2798 H   0  0  0  0  0  0  0  0  0  0  0  0
   -5.3349   -1.5584    1.2127 H   0  0  0  0  0  0  0  0  0  0  0  0
   -3.5609   -2.5012   -0.3188 H   0  0  0  0  0  0  0  0  0  0  0  0
   -5.0745   -2.1327   -1.1469 H   0  0  0  0  0  0  0  0  0  0  0  0
   -2.9451   -1.3390   -2.3090 H   0  0  0  0  0  0  0  0  0  0  0  0
   -4.2561   -0.1769   -2.1370 H   0  0  0  0  0  0  0  0  0  0  0  0
   -3.4391    2.0484   -1.3636 H   0  0  0  0  0  0  0  0  0  0  0  0
   -2.6533    1.3150   -2.7640 H   0  0  0  0  0  0  0  0  0  0  0  0
   -1.1084    2.5732   -0.4447 H   0  0  0  0  0  0  0  0  0  0  0  0
   -1.5062    3.3531   -1.9556 H   0  0  0  0  0  0  0  0  0  0  0  0
    0.1393    0.7708   -1.7562 H   0  0  0  0  0  0  0  0  0  0  0  0
   -0.2284    1.6768   -3.2441 H   0  0  0  0  0  0  0  0  0  0  0  0
    0.9992    3.6363   -2.1910 H   0  0  0  0  0  0  0  0  0  0  0  0
    2.8291    2.9797    0.5778 H   0  0  0  0  0  0  0  0  0  0  0  0
    3.1677    1.7978    2.6924 H   0  0  0  0  0  0  0  0  0  0  0  0
    3.5440   -1.0301    4.9459 H   0  0  0  0  0  0  0  0  0  0  0  0
    2.4859    0.2383    4.3152 H   0  0  0  0  0  0  0  0  0  0  0  0
    4.2914    0.4327    4.2663 H   0  0  0  0  0  0  0  0  0  0  0  0
    3.8608   -4.0110   -0.3012 H   0  0  0  0  0  0  0  0  0  0  0  0
    4.4169   -2.5711   -1.1620 H   0  0  0  0  0  0  0  0  0  0  0  0
    2.6673   -2.9981   -1.1347 H   0  0  0  0  0  0  0  0  0  0  0  0
    2.9911   -0.7374   -1.5905 H   0  0  0  0  0  0  0  0  0  0  0  0
  1  2  1  0
  2  3  1  0
  3  4  1  0
  4  5  1  0
  5  6  1  0
  6  7  1  0
  7  8  1  0
  8  9  1  0
  9 10  1  0
 10 11  1  0
 11 12  1  0
 12 13  1  0
 13 14  2  0
 13 15  2  0
 13 16  1  0
 16 17  2  0
 17 18  1  0
 18 19  2  0
 19 20  1  0
 20 21  1  0
 19 22  1  0
 22 23  1  0
 23 24  1  0
 22 25  2  0
  8  3  1  0
 25 16  1  0
  1 26  1  0
  1 27  1  0
  1 28  1  0
  2 29  1  0
  2 30  1  0
  3 31  1  0
  4 32  1  0
  4 33  1  0
  5 34  1  0
  5 35  1  0
  6 36  1  0
  6 37  1  0
  7 38  1  0
  7 39  1  0
  9 40  1  0
  9 41  1  0
 10 42  1  0
 10 43  1  0
 11 44  1  0
 11 45  1  0
 12 46  1  0
 17 47  1  0
 18 48  1  0
 21 49  1  0
 21 50  1  0
 21 51  1  0
 24 52  1  0
 24 53  1  0
 24 54  1  0
 25 55  1  0
M  END
$$$$
