
     RDKit          3D

 42 44  0  0  0  0  0  0  0  0999 V2000
    1.8984    2.6208    0.0332 O   0  0  0  0  0  0  0  0  0  0  0  0
    2.0550    1.4339   -0.2383 C   0  0  0  0  0  0  0  0  0  0  0  0
    0.9360    0.7285   -0.8937 C   0  0  0  0  0  0  0  0  0  0  0  0
    1.0961    0.1739   -2.1682 C   0  0  0  0  0  0  0  0  0  0  0  0
    0.0213   -0.4762   -2.7768 C   0  0  0  0  0  0  0  0  0  0  0  0
   -1.2067   -0.5631   -2.1141 C   0  0  0  0  0  0  0  0  0  0  0  0
   -2.5110   -1.3722   -2.9100 Cl  0  0  0  0  0  0  0  0  0  0  0  0
   -1.3685    0.0120   -0.8418 C   0  0  0  0  0  0  0  0  0  0  0  0
   -2.6220   -0.1088   -0.1461 N   0  0  0  0  0  0  0  0  0  0  0  0
   -3.4033    1.1315    0.0585 C   0  0  0  0  0  0  0  0  0  0  0  0
   -4.7177    0.8597    0.7986 C   0  0  0  0  0  0  0  0  0  0  0  0
   -5.2558   -0.5443    0.5340 C   0  0  0  0  0  0  0  0  0  0  0  0
   -4.3879   -1.6264    1.1719 C   0  0  0  0  0  0  0  0  0  0  0  0
   -2.6400   -1.2516    1.1043 S   0  0  0  0  0  6  0  0  0  0  0  0
   -2.2634   -0.5641    2.3228 O   0  0  0  0  0  0  0  0  0  0  0  0
   -1.9318   -2.4379    0.6713 O   0  0  0  0  0  0  0  0  0  0  0  0
   -0.2937    0.6662   -0.2338 C   0  0  0  0  0  0  0  0  0  0  0  0
    3.2174    0.7265    0.0284 N   0  0  0  0  0  0  0  0  0  0  0  0
    3.3486   -0.7358   -0.0212 C   0  0  0  0  0  0  0  0  0  0  0  0
    4.3582   -1.2339    1.0189 C   0  0  0  0  0  0  0  0  0  0  0  0
    5.6643   -0.6638    0.8601 O   0  0  0  0  0  0  0  0  0  0  0  0
    5.6599    0.6831    0.3630 C   0  0  0  0  0  0  0  0  0  0  0  0
    4.3524    1.4373    0.6163 C   0  0  0  0  0  0  0  0  0  0  0  0
    2.0476    0.2552   -2.6884 H   0  0  0  0  0  0  0  0  0  0  0  0
    0.1439   -0.9108   -3.7658 H   0  0  0  0  0  0  0  0  0  0  0  0
   -3.6442    1.5423   -0.9303 H   0  0  0  0  0  0  0  0  0  0  0  0
   -2.8209    1.8876    0.5959 H   0  0  0  0  0  0  0  0  0  0  0  0
   -4.5703    0.9955    1.8773 H   0  0  0  0  0  0  0  0  0  0  0  0
   -5.4585    1.6089    0.4954 H   0  0  0  0  0  0  0  0  0  0  0  0
   -5.3173   -0.7110   -0.5488 H   0  0  0  0  0  0  0  0  0  0  0  0
   -6.2776   -0.6337    0.9203 H   0  0  0  0  0  0  0  0  0  0  0  0
   -4.5507   -2.5834    0.6670 H   0  0  0  0  0  0  0  0  0  0  0  0
   -4.6397   -1.7460    2.2307 H   0  0  0  0  0  0  0  0  0  0  0  0
   -0.3985    1.1094    0.7539 H   0  0  0  0  0  0  0  0  0  0  0  0
    2.3777   -1.2126    0.1408 H   0  0  0  0  0  0  0  0  0  0  0  0
    3.7020   -0.9828   -1.0285 H   0  0  0  0  0  0  0  0  0  0  0  0
    4.4629   -2.3214    0.9536 H   0  0  0  0  0  0  0  0  0  0  0  0
    4.0118   -0.9980    2.0320 H   0  0  0  0  0  0  0  0  0  0  0  0
    6.4991    1.2096    0.8283 H   0  0  0  0  0  0  0  0  0  0  0  0
    5.8617    0.6317   -0.7133 H   0  0  0  0  0  0  0  0  0  0  0  0
    4.4073    2.4523    0.2089 H   0  0  0  0  0  0  0  0  0  0  0  0
    4.1577    1.5119    1.6927 H   0  0  0  0  0  0  0  0  0  0  0  0
  1  2  2  0
  2  3  1  0
  3  4  2  0
  4  5  1  0
  5  6  2  0
  6  7  1  0
  6  8  1  0
  8  9  1  0
  9 10  1  0
 10 11  1  0
 11 12  1  0
 12 13  1  0
 13 14  1  0
 14 15  2  0
 14 16  2  0
  8 17  2  0
  2 18  1  0
 18 19  1  0
 19 20  1  0
 20 21  1  0
 21 22  1  0
 22 23  1  0
 17  3  1  0
 23 18  1  0
 14  9  1  0
  4 24  1  0
  5 25  1  0
 10 26  1  0
 10 27  1  0
 11 28  1  0
 11 29  1  0
 12 30  1  0
 12 31  1  0
 13 32  1  0
 13 33  1  0
 17 34  1  0
 19 35  1  0
 19 36  1  0
 20 37  1  0
 20 38  1  0
 22 39  1  0
 22 40  1  0
 23 41  1  0
 23 42  1  0
M  END
$$$$
