
     RDKit          3D

 27 29  0  0  0  0  0  0  0  0999 V2000
   -0.2946    2.9272   -0.0260 C   0  0  0  0  0  0  0  0  0  0  0  0
   -0.2126    1.9444   -1.0625 O   0  0  0  0  0  0  0  0  0  0  0  0
   -0.0773    0.6867   -0.5094 C   0  0  0  0  0  0  0  0  0  0  0  0
   -1.2305   -0.0767   -0.2413 C   0  0  0  0  0  0  0  0  0  0  0  0
   -2.5477    0.3568   -0.5221 C   0  0  0  0  0  0  0  0  0  0  0  0
   -3.6453   -0.4455   -0.2188 C   0  0  0  0  0  0  0  0  0  0  0  0
   -3.4399   -1.6882    0.3641 C   0  0  0  0  0  0  0  0  0  0  0  0
   -2.1383   -2.1210    0.6321 C   0  0  0  0  0  0  0  0  0  0  0  0
   -1.0274   -1.3415    0.3355 C   0  0  0  0  0  0  0  0  0  0  0  0
    0.1938   -1.8303    0.6088 N   0  0  0  0  0  0  0  0  0  0  0  0
    1.2840   -1.1092    0.2981 C   0  0  0  0  0  0  0  0  0  0  0  0
    2.5367   -1.6511    0.5565 C   0  0  0  0  0  0  0  0  0  0  0  0
    3.7168   -0.9688    0.2483 C   0  0  0  0  0  0  0  0  0  0  0  0
    3.6522    0.2880   -0.3368 C   0  0  0  0  0  0  0  0  0  0  0  0
    2.4077    0.8549   -0.6022 C   0  0  0  0  0  0  0  0  0  0  0  0
    1.2127    0.1689   -0.2809 C   0  0  0  0  0  0  0  0  0  0  0  0
   -0.4007    3.9058   -0.5037 H   0  0  0  0  0  0  0  0  0  0  0  0
   -1.1705    2.7654    0.6112 H   0  0  0  0  0  0  0  0  0  0  0  0
    0.6159    2.9450    0.5823 H   0  0  0  0  0  0  0  0  0  0  0  0
   -2.7161    1.3249   -0.9890 H   0  0  0  0  0  0  0  0  0  0  0  0
   -4.6523   -0.1021   -0.4402 H   0  0  0  0  0  0  0  0  0  0  0  0
   -4.2846   -2.3275    0.6064 H   0  0  0  0  0  0  0  0  0  0  0  0
   -1.9849   -3.0998    1.0814 H   0  0  0  0  0  0  0  0  0  0  0  0
    2.5955   -2.6394    1.0074 H   0  0  0  0  0  0  0  0  0  0  0  0
    4.6792   -1.4265    0.4614 H   0  0  0  0  0  0  0  0  0  0  0  0
    4.5631    0.8242   -0.5893 H   0  0  0  0  0  0  0  0  0  0  0  0
    2.3651    1.8356   -1.0712 H   0  0  0  0  0  0  0  0  0  0  0  0
  1  2  1  0
  2  3  1  0
  3  4  2  0
  4  5  1  0
  5  6  2  0
  6  7  1  0
  7  8  2  0
  8  9  1  0
  9 10  2  0
 10 11  1  0
 11 12  2  0
 12 13  1  0
 13 14  2  0
 14 15  1  0
 15 16  2  0
 16  3  1  0
  9  4  1  0
 16 11  1  0
  1 17  1  0
  1 18  1  0
  1 19  1  0
  5 20  1  0
  6 21  1  0
  7 22  1  0
  8 23  1  0
 12 24  1  0
 13 25  1  0
 14 26  1  0
 15 27  1  0
M  END
$$$$
