
     RDKit          3D

 39 40  0  0  0  0  0  0  0  0999 V2000
   -1.1754    2.7043    0.9557 C   0  0  0  0  0  0  0  0  0  0  0  0
   -0.7426    1.5206    1.8064 C   0  0  0  0  0  0  0  0  0  0  0  0
   -1.4739    0.3006    1.3586 N   0  0  0  0  0  0  0  0  0  0  0  0
   -2.8099    0.1697    2.0492 C   0  0  0  0  0  0  0  0  0  0  0  0
   -3.8885   -0.3592    1.1127 C   0  0  0  0  0  0  0  0  0  0  0  0
   -4.9246   -0.8720    1.5265 O   0  0  0  0  0  0  0  0  0  0  0  0
   -3.6314   -0.1261   -0.2243 N   0  0  0  0  0  0  0  0  0  0  0  0
   -4.4577   -0.7081   -1.2474 C   0  0  0  0  0  0  0  0  0  0  0  0
   -0.5754   -1.1618    1.4534 S   0  0  0  0  0  6  0  0  0  0  0  0
   -1.4125   -2.2292    0.9538 O   0  0  0  0  0  0  0  0  0  0  0  0
    0.0162   -1.2142    2.7729 O   0  0  0  0  0  0  0  0  0  0  0  0
    0.7110   -0.9057    0.2570 C   0  0  0  0  0  0  0  0  0  0  0  0
    0.3847   -0.9110   -1.0999 C   0  0  0  0  0  0  0  0  0  0  0  0
    1.3895   -0.7108   -2.0469 C   0  0  0  0  0  0  0  0  0  0  0  0
    2.7224   -0.5136   -1.6482 C   0  0  0  0  0  0  0  0  0  0  0  0
    3.7422   -0.3091   -2.5909 C   0  0  0  0  0  0  0  0  0  0  0  0
    5.0636   -0.1203   -2.1828 C   0  0  0  0  0  0  0  0  0  0  0  0
    5.3830   -0.1350   -0.8283 C   0  0  0  0  0  0  0  0  0  0  0  0
    4.3821   -0.3377    0.1230 C   0  0  0  0  0  0  0  0  0  0  0  0
    3.0478   -0.5270   -0.2699 C   0  0  0  0  0  0  0  0  0  0  0  0
    2.0328   -0.7306    0.6766 C   0  0  0  0  0  0  0  0  0  0  0  0
   -0.9736    2.5163   -0.1043 H   0  0  0  0  0  0  0  0  0  0  0  0
   -2.2461    2.9055    1.0604 H   0  0  0  0  0  0  0  0  0  0  0  0
   -0.6301    3.6053    1.2534 H   0  0  0  0  0  0  0  0  0  0  0  0
   -0.9330    1.7172    2.8674 H   0  0  0  0  0  0  0  0  0  0  0  0
    0.3379    1.4011    1.6907 H   0  0  0  0  0  0  0  0  0  0  0  0
   -2.7299   -0.4921    2.9185 H   0  0  0  0  0  0  0  0  0  0  0  0
   -3.1551    1.1454    2.4089 H   0  0  0  0  0  0  0  0  0  0  0  0
   -2.6649    0.0981   -0.4341 H   0  0  0  0  0  0  0  0  0  0  0  0
   -4.2315   -1.7755   -1.3164 H   0  0  0  0  0  0  0  0  0  0  0  0
   -4.2314   -0.2188   -2.1973 H   0  0  0  0  0  0  0  0  0  0  0  0
   -5.5145   -0.5761   -1.0004 H   0  0  0  0  0  0  0  0  0  0  0  0
   -0.6388   -1.0796   -1.4252 H   0  0  0  0  0  0  0  0  0  0  0  0
    1.1277   -0.7168   -3.1032 H   0  0  0  0  0  0  0  0  0  0  0  0
    3.5154   -0.2977   -3.6548 H   0  0  0  0  0  0  0  0  0  0  0  0
    5.8436    0.0353   -2.9238 H   0  0  0  0  0  0  0  0  0  0  0  0
    6.4127    0.0088   -0.5106 H   0  0  0  0  0  0  0  0  0  0  0  0
    4.6544   -0.3488    1.1764 H   0  0  0  0  0  0  0  0  0  0  0  0
    2.2739   -0.7512    1.7378 H   0  0  0  0  0  0  0  0  0  0  0  0
  1  2  1  0
  2  3  1  0
  3  4  1  0
  4  5  1  0
  5  6  2  0
  5  7  1  0
  7  8  1  0
  3  9  1  0
  9 10  2  0
  9 11  2  0
  9 12  1  0
 12 13  2  0
 13 14  1  0
 14 15  2  0
 15 16  1  0
 16 17  2  0
 17 18  1  0
 18 19  2  0
 19 20  1  0
 20 21  2  0
 21 12  1  0
 20 15  1  0
  1 22  1  0
  1 23  1  0
  1 24  1  0
  2 25  1  0
  2 26  1  0
  4 27  1  0
  4 28  1  0
  7 29  1  0
  8 30  1  0
  8 31  1  0
  8 32  1  0
 13 33  1  0
 14 34  1  0
 16 35  1  0
 17 36  1  0
 18 37  1  0
 19 38  1  0
 21 39  1  0
M  END
$$$$
