
     RDKit          3D

 29 30  0  0  0  0  0  0  0  0999 V2000
   -4.0917    1.8862   -0.0528 C   0  0  0  0  0  0  0  0  0  0  0  0
   -3.5643    0.6364    0.3727 O   0  0  0  0  0  0  0  0  0  0  0  0
   -2.2899    0.3220   -0.0217 C   0  0  0  0  0  0  0  0  0  0  0  0
   -1.4768    1.1363   -0.8183 C   0  0  0  0  0  0  0  0  0  0  0  0
   -0.1878    0.7258   -1.1680 C   0  0  0  0  0  0  0  0  0  0  0  0
    0.2943   -0.5010   -0.7105 C   0  0  0  0  0  0  0  0  0  0  0  0
    1.9181   -1.0278   -1.1767 S   0  0  0  0  0  6  0  0  0  0  0  0
    2.2394   -0.4864   -2.4848 O   0  0  0  0  0  0  0  0  0  0  0  0
    2.0580   -2.4430   -0.8774 O   0  0  0  0  0  0  0  0  0  0  0  0
    2.9735   -0.2212   -0.0725 N   0  0  0  0  0  0  0  0  0  0  0  0
    4.2334   -0.7055    0.1953 C   0  0  0  0  0  0  0  0  0  0  0  0
    4.8311    0.2125    1.0260 C   0  0  0  0  0  0  0  0  0  0  0  0
    3.8754    1.2344    1.1790 C   0  0  0  0  0  0  0  0  0  0  0  0
    2.7498    0.9954    0.5014 N   0  0  0  0  0  0  0  0  0  0  0  0
   -0.5090   -1.3316    0.0741 C   0  0  0  0  0  0  0  0  0  0  0  0
   -1.8046   -0.9224    0.4269 C   0  0  0  0  0  0  0  0  0  0  0  0
   -2.6640   -1.8200    1.2756 C   0  0  0  0  0  0  0  0  0  0  0  0
   -3.5015    2.7194    0.3427 H   0  0  0  0  0  0  0  0  0  0  0  0
   -5.1048    1.9758    0.3510 H   0  0  0  0  0  0  0  0  0  0  0  0
   -4.1638    1.9332   -1.1443 H   0  0  0  0  0  0  0  0  0  0  0  0
   -1.8167    2.0991   -1.1861 H   0  0  0  0  0  0  0  0  0  0  0  0
    0.4303    1.3705   -1.7899 H   0  0  0  0  0  0  0  0  0  0  0  0
    4.5746   -1.6444   -0.2201 H   0  0  0  0  0  0  0  0  0  0  0  0
    5.8238    0.1597    1.4514 H   0  0  0  0  0  0  0  0  0  0  0  0
    3.9587    2.1501    1.7521 H   0  0  0  0  0  0  0  0  0  0  0  0
   -0.1366   -2.2972    0.4112 H   0  0  0  0  0  0  0  0  0  0  0  0
   -2.9414   -1.3116    2.2047 H   0  0  0  0  0  0  0  0  0  0  0  0
   -2.1378   -2.7412    1.5470 H   0  0  0  0  0  0  0  0  0  0  0  0
   -3.5699   -2.1034    0.7301 H   0  0  0  0  0  0  0  0  0  0  0  0
  1  2  1  0
  2  3  1  0
  3  4  2  0
  4  5  1  0
  5  6  2  0
  6  7  1  0
  7  8  2  0
  7  9  2  0
  7 10  1  0
 10 11  1  0
 11 12  2  0
 12 13  1  0
 13 14  2  0
  6 15  1  0
 15 16  2  0
 16 17  1  0
 16  3  1  0
 14 10  1  0
  1 18  1  0
  1 19  1  0
  1 20  1  0
  4 21  1  0
  5 22  1  0
 11 23  1  0
 12 24  1  0
 13 25  1  0
 15 26  1  0
 17 27  1  0
 17 28  1  0
 17 29  1  0
M  END
$$$$
