
     RDKit          3D

 41 42  0  0  0  0  0  0  0  0999 V2000
    4.3122   -2.6280    0.6117 C   0  0  0  0  0  0  0  0  0  0  0  0
    4.6975   -1.7422   -0.5604 C   0  0  0  0  0  0  0  0  0  0  0  0
    3.5453   -1.3742   -1.3172 O   0  0  0  0  0  0  0  0  0  0  0  0
    2.8647   -0.2405   -0.9757 C   0  0  0  0  0  0  0  0  0  0  0  0
    3.0960    0.5604    0.1419 C   0  0  0  0  0  0  0  0  0  0  0  0
    2.3070    1.6934    0.3713 C   0  0  0  0  0  0  0  0  0  0  0  0
    1.2853    2.0291   -0.5146 C   0  0  0  0  0  0  0  0  0  0  0  0
    0.4490    3.1524   -0.2693 N   0  0  0  0  0  0  0  0  0  0  0  0
   -0.5906    3.1277    1.0638 S   0  0  0  0  0  6  0  0  0  0  0  0
    0.1825    2.9768    2.2780 O   0  0  0  0  0  0  0  0  0  0  0  0
   -1.4966    4.2436    0.8867 O   0  0  0  0  0  0  0  0  0  0  0  0
   -1.5255    1.6348    0.8127 C   0  0  0  0  0  0  0  0  0  0  0  0
   -1.1362    0.4561    1.4492 C   0  0  0  0  0  0  0  0  0  0  0  0
   -1.8721   -0.7140    1.2463 C   0  0  0  0  0  0  0  0  0  0  0  0
   -3.0032   -0.7074    0.4217 C   0  0  0  0  0  0  0  0  0  0  0  0
   -3.7856   -1.8018    0.1594 O   0  0  0  0  0  0  0  0  0  0  0  0
   -3.4192   -3.0308    0.7733 C   0  0  0  0  0  0  0  0  0  0  0  0
   -3.4057    0.4903   -0.2021 C   0  0  0  0  0  0  0  0  0  0  0  0
   -4.6280    0.5256   -1.0789 C   0  0  0  0  0  0  0  0  0  0  0  0
   -2.6632    1.6633    0.0026 C   0  0  0  0  0  0  0  0  0  0  0  0
    1.0469    1.2338   -1.6327 C   0  0  0  0  0  0  0  0  0  0  0  0
    1.8347    0.1023   -1.8571 C   0  0  0  0  0  0  0  0  0  0  0  0
    5.2027   -2.9679    1.1482 H   0  0  0  0  0  0  0  0  0  0  0  0
    3.6617   -2.1008    1.3159 H   0  0  0  0  0  0  0  0  0  0  0  0
    3.7561   -3.5044    0.2625 H   0  0  0  0  0  0  0  0  0  0  0  0
    5.2940   -0.8762   -0.2531 H   0  0  0  0  0  0  0  0  0  0  0  0
    5.3376   -2.3222   -1.2350 H   0  0  0  0  0  0  0  0  0  0  0  0
    3.8735    0.3336    0.8631 H   0  0  0  0  0  0  0  0  0  0  0  0
    2.5026    2.3100    1.2459 H   0  0  0  0  0  0  0  0  0  0  0  0
    0.0213    3.6098   -1.0725 H   0  0  0  0  0  0  0  0  0  0  0  0
   -0.2607    0.4354    2.0947 H   0  0  0  0  0  0  0  0  0  0  0  0
   -1.5352   -1.6151    1.7486 H   0  0  0  0  0  0  0  0  0  0  0  0
   -2.4288   -3.3585    0.4406 H   0  0  0  0  0  0  0  0  0  0  0  0
   -4.1427   -3.7894    0.4595 H   0  0  0  0  0  0  0  0  0  0  0  0
   -3.4675   -2.9568    1.8646 H   0  0  0  0  0  0  0  0  0  0  0  0
   -5.5165    0.2507   -0.5014 H   0  0  0  0  0  0  0  0  0  0  0  0
   -4.7969    1.5253   -1.4929 H   0  0  0  0  0  0  0  0  0  0  0  0
   -4.5114   -0.1653   -1.9202 H   0  0  0  0  0  0  0  0  0  0  0  0
   -2.9757    2.5943   -0.4663 H   0  0  0  0  0  0  0  0  0  0  0  0
    0.2476    1.4689   -2.3290 H   0  0  0  0  0  0  0  0  0  0  0  0
    1.6433   -0.5220   -2.7270 H   0  0  0  0  0  0  0  0  0  0  0  0
  1  2  1  0
  2  3  1  0
  3  4  1  0
  4  5  2  0
  5  6  1  0
  6  7  2  0
  7  8  1  0
  8  9  1  0
  9 10  2  0
  9 11  2  0
  9 12  1  0
 12 13  2  0
 13 14  1  0
 14 15  2  0
 15 16  1  0
 16 17  1  0
 15 18  1  0
 18 19  1  0
 18 20  2  0
  7 21  1  0
 21 22  2  0
 22  4  1  0
 20 12  1  0
  1 23  1  0
  1 24  1  0
  1 25  1  0
  2 26  1  0
  2 27  1  0
  5 28  1  0
  6 29  1  0
  8 30  1  0
 13 31  1  0
 14 32  1  0
 17 33  1  0
 17 34  1  0
 17 35  1  0
 19 36  1  0
 19 37  1  0
 19 38  1  0
 20 39  1  0
 21 40  1  0
 22 41  1  0
M  END
$$$$
