
     RDKit          3D

 44 45  0  0  0  0  0  0  0  0999 V2000
    7.2636   -0.3456   -1.6474 C   0  0  0  0  0  0  0  0  0  0  0  0
    6.5588   -1.3365   -0.9099 O   0  0  0  0  0  0  0  0  0  0  0  0
    5.4391   -0.9282   -0.2395 C   0  0  0  0  0  0  0  0  0  0  0  0
    4.9091    0.3616   -0.2343 C   0  0  0  0  0  0  0  0  0  0  0  0
    3.7491    0.6425    0.4967 C   0  0  0  0  0  0  0  0  0  0  0  0
    3.1082   -0.3600    1.2371 C   0  0  0  0  0  0  0  0  0  0  0  0
    1.8418   -0.0582    1.9909 C   0  0  0  0  0  0  0  0  0  0  0  0
    0.7012   -0.1174    1.1067 N   0  0  0  0  0  0  0  0  0  0  0  0
   -0.5454    0.2753    1.5403 C   0  0  0  0  0  0  0  0  0  0  0  0
   -0.7420    0.7593    2.6492 O   0  0  0  0  0  0  0  0  0  0  0  0
   -1.6458    0.0568    0.5126 C   0  0  0  0  0  0  0  0  0  0  0  0
   -1.3999    0.9135   -0.7389 C   0  0  0  0  0  0  0  0  0  0  0  0
   -2.6965    1.4216   -1.3652 C   0  0  0  0  0  0  0  0  0  0  0  0
   -3.8072    0.3860   -1.2673 C   0  0  0  0  0  0  0  0  0  0  0  0
   -4.1026    0.0202    0.1467 N   0  0  0  0  0  0  0  0  0  0  0  0
   -5.6685    0.3935    0.7129 S   0  0  0  0  0  6  0  0  0  0  0  0
   -6.6664   -0.7448   -0.2260 C   0  0  0  0  0  0  0  0  0  0  0  0
   -5.9782    1.7435    0.2954 O   0  0  0  0  0  0  0  0  0  0  0  0
   -5.7497   -0.0031    2.1019 O   0  0  0  0  0  0  0  0  0  0  0  0
   -3.0161    0.3516    1.1242 C   0  0  0  0  0  0  0  0  0  0  0  0
    3.6394   -1.6547    1.2207 C   0  0  0  0  0  0  0  0  0  0  0  0
    4.7973   -1.9315    0.4898 C   0  0  0  0  0  0  0  0  0  0  0  0
    6.6428    0.0630   -2.4517 H   0  0  0  0  0  0  0  0  0  0  0  0
    7.6336    0.4481   -0.9900 H   0  0  0  0  0  0  0  0  0  0  0  0
    8.1313   -0.8267   -2.1090 H   0  0  0  0  0  0  0  0  0  0  0  0
    5.3703    1.1723   -0.7885 H   0  0  0  0  0  0  0  0  0  0  0  0
    3.3454    1.6534    0.4851 H   0  0  0  0  0  0  0  0  0  0  0  0
    1.6856   -0.7804    2.8010 H   0  0  0  0  0  0  0  0  0  0  0  0
    1.8926    0.9347    2.4533 H   0  0  0  0  0  0  0  0  0  0  0  0
    0.7805   -0.6884    0.2753 H   0  0  0  0  0  0  0  0  0  0  0  0
   -1.6195   -1.0044    0.2275 H   0  0  0  0  0  0  0  0  0  0  0  0
   -0.7537    1.7727   -0.5201 H   0  0  0  0  0  0  0  0  0  0  0  0
   -0.8562    0.3077   -1.4753 H   0  0  0  0  0  0  0  0  0  0  0  0
   -3.0092    2.3435   -0.8588 H   0  0  0  0  0  0  0  0  0  0  0  0
   -2.5175    1.6855   -2.4137 H   0  0  0  0  0  0  0  0  0  0  0  0
   -3.5188   -0.5314   -1.7942 H   0  0  0  0  0  0  0  0  0  0  0  0
   -4.6971    0.7689   -1.7763 H   0  0  0  0  0  0  0  0  0  0  0  0
   -6.3225   -1.7614   -0.0269 H   0  0  0  0  0  0  0  0  0  0  0  0
   -7.7009   -0.6341    0.1066 H   0  0  0  0  0  0  0  0  0  0  0  0
   -6.5964   -0.5064   -1.2878 H   0  0  0  0  0  0  0  0  0  0  0  0
   -3.0930    1.4034    1.4273 H   0  0  0  0  0  0  0  0  0  0  0  0
   -3.1515   -0.2688    2.0183 H   0  0  0  0  0  0  0  0  0  0  0  0
    3.1598   -2.4568    1.7775 H   0  0  0  0  0  0  0  0  0  0  0  0
    5.2048   -2.9398    0.4887 H   0  0  0  0  0  0  0  0  0  0  0  0
  1  2  1  0
  2  3  1  0
  3  4  2  0
  4  5  1  0
  5  6  2  0
  6  7  1  0
  7  8  1  0
  8  9  1  0
  9 10  2  0
  9 11  1  0
 11 12  1  0
 12 13  1  0
 13 14  1  0
 14 15  1  0
 15 16  1  0
 16 17  1  0
 16 18  2  0
 16 19  2  0
 15 20  1  0
  6 21  1  0
 21 22  2  0
 22  3  1  0
 20 11  1  0
  1 23  1  0
  1 24  1  0
  1 25  1  0
  4 26  1  0
  5 27  1  0
  7 28  1  0
  7 29  1  0
  8 30  1  0
 11 31  1  0
 12 32  1  0
 12 33  1  0
 13 34  1  0
 13 35  1  0
 14 36  1  0
 14 37  1  0
 17 38  1  0
 17 39  1  0
 17 40  1  0
 20 41  1  0
 20 42  1  0
 21 43  1  0
 22 44  1  0
M  END
$$$$
