
     RDKit          3D

 55 56  0  0  0  0  0  0  0  0999 V2000
   -6.1507   -2.2228    1.0331 C   0  0  0  0  0  0  0  0  0  0  0  0
   -5.5275   -0.8590    0.7511 C   0  0  0  0  0  0  0  0  0  0  0  0
   -5.5278   -0.4957   -0.6760 N   0  0  0  0  0  0  0  0  0  0  0  0
   -6.8653   -0.4405   -1.2862 C   0  0  0  0  0  0  0  0  0  0  0  0
   -7.8491    0.5574   -0.6819 C   0  0  0  0  0  0  0  0  0  0  0  0
   -4.7800    0.7550   -0.9090 C   0  0  0  0  0  0  0  0  0  0  0  0
   -3.2818    0.6011   -0.7384 C   0  0  0  0  0  0  0  0  0  0  0  0
   -2.5649    1.4707    0.0922 C   0  0  0  0  0  0  0  0  0  0  0  0
   -1.1781    1.3421    0.2377 C   0  0  0  0  0  0  0  0  0  0  0  0
   -0.4831    0.3442   -0.4454 C   0  0  0  0  0  0  0  0  0  0  0  0
    0.9117    0.1522   -0.3566 N   0  0  0  0  0  0  0  0  0  0  0  0
    1.8001    0.8271    0.4595 C   0  0  0  0  0  0  0  0  0  0  0  0
    1.5375    1.6688    1.3090 O   0  0  0  0  0  0  0  0  0  0  0  0
    3.2240    0.4303    0.2860 C   0  0  0  0  0  0  0  0  0  0  0  0
    4.0220    0.3127    1.4324 C   0  0  0  0  0  0  0  0  0  0  0  0
    5.3596   -0.0624    1.3171 C   0  0  0  0  0  0  0  0  0  0  0  0
    6.2217   -0.2257    2.3699 O   0  0  0  0  0  0  0  0  0  0  0  0
    5.7023   -0.0330    3.6790 C   0  0  0  0  0  0  0  0  0  0  0  0
    5.8900   -0.2907    0.0340 C   0  0  0  0  0  0  0  0  0  0  0  0
    7.1972   -0.7099   -0.0911 O   0  0  0  0  0  0  0  0  0  0  0  0
    8.0606    0.4208   -0.2000 C   0  0  0  0  0  0  0  0  0  0  0  0
    5.0988   -0.1679   -1.1238 C   0  0  0  0  0  0  0  0  0  0  0  0
    5.7269   -0.4195   -2.3158 O   0  0  0  0  0  0  0  0  0  0  0  0
    4.9543   -0.3286   -3.5046 C   0  0  0  0  0  0  0  0  0  0  0  0
    3.7613    0.2053   -0.9900 C   0  0  0  0  0  0  0  0  0  0  0  0
   -1.1954   -0.5201   -1.2851 C   0  0  0  0  0  0  0  0  0  0  0  0
   -2.5798   -0.3920   -1.4325 C   0  0  0  0  0  0  0  0  0  0  0  0
   -5.6972   -3.0008    0.4102 H   0  0  0  0  0  0  0  0  0  0  0  0
   -7.2312   -2.2220    0.8610 H   0  0  0  0  0  0  0  0  0  0  0  0
   -5.9877   -2.4964    2.0810 H   0  0  0  0  0  0  0  0  0  0  0  0
   -4.4940   -0.9138    1.1137 H   0  0  0  0  0  0  0  0  0  0  0  0
   -6.0278   -0.0954    1.3586 H   0  0  0  0  0  0  0  0  0  0  0  0
   -6.7554   -0.2159   -2.3553 H   0  0  0  0  0  0  0  0  0  0  0  0
   -7.3171   -1.4391   -1.2671 H   0  0  0  0  0  0  0  0  0  0  0  0
   -7.4718    1.5829   -0.7356 H   0  0  0  0  0  0  0  0  0  0  0  0
   -8.0759    0.3234    0.3623 H   0  0  0  0  0  0  0  0  0  0  0  0
   -8.7931    0.5257   -1.2364 H   0  0  0  0  0  0  0  0  0  0  0  0
   -5.1552    1.5553   -0.2582 H   0  0  0  0  0  0  0  0  0  0  0  0
   -4.9299    1.0992   -1.9414 H   0  0  0  0  0  0  0  0  0  0  0  0
   -3.0774    2.2589    0.6393 H   0  0  0  0  0  0  0  0  0  0  0  0
   -0.6708    2.0434    0.8926 H   0  0  0  0  0  0  0  0  0  0  0  0
    1.2794   -0.6159   -0.9030 H   0  0  0  0  0  0  0  0  0  0  0  0
    3.5667    0.5143    2.3977 H   0  0  0  0  0  0  0  0  0  0  0  0
    6.5121   -0.2203    4.3906 H   0  0  0  0  0  0  0  0  0  0  0  0
    5.3667    0.9994    3.8216 H   0  0  0  0  0  0  0  0  0  0  0  0
    4.8988   -0.7450    3.8945 H   0  0  0  0  0  0  0  0  0  0  0  0
    8.0233    1.0417    0.7016 H   0  0  0  0  0  0  0  0  0  0  0  0
    9.0840    0.0501   -0.3114 H   0  0  0  0  0  0  0  0  0  0  0  0
    7.8217    1.0224   -1.0839 H   0  0  0  0  0  0  0  0  0  0  0  0
    4.5907    0.6923   -3.6603 H   0  0  0  0  0  0  0  0  0  0  0  0
    5.6051   -0.5821   -4.3470 H   0  0  0  0  0  0  0  0  0  0  0  0
    4.1274   -1.0463   -3.4947 H   0  0  0  0  0  0  0  0  0  0  0  0
    3.1316    0.3522   -1.8603 H   0  0  0  0  0  0  0  0  0  0  0  0
   -0.6901   -1.3096   -1.8343 H   0  0  0  0  0  0  0  0  0  0  0  0
   -3.1174   -1.0785   -2.0838 H   0  0  0  0  0  0  0  0  0  0  0  0
  1  2  1  0
  2  3  1  0
  3  4  1  0
  4  5  1  0
  3  6  1  0
  6  7  1  0
  7  8  2  0
  8  9  1  0
  9 10  2  0
 10 11  1  0
 11 12  1  0
 12 13  2  0
 12 14  1  0
 14 15  2  0
 15 16  1  0
 16 17  1  0
 17 18  1  0
 16 19  2  0
 19 20  1  0
 20 21  1  0
 19 22  1  0
 22 23  1  0
 23 24  1  0
 22 25  2  0
 10 26  1  0
 26 27  2  0
 27  7  1  0
 25 14  1  0
  1 28  1  0
  1 29  1  0
  1 30  1  0
  2 31  1  0
  2 32  1  0
  4 33  1  0
  4 34  1  0
  5 35  1  0
  5 36  1  0
  5 37  1  0
  6 38  1  0
  6 39  1  0
  8 40  1  0
  9 41  1  0
 11 42  1  0
 15 43  1  0
 18 44  1  0
 18 45  1  0
 18 46  1  0
 21 47  1  0
 21 48  1  0
 21 49  1  0
 24 50  1  0
 24 51  1  0
 24 52  1  0
 25 53  1  0
 26 54  1  0
 27 55  1  0
M  END
$$$$
