
     RDKit          3D

 47 49  0  0  0  0  0  0  0  0999 V2000
    6.1208    1.2878    1.7019 C   0  0  0  0  0  0  0  0  0  0  0  0
    5.5225    0.5301    0.6063 N   0  0  0  0  0  0  0  0  0  0  0  0
    5.4073    1.3411   -0.6251 C   0  0  0  0  0  0  0  0  0  0  0  0
    3.9794    1.7778   -0.9993 C   0  0  0  0  0  0  0  0  0  0  0  0
    3.0562    0.6458   -1.0656 N   0  0  0  0  0  0  0  0  0  0  0  0
    1.9021    0.7744   -1.8258 C   0  0  0  0  0  0  0  0  0  0  0  0
    1.5849    1.8010   -2.4192 O   0  0  0  0  0  0  0  0  0  0  0  0
    1.0107   -0.3963   -1.9447 C   0  0  0  0  0  0  0  0  0  0  0  0
    1.4464   -1.5368   -2.6242 C   0  0  0  0  0  0  0  0  0  0  0  0
    0.5828   -2.6197   -2.7610 C   0  0  0  0  0  0  0  0  0  0  0  0
   -0.7054   -2.5556   -2.2206 C   0  0  0  0  0  0  0  0  0  0  0  0
   -1.1423   -1.4133   -1.5326 C   0  0  0  0  0  0  0  0  0  0  0  0
   -2.4586   -1.4247   -1.0264 N   0  0  0  0  0  0  0  0  0  0  0  0
   -2.9930   -0.5540   -0.0862 C   0  0  0  0  0  0  0  0  0  0  0  0
   -2.3459    0.2624    0.5550 O   0  0  0  0  0  0  0  0  0  0  0  0
   -4.3605   -0.7597    0.0251 N   0  0  0  0  0  0  0  0  0  0  0  0
   -5.2426   -0.1687    0.9523 C   0  0  0  0  0  0  0  0  0  0  0  0
   -4.8255    0.5774    2.0576 C   0  0  0  0  0  0  0  0  0  0  0  0
   -5.7634    1.1209    2.9433 C   0  0  0  0  0  0  0  0  0  0  0  0
   -7.1228    0.9155    2.7284 C   0  0  0  0  0  0  0  0  0  0  0  0
   -8.2745    1.5806    3.8183 Cl  0  0  0  0  0  0  0  0  0  0  0  0
   -7.5536    0.1686    1.6359 C   0  0  0  0  0  0  0  0  0  0  0  0
   -6.6149   -0.3737    0.7523 C   0  0  0  0  0  0  0  0  0  0  0  0
   -0.2812   -0.3221   -1.4129 C   0  0  0  0  0  0  0  0  0  0  0  0
    3.3473   -0.4784   -0.1671 C   0  0  0  0  0  0  0  0  0  0  0  0
    4.2290   -0.0492    1.0203 C   0  0  0  0  0  0  0  0  0  0  0  0
    5.5192    2.1618    1.9751 H   0  0  0  0  0  0  0  0  0  0  0  0
    6.2378    0.6553    2.5890 H   0  0  0  0  0  0  0  0  0  0  0  0
    7.1244    1.6317    1.4275 H   0  0  0  0  0  0  0  0  0  0  0  0
    5.7910    0.7180   -1.4435 H   0  0  0  0  0  0  0  0  0  0  0  0
    6.0609    2.2215   -0.5923 H   0  0  0  0  0  0  0  0  0  0  0  0
    3.9905    2.2983   -1.9636 H   0  0  0  0  0  0  0  0  0  0  0  0
    3.5867    2.4776   -0.2513 H   0  0  0  0  0  0  0  0  0  0  0  0
    2.4424   -1.5710   -3.0575 H   0  0  0  0  0  0  0  0  0  0  0  0
    0.9066   -3.5101   -3.2944 H   0  0  0  0  0  0  0  0  0  0  0  0
   -1.3605   -3.4147   -2.3432 H   0  0  0  0  0  0  0  0  0  0  0  0
   -2.9943   -2.2629   -1.1937 H   0  0  0  0  0  0  0  0  0  0  0  0
   -4.7882   -1.2467   -0.7477 H   0  0  0  0  0  0  0  0  0  0  0  0
   -3.7735    0.7520    2.2642 H   0  0  0  0  0  0  0  0  0  0  0  0
   -5.4197    1.7010    3.7958 H   0  0  0  0  0  0  0  0  0  0  0  0
   -8.6143    0.0049    1.4653 H   0  0  0  0  0  0  0  0  0  0  0  0
   -6.9752   -0.9534   -0.0936 H   0  0  0  0  0  0  0  0  0  0  0  0
   -0.5891    0.5998   -0.9274 H   0  0  0  0  0  0  0  0  0  0  0  0
    2.4137   -0.9073    0.2101 H   0  0  0  0  0  0  0  0  0  0  0  0
    3.8597   -1.2451   -0.7592 H   0  0  0  0  0  0  0  0  0  0  0  0
    3.6600    0.6770    1.6168 H   0  0  0  0  0  0  0  0  0  0  0  0
    4.4167   -0.9190    1.6600 H   0  0  0  0  0  0  0  0  0  0  0  0
  1  2  1  0
  2  3  1  0
  3  4  1  0
  4  5  1  0
  5  6  1  0
  6  7  2  0
  6  8  1  0
  8  9  2  0
  9 10  1  0
 10 11  2  0
 11 12  1  0
 12 13  1  0
 13 14  1  0
 14 15  2  0
 14 16  1  0
 16 17  1  0
 17 18  2  0
 18 19  1  0
 19 20  2  0
 20 21  1  0
 20 22  1  0
 22 23  2  0
 12 24  2  0
  5 25  1  0
 25 26  1  0
 26  2  1  0
 24  8  1  0
 23 17  1  0
  1 27  1  0
  1 28  1  0
  1 29  1  0
  3 30  1  0
  3 31  1  0
  4 32  1  0
  4 33  1  0
  9 34  1  0
 10 35  1  0
 11 36  1  0
 13 37  1  0
 16 38  1  0
 18 39  1  0
 19 40  1  0
 22 41  1  0
 23 42  1  0
 24 43  1  0
 25 44  1  0
 25 45  1  0
 26 46  1  0
 26 47  1  0
M  END
$$$$
