
     RDKit          3D

 36 37  0  0  0  0  0  0  0  0999 V2000
    5.0774    0.9543   -0.4958 C   0  0  0  0  0  0  0  0  0  0  0  0
    4.7393   -0.4644   -0.0659 C   0  0  0  0  0  0  0  0  0  0  0  0
    3.6047   -1.0994   -0.8734 C   0  0  0  0  0  0  0  0  0  0  0  0
    2.2672   -0.3647   -0.8415 C   0  0  0  0  0  0  0  0  0  0  0  0
    1.4942   -0.3657    0.7673 S   0  0  0  0  0  6  0  0  0  0  0  0
    1.3038   -1.7401    1.1897 O   0  0  0  0  0  0  0  0  0  0  0  0
    2.1721    0.5918    1.6194 O   0  0  0  0  0  0  0  0  0  0  0  0
   -0.1216    0.3050    0.4268 C   0  0  0  0  0  0  0  0  0  0  0  0
   -0.3075    1.6887    0.4548 C   0  0  0  0  0  0  0  0  0  0  0  0
   -1.5734    2.2114    0.1990 C   0  0  0  0  0  0  0  0  0  0  0  0
   -2.6393    1.3478   -0.0712 C   0  0  0  0  0  0  0  0  0  0  0  0
   -3.9014    1.8940   -0.3292 N   0  0  0  0  0  0  0  0  0  0  0  0
   -5.0082    1.1426   -0.5996 C   0  0  0  0  0  0  0  0  0  0  0  0
   -6.1033    1.6438   -0.8276 O   0  0  0  0  0  0  0  0  0  0  0  0
   -4.8277   -0.3265   -0.6073 C   0  0  0  0  0  0  0  0  0  0  0  0
   -3.6399   -0.9087   -0.3664 C   0  0  0  0  0  0  0  0  0  0  0  0
   -3.4945   -2.4022   -0.3765 C   0  0  0  0  0  0  0  0  0  0  0  0
   -2.4673   -0.0498   -0.0848 C   0  0  0  0  0  0  0  0  0  0  0  0
   -1.1902   -0.5647    0.1731 C   0  0  0  0  0  0  0  0  0  0  0  0
    5.9640    1.3075    0.0406 H   0  0  0  0  0  0  0  0  0  0  0  0
    5.2904    1.0000   -1.5684 H   0  0  0  0  0  0  0  0  0  0  0  0
    4.2606    1.6473   -0.2743 H   0  0  0  0  0  0  0  0  0  0  0  0
    4.5047   -0.4787    1.0034 H   0  0  0  0  0  0  0  0  0  0  0  0
    5.6349   -1.0857   -0.1894 H   0  0  0  0  0  0  0  0  0  0  0  0
    3.9262   -1.1759   -1.9197 H   0  0  0  0  0  0  0  0  0  0  0  0
    3.4637   -2.1279   -0.5192 H   0  0  0  0  0  0  0  0  0  0  0  0
    1.5727   -0.8747   -1.5184 H   0  0  0  0  0  0  0  0  0  0  0  0
    2.3629    0.6734   -1.1711 H   0  0  0  0  0  0  0  0  0  0  0  0
    0.5177    2.3607    0.6821 H   0  0  0  0  0  0  0  0  0  0  0  0
   -1.7205    3.2881    0.2204 H   0  0  0  0  0  0  0  0  0  0  0  0
   -4.0426    2.8949   -0.3203 H   0  0  0  0  0  0  0  0  0  0  0  0
   -5.7250   -0.8968   -0.8185 H   0  0  0  0  0  0  0  0  0  0  0  0
   -4.4442   -2.9026   -0.5969 H   0  0  0  0  0  0  0  0  0  0  0  0
   -2.7779   -2.7181   -1.1422 H   0  0  0  0  0  0  0  0  0  0  0  0
   -3.1564   -2.7668    0.5993 H   0  0  0  0  0  0  0  0  0  0  0  0
   -1.0157   -1.6379    0.1863 H   0  0  0  0  0  0  0  0  0  0  0  0
  1  2  1  0
  2  3  1  0
  3  4  1  0
  4  5  1  0
  5  6  2  0
  5  7  2  0
  5  8  1  0
  8  9  2  0
  9 10  1  0
 10 11  2  0
 11 12  1  0
 12 13  1  0
 13 14  2  0
 13 15  1  0
 15 16  2  0
 16 17  1  0
 16 18  1  0
 18 19  2  0
 19  8  1  0
 18 11  1  0
  1 20  1  0
  1 21  1  0
  1 22  1  0
  2 23  1  0
  2 24  1  0
  3 25  1  0
  3 26  1  0
  4 27  1  0
  4 28  1  0
  9 29  1  0
 10 30  1  0
 12 31  1  0
 15 32  1  0
 17 33  1  0
 17 34  1  0
 17 35  1  0
 19 36  1  0
M  END
$$$$
