
     RDKit          3D

 35 37  0  0  0  0  0  0  0  0999 V2000
    2.0474   -2.1594    0.2757 C   0  0  0  0  0  0  0  0  0  0  0  0
    2.0100   -1.0284   -0.5872 O   0  0  0  0  0  0  0  0  0  0  0  0
    2.0642    0.2061    0.0123 C   0  0  0  0  0  0  0  0  0  0  0  0
    2.3281    0.4384    1.3635 C   0  0  0  0  0  0  0  0  0  0  0  0
    2.3469    1.7463    1.8595 C   0  0  0  0  0  0  0  0  0  0  0  0
    2.1055    2.8269    1.0118 C   0  0  0  0  0  0  0  0  0  0  0  0
    1.8445    2.6060   -0.3389 C   0  0  0  0  0  0  0  0  0  0  0  0
    1.8294    1.3032   -0.8367 C   0  0  0  0  0  0  0  0  0  0  0  0
    1.5065    1.0657   -2.2123 N   0  0  0  0  0  0  0  0  0  0  0  0
   -0.1026    1.2891   -2.6884 S   0  0  0  0  0  6  0  0  0  0  0  0
   -0.5082    2.6498   -2.4067 O   0  0  0  0  0  0  0  0  0  0  0  0
   -0.2198    0.7349   -4.0210 O   0  0  0  0  0  0  0  0  0  0  0  0
   -1.0097    0.2150   -1.5917 C   0  0  0  0  0  0  0  0  0  0  0  0
   -1.1965   -1.1423   -1.9576 C   0  0  0  0  0  0  0  0  0  0  0  0
   -1.8978   -2.0158   -1.1189 C   0  0  0  0  0  0  0  0  0  0  0  0
   -2.3885   -1.4850    0.0510 C   0  0  0  0  0  0  0  0  0  0  0  0
   -3.1072   -2.0984    1.0702 N   0  0  0  0  0  0  0  0  0  0  0  0
   -3.3913   -1.1455    2.0596 C   0  0  0  0  0  0  0  0  0  0  0  0
   -4.0031   -1.3341    3.0951 O   0  0  0  0  0  0  0  0  0  0  0  0
   -2.8298    0.0639    1.6254 N   0  0  0  0  0  0  0  0  0  0  0  0
   -2.2165   -0.1435    0.3955 C   0  0  0  0  0  0  0  0  0  0  0  0
   -1.5414    0.7423   -0.4065 C   0  0  0  0  0  0  0  0  0  0  0  0
    1.9055   -3.0527   -0.3401 H   0  0  0  0  0  0  0  0  0  0  0  0
    3.0217   -2.2450    0.7674 H   0  0  0  0  0  0  0  0  0  0  0  0
    1.2336   -2.1277    1.0079 H   0  0  0  0  0  0  0  0  0  0  0  0
    2.5262   -0.3711    2.0583 H   0  0  0  0  0  0  0  0  0  0  0  0
    2.5539    1.9226    2.9130 H   0  0  0  0  0  0  0  0  0  0  0  0
    2.1222    3.8418    1.4017 H   0  0  0  0  0  0  0  0  0  0  0  0
    1.6567    3.4500   -0.9983 H   0  0  0  0  0  0  0  0  0  0  0  0
    1.8537    0.1674   -2.5545 H   0  0  0  0  0  0  0  0  0  0  0  0
   -0.7910   -1.5156   -2.8969 H   0  0  0  0  0  0  0  0  0  0  0  0
   -2.0449   -3.0555   -1.3852 H   0  0  0  0  0  0  0  0  0  0  0  0
   -3.4045   -3.0591    1.1195 H   0  0  0  0  0  0  0  0  0  0  0  0
   -2.8882    0.9262    2.1425 H   0  0  0  0  0  0  0  0  0  0  0  0
   -1.4151    1.7832   -0.1321 H   0  0  0  0  0  0  0  0  0  0  0  0
  1  2  1  0
  2  3  1  0
  3  4  2  0
  4  5  1  0
  5  6  2  0
  6  7  1  0
  7  8  2  0
  8  9  1  0
  9 10  1  0
 10 11  2  0
 10 12  2  0
 10 13  1  0
 13 14  2  0
 14 15  1  0
 15 16  2  0
 16 17  1  0
 17 18  1  0
 18 19  2  0
 18 20  1  0
 20 21  1  0
 21 22  2  0
  8  3  1  0
 22 13  1  0
 21 16  1  0
  1 23  1  0
  1 24  1  0
  1 25  1  0
  4 26  1  0
  5 27  1  0
  6 28  1  0
  7 29  1  0
  9 30  1  0
 14 31  1  0
 15 32  1  0
 17 33  1  0
 20 34  1  0
 22 35  1  0
M  END
$$$$
