
     RDKit          3D

 41 43  0  0  0  0  0  0  0  0999 V2000
   -3.0469    0.9339    2.7583 C   0  0  0  0  0  0  0  0  0  0  0  0
   -3.1082    1.0706    1.2600 C   0  0  0  0  0  0  0  0  0  0  0  0
   -4.0298    1.9788    0.7097 C   0  0  0  0  0  0  0  0  0  0  0  0
   -4.1162    2.1663   -0.6681 C   0  0  0  0  0  0  0  0  0  0  0  0
   -3.2769    1.4548   -1.5154 C   0  0  0  0  0  0  0  0  0  0  0  0
   -2.3512    0.5552   -0.9851 C   0  0  0  0  0  0  0  0  0  0  0  0
   -2.2430    0.3466    0.4043 C   0  0  0  0  0  0  0  0  0  0  0  0
   -1.2476   -0.6647    0.9709 C   0  0  0  0  0  0  0  0  0  0  0  0
   -1.8890   -2.0503    1.1493 C   0  0  0  0  0  0  0  0  0  0  0  0
   -1.5427   -2.7778   -0.1427 C   0  0  0  0  0  0  0  0  0  0  0  0
   -0.1442   -2.2697   -0.4529 C   0  0  0  0  0  0  0  0  0  0  0  0
   -0.0956   -0.9229    0.1006 N   0  0  0  0  0  0  0  0  0  0  0  0
    1.0065   -0.0807    0.1457 C   0  0  0  0  0  0  0  0  0  0  0  0
    1.0231    0.9069    0.8745 O   0  0  0  0  0  0  0  0  0  0  0  0
    2.0392   -0.4705   -0.6795 N   0  0  0  0  0  0  0  0  0  0  0  0
    3.3241    0.1009   -0.7877 C   0  0  0  0  0  0  0  0  0  0  0  0
    4.1529   -0.3776   -1.8122 C   0  0  0  0  0  0  0  0  0  0  0  0
    5.4444    0.1284   -1.9817 C   0  0  0  0  0  0  0  0  0  0  0  0
    5.9225    1.1153   -1.1242 C   0  0  0  0  0  0  0  0  0  0  0  0
    5.1091    1.5931   -0.0998 C   0  0  0  0  0  0  0  0  0  0  0  0
    3.8161    1.0868    0.0691 C   0  0  0  0  0  0  0  0  0  0  0  0
   -3.8879    1.4419    3.2417 H   0  0  0  0  0  0  0  0  0  0  0  0
   -2.1232    1.3796    3.1400 H   0  0  0  0  0  0  0  0  0  0  0  0
   -3.0979   -0.1177    3.0565 H   0  0  0  0  0  0  0  0  0  0  0  0
   -4.6890    2.5520    1.3582 H   0  0  0  0  0  0  0  0  0  0  0  0
   -4.8333    2.8724   -1.0775 H   0  0  0  0  0  0  0  0  0  0  0  0
   -3.3354    1.6027   -2.5902 H   0  0  0  0  0  0  0  0  0  0  0  0
   -1.7040    0.0203   -1.6756 H   0  0  0  0  0  0  0  0  0  0  0  0
   -0.8693   -0.2998    1.9327 H   0  0  0  0  0  0  0  0  0  0  0  0
   -1.4071   -2.5694    1.9878 H   0  0  0  0  0  0  0  0  0  0  0  0
   -2.9658   -2.0293    1.3420 H   0  0  0  0  0  0  0  0  0  0  0  0
   -1.5793   -3.8662   -0.0417 H   0  0  0  0  0  0  0  0  0  0  0  0
   -2.2395   -2.4877   -0.9374 H   0  0  0  0  0  0  0  0  0  0  0  0
    0.0546   -2.2553   -1.5286 H   0  0  0  0  0  0  0  0  0  0  0  0
    0.6215   -2.8727    0.0472 H   0  0  0  0  0  0  0  0  0  0  0  0
    1.8067   -1.1545   -1.3787 H   0  0  0  0  0  0  0  0  0  0  0  0
    3.8052   -1.1481   -2.4949 H   0  0  0  0  0  0  0  0  0  0  0  0
    6.0756   -0.2480   -2.7824 H   0  0  0  0  0  0  0  0  0  0  0  0
    6.9258    1.5122   -1.2523 H   0  0  0  0  0  0  0  0  0  0  0  0
    5.4766    2.3624    0.5749 H   0  0  0  0  0  0  0  0  0  0  0  0
    3.2191    1.4818    0.8854 H   0  0  0  0  0  0  0  0  0  0  0  0
  1  2  1  0
  2  3  2  0
  3  4  1  0
  4  5  2  0
  5  6  1  0
  6  7  2  0
  7  8  1  0
  8  9  1  0
  9 10  1  0
 10 11  1  0
 11 12  1  0
 12 13  1  0
 13 14  2  0
 13 15  1  0
 15 16  1  0
 16 17  2  0
 17 18  1  0
 18 19  2  0
 19 20  1  0
 20 21  2  0
  7  2  1  0
 12  8  1  0
 21 16  1  0
  1 22  1  0
  1 23  1  0
  1 24  1  0
  3 25  1  0
  4 26  1  0
  5 27  1  0
  6 28  1  0
  8 29  1  0
  9 30  1  0
  9 31  1  0
 10 32  1  0
 10 33  1  0
 11 34  1  0
 11 35  1  0
 15 36  1  0
 17 37  1  0
 18 38  1  0
 19 39  1  0
 20 40  1  0
 21 41  1  0
M  END
$$$$
