
     RDKit          3D

 45 47  0  0  0  0  0  0  0  0999 V2000
    6.6592    0.9437   -1.5575 C   0  0  0  0  0  0  0  0  0  0  0  0
    6.2807    1.0026   -0.0855 C   0  0  0  0  0  0  0  0  0  0  0  0
    6.0017   -0.3834    0.4996 C   0  0  0  0  0  0  0  0  0  0  0  0
    4.9689   -1.0674   -0.2137 O   0  0  0  0  0  0  0  0  0  0  0  0
    3.6709   -0.9013    0.1730 C   0  0  0  0  0  0  0  0  0  0  0  0
    3.1908    0.0205    1.0989 C   0  0  0  0  0  0  0  0  0  0  0  0
    1.8200    0.0815    1.3850 C   0  0  0  0  0  0  0  0  0  0  0  0
    0.9120   -0.7903    0.7609 C   0  0  0  0  0  0  0  0  0  0  0  0
   -0.4418   -0.6777    1.1269 N   0  0  0  0  0  0  0  0  0  0  0  0
   -1.5119   -1.4285    0.6701 C   0  0  0  0  0  0  0  0  0  0  0  0
   -1.4956   -2.2724   -0.2283 O   0  0  0  0  0  0  0  0  0  0  0  0
   -2.8238   -1.0178    1.3434 C   0  0  0  0  0  0  0  0  0  0  0  0
   -3.3768    0.1517    0.6717 N   0  0  0  0  0  0  0  0  0  0  0  0
   -2.8734    1.3986    1.0258 C   0  0  0  0  0  0  0  0  0  0  0  0
   -1.9950    1.5395    1.8885 O   0  0  0  0  0  0  0  0  0  0  0  0
   -3.3870    2.5607    0.1846 C   0  0  0  0  0  0  0  0  0  0  0  0
   -4.7065    2.4645   -0.3189 O   0  0  0  0  0  0  0  0  0  0  0  0
   -5.0089    1.2164   -0.7843 C   0  0  0  0  0  0  0  0  0  0  0  0
   -6.0523    1.1570   -1.7072 C   0  0  0  0  0  0  0  0  0  0  0  0
   -6.4526   -0.0695   -2.2244 C   0  0  0  0  0  0  0  0  0  0  0  0
   -5.8056   -1.2290   -1.8142 C   0  0  0  0  0  0  0  0  0  0  0  0
   -6.2942   -2.7430   -2.4643 Cl  0  0  0  0  0  0  0  0  0  0  0  0
   -4.7730   -1.1777   -0.8773 C   0  0  0  0  0  0  0  0  0  0  0  0
   -4.3729    0.0485   -0.3362 C   0  0  0  0  0  0  0  0  0  0  0  0
    1.3984   -1.7230   -0.1512 C   0  0  0  0  0  0  0  0  0  0  0  0
    2.7672   -1.7649   -0.4498 C   0  0  0  0  0  0  0  0  0  0  0  0
    6.7191    1.9507   -1.9821 H   0  0  0  0  0  0  0  0  0  0  0  0
    7.6303    0.4594   -1.6963 H   0  0  0  0  0  0  0  0  0  0  0  0
    5.9208    0.3874   -2.1343 H   0  0  0  0  0  0  0  0  0  0  0  0
    5.3957    1.6453    0.0186 H   0  0  0  0  0  0  0  0  0  0  0  0
    7.0964    1.4702    0.4798 H   0  0  0  0  0  0  0  0  0  0  0  0
    5.7970   -0.3398    1.5720 H   0  0  0  0  0  0  0  0  0  0  0  0
    6.9081   -0.9961    0.3956 H   0  0  0  0  0  0  0  0  0  0  0  0
    3.8531    0.7029    1.6264 H   0  0  0  0  0  0  0  0  0  0  0  0
    1.4765    0.8033    2.1248 H   0  0  0  0  0  0  0  0  0  0  0  0
   -0.6857    0.1239    1.7038 H   0  0  0  0  0  0  0  0  0  0  0  0
   -3.5218   -1.8564    1.3584 H   0  0  0  0  0  0  0  0  0  0  0  0
   -2.6234   -0.7781    2.3906 H   0  0  0  0  0  0  0  0  0  0  0  0
   -2.6959    2.7055   -0.6610 H   0  0  0  0  0  0  0  0  0  0  0  0
   -3.3407    3.4608    0.8082 H   0  0  0  0  0  0  0  0  0  0  0  0
   -6.5506    2.0681   -2.0226 H   0  0  0  0  0  0  0  0  0  0  0  0
   -7.2649   -0.1163   -2.9438 H   0  0  0  0  0  0  0  0  0  0  0  0
   -4.2898   -2.1083   -0.6044 H   0  0  0  0  0  0  0  0  0  0  0  0
    0.7470   -2.4287   -0.6527 H   0  0  0  0  0  0  0  0  0  0  0  0
    3.1303   -2.4930   -1.1690 H   0  0  0  0  0  0  0  0  0  0  0  0
  1  2  1  0
  2  3  1  0
  3  4  1  0
  4  5  1  0
  5  6  2  0
  6  7  1  0
  7  8  2  0
  8  9  1  0
  9 10  1  0
 10 11  2  0
 10 12  1  0
 12 13  1  0
 13 14  1  0
 14 15  2  0
 14 16  1  0
 16 17  1  0
 17 18  1  0
 18 19  2  0
 19 20  1  0
 20 21  2  0
 21 22  1  0
 21 23  1  0
 23 24  2  0
  8 25  1  0
 25 26  2  0
 26  5  1  0
 24 13  1  0
 24 18  1  0
  1 27  1  0
  1 28  1  0
  1 29  1  0
  2 30  1  0
  2 31  1  0
  3 32  1  0
  3 33  1  0
  6 34  1  0
  7 35  1  0
  9 36  1  0
 12 37  1  0
 12 38  1  0
 16 39  1  0
 16 40  1  0
 19 41  1  0
 20 42  1  0
 23 43  1  0
 25 44  1  0
 26 45  1  0
M  END
$$$$
