
     RDKit          3D

 34 36  0  0  0  0  0  0  0  0999 V2000
    0.8307   -2.4774    0.4998 C   0  0  0  0  0  0  0  0  0  0  0  0
    0.2300   -1.1165    0.2721 C   0  0  0  0  0  0  0  0  0  0  0  0
   -1.1561   -1.1777    0.2606 O   0  0  0  0  0  0  0  0  0  0  0  0
   -1.8870   -0.0309    0.0816 C   0  0  0  0  0  0  0  0  0  0  0  0
   -3.2890   -0.1407    0.0819 C   0  0  0  0  0  0  0  0  0  0  0  0
   -3.9569   -1.4784    0.2457 C   0  0  0  0  0  0  0  0  0  0  0  0
   -4.0475    1.0183   -0.1371 C   0  0  0  0  0  0  0  0  0  0  0  0
   -5.4099    0.9168   -0.1769 O   0  0  0  0  0  0  0  0  0  0  0  0
   -3.4408    2.2616   -0.3176 C   0  0  0  0  0  0  0  0  0  0  0  0
   -2.0510    2.3577   -0.2947 C   0  0  0  0  0  0  0  0  0  0  0  0
   -1.2788    1.2080   -0.0989 C   0  0  0  0  0  0  0  0  0  0  0  0
    0.1883    1.2946   -0.0868 C   0  0  0  0  0  0  0  0  0  0  0  0
    0.7485    2.3755   -0.2327 O   0  0  0  0  0  0  0  0  0  0  0  0
    0.9372    0.0219    0.1084 C   0  0  0  0  0  0  0  0  0  0  0  0
    2.4089    0.0479    0.1187 C   0  0  0  0  0  0  0  0  0  0  0  0
    3.1000    0.3933    1.2869 C   0  0  0  0  0  0  0  0  0  0  0  0
    4.4960    0.4009    1.3016 C   0  0  0  0  0  0  0  0  0  0  0  0
    5.2084    0.0649    0.1510 C   0  0  0  0  0  0  0  0  0  0  0  0
    4.5275   -0.2758   -1.0170 C   0  0  0  0  0  0  0  0  0  0  0  0
    3.1315   -0.2840   -1.0351 C   0  0  0  0  0  0  0  0  0  0  0  0
    0.5895   -3.1348   -0.3421 H   0  0  0  0  0  0  0  0  0  0  0  0
    0.4107   -2.9204    1.4094 H   0  0  0  0  0  0  0  0  0  0  0  0
    1.9169   -2.4702    0.6176 H   0  0  0  0  0  0  0  0  0  0  0  0
   -4.9531   -1.3801    0.6889 H   0  0  0  0  0  0  0  0  0  0  0  0
   -4.0508   -1.9691   -0.7280 H   0  0  0  0  0  0  0  0  0  0  0  0
   -3.3867   -2.1285    0.9175 H   0  0  0  0  0  0  0  0  0  0  0  0
   -5.7907    1.7960   -0.3367 H   0  0  0  0  0  0  0  0  0  0  0  0
   -4.0296    3.1594   -0.4804 H   0  0  0  0  0  0  0  0  0  0  0  0
   -1.5704    3.3237   -0.4362 H   0  0  0  0  0  0  0  0  0  0  0  0
    2.5561    0.6659    2.1883 H   0  0  0  0  0  0  0  0  0  0  0  0
    5.0272    0.6755    2.2092 H   0  0  0  0  0  0  0  0  0  0  0  0
    6.2952    0.0763    0.1627 H   0  0  0  0  0  0  0  0  0  0  0  0
    5.0835   -0.5293   -1.9159 H   0  0  0  0  0  0  0  0  0  0  0  0
    2.6124   -0.5445   -1.9544 H   0  0  0  0  0  0  0  0  0  0  0  0
  1  2  1  0
  2  3  1  0
  3  4  1  0
  4  5  2  0
  5  6  1  0
  5  7  1  0
  7  8  1  0
  7  9  2  0
  9 10  1  0
 10 11  2  0
 11 12  1  0
 12 13  2  0
 12 14  1  0
 14 15  1  0
 15 16  2  0
 16 17  1  0
 17 18  2  0
 18 19  1  0
 19 20  2  0
 14  2  2  0
 20 15  1  0
 11  4  1  0
  1 21  1  0
  1 22  1  0
  1 23  1  0
  6 24  1  0
  6 25  1  0
  6 26  1  0
  8 27  1  0
  9 28  1  0
 10 29  1  0
 16 30  1  0
 17 31  1  0
 18 32  1  0
 19 33  1  0
 20 34  1  0
M  END
$$$$
