
     RDKit          3D

 51 54  0  0  0  0  0  0  0  0999 V2000
    8.0197    2.7442    2.2104 C   0  0  0  0  0  0  0  0  0  0  0  0
    7.4355    1.6643    1.4946 O   0  0  0  0  0  0  0  0  0  0  0  0
    7.5174    0.4394    2.2269 C   0  0  0  0  0  0  0  0  0  0  0  0
    6.8698   -0.6878    1.4178 C   0  0  0  0  0  0  0  0  0  0  0  0
    5.4461   -0.4752    1.2220 N   0  0  0  0  0  0  0  0  0  0  0  0
    4.5217   -0.5516    2.2265 C   0  0  0  0  0  0  0  0  0  0  0  0
    4.6824   -0.8324    3.3990 O   0  0  0  0  0  0  0  0  0  0  0  0
    3.2304   -0.2201    1.6281 C   0  0  0  0  0  0  0  0  0  0  0  0
    1.9743   -0.1379    2.1971 C   0  0  0  0  0  0  0  0  0  0  0  0
    0.9139    0.2149    1.3551 C   0  0  0  0  0  0  0  0  0  0  0  0
    1.1365    0.4574   -0.0201 C   0  0  0  0  0  0  0  0  0  0  0  0
    0.1213    0.8443   -0.8674 O   0  0  0  0  0  0  0  0  0  0  0  0
   -1.0364    0.0978   -0.8412 C   0  0  0  0  0  0  0  0  0  0  0  0
   -1.0213   -1.3117   -0.9527 C   0  0  0  0  0  0  0  0  0  0  0  0
   -2.2171   -2.0383   -0.9629 C   0  0  0  0  0  0  0  0  0  0  0  0
   -3.3927   -1.3185   -0.8739 C   0  0  0  0  0  0  0  0  0  0  0  0
   -3.4029    0.0628   -0.7863 C   0  0  0  0  0  0  0  0  0  0  0  0
   -2.2394    0.8059   -0.7757 C   0  0  0  0  0  0  0  0  0  0  0  0
   -4.7987    0.4914   -0.7205 C   0  0  0  0  0  0  0  0  0  0  0  0
   -5.1503    1.6521   -0.6298 O   0  0  0  0  0  0  0  0  0  0  0  0
   -5.5552   -0.6478   -0.7608 N   0  0  0  0  0  0  0  0  0  0  0  0
   -7.0054   -0.6608   -0.8141 C   0  0  0  0  0  0  0  0  0  0  0  0
   -7.5236   -0.8637   -2.2436 C   0  0  0  0  0  0  0  0  0  0  0  0
   -7.0466    0.1280   -3.1567 O   0  0  0  0  0  0  0  0  0  0  0  0
   -7.7184    1.3754   -3.0379 C   0  0  0  0  0  0  0  0  0  0  0  0
   -4.7826   -1.7710   -0.8679 C   0  0  0  0  0  0  0  0  0  0  0  0
   -5.1270   -2.9345   -0.9481 O   0  0  0  0  0  0  0  0  0  0  0  0
    2.4202    0.3884   -0.5682 C   0  0  0  0  0  0  0  0  0  0  0  0
    3.4468    0.0386    0.2862 C   0  0  0  0  0  0  0  0  0  0  0  0
    4.8750   -0.1330    0.0268 C   0  0  0  0  0  0  0  0  0  0  0  0
    5.3798   -0.0092   -1.0723 O   0  0  0  0  0  0  0  0  0  0  0  0
    7.4934    2.9058    3.1560 H   0  0  0  0  0  0  0  0  0  0  0  0
    9.0804    2.5509    2.3970 H   0  0  0  0  0  0  0  0  0  0  0  0
    7.9308    3.6484    1.6024 H   0  0  0  0  0  0  0  0  0  0  0  0
    7.0201    0.5602    3.1957 H   0  0  0  0  0  0  0  0  0  0  0  0
    8.5719    0.1965    2.4011 H   0  0  0  0  0  0  0  0  0  0  0  0
    6.9958   -1.6344    1.9545 H   0  0  0  0  0  0  0  0  0  0  0  0
    7.3517   -0.7681    0.4376 H   0  0  0  0  0  0  0  0  0  0  0  0
    1.8225   -0.3296    3.2544 H   0  0  0  0  0  0  0  0  0  0  0  0
   -0.0857    0.3125    1.7734 H   0  0  0  0  0  0  0  0  0  0  0  0
   -0.0766   -1.8434   -1.0453 H   0  0  0  0  0  0  0  0  0  0  0  0
   -2.2257   -3.1202   -1.0482 H   0  0  0  0  0  0  0  0  0  0  0  0
   -2.2630    1.8887   -0.7182 H   0  0  0  0  0  0  0  0  0  0  0  0
   -7.3637   -1.4823   -0.1840 H   0  0  0  0  0  0  0  0  0  0  0  0
   -7.3780    0.2806   -0.3990 H   0  0  0  0  0  0  0  0  0  0  0  0
   -8.6194   -0.8899   -2.2567 H   0  0  0  0  0  0  0  0  0  0  0  0
   -7.1752   -1.8299   -2.6248 H   0  0  0  0  0  0  0  0  0  0  0  0
   -7.5547    1.8224   -2.0546 H   0  0  0  0  0  0  0  0  0  0  0  0
   -7.3143    2.0534   -3.7946 H   0  0  0  0  0  0  0  0  0  0  0  0
   -8.7900    1.2512   -3.2208 H   0  0  0  0  0  0  0  0  0  0  0  0
    2.6068    0.5975   -1.6161 H   0  0  0  0  0  0  0  0  0  0  0  0
  1  2  1  0
  2  3  1  0
  3  4  1  0
  4  5  1  0
  5  6  1  0
  6  7  2  0
  6  8  1  0
  8  9  2  0
  9 10  1  0
 10 11  2  0
 11 12  1  0
 12 13  1  0
 13 14  2  0
 14 15  1  0
 15 16  2  0
 16 17  1  0
 17 18  2  0
 17 19  1  0
 19 20  2  0
 19 21  1  0
 21 22  1  0
 22 23  1  0
 23 24  1  0
 24 25  1  0
 21 26  1  0
 26 27  2  0
 11 28  1  0
 28 29  2  0
 29 30  1  0
 30 31  2  0
 30  5  1  0
 29  8  1  0
 18 13  1  0
 26 16  1  0
  1 32  1  0
  1 33  1  0
  1 34  1  0
  3 35  1  0
  3 36  1  0
  4 37  1  0
  4 38  1  0
  9 39  1  0
 10 40  1  0
 14 41  1  0
 15 42  1  0
 18 43  1  0
 22 44  1  0
 22 45  1  0
 23 46  1  0
 23 47  1  0
 25 48  1  0
 25 49  1  0
 25 50  1  0
 28 51  1  0
M  END
$$$$
