
     RDKit          3D

 53 55  0  0  0  0  0  0  0  0999 V2000
   -8.6486   -2.1068   -0.4606 C   0  0  0  0  0  0  0  0  0  0  0  0
   -7.2165   -1.7442   -0.7671 C   0  0  0  0  0  0  0  0  0  0  0  0
   -6.5625   -2.4014   -1.5678 O   0  0  0  0  0  0  0  0  0  0  0  0
   -6.7890   -0.6524   -0.0327 N   0  0  0  0  0  0  0  0  0  0  0  0
   -5.5144   -0.0444   -0.0568 C   0  0  0  0  0  0  0  0  0  0  0  0
   -5.3222    1.0525    0.7969 C   0  0  0  0  0  0  0  0  0  0  0  0
   -4.1022    1.7401    0.8632 C   0  0  0  0  0  0  0  0  0  0  0  0
   -3.0734    1.2853    0.0338 C   0  0  0  0  0  0  0  0  0  0  0  0
   -3.2303    0.1989   -0.8197 C   0  0  0  0  0  0  0  0  0  0  0  0
   -4.4622   -0.4767   -0.8721 C   0  0  0  0  0  0  0  0  0  0  0  0
   -2.0732   -0.0490   -1.5138 N   0  0  0  0  0  0  0  0  0  0  0  0
   -1.2024    0.8544   -1.1050 C   0  0  0  0  0  0  0  0  0  0  0  0
    0.2173    0.9613   -1.5833 C   0  0  0  0  0  0  0  0  0  0  0  0
    1.2044    0.8546   -0.4927 N   0  0  0  0  0  0  0  0  0  0  0  0
    1.2225   -0.5013    0.1127 C   0  0  0  0  0  0  0  0  0  0  0  0
    2.4841   -1.3416   -0.1664 C   0  0  0  0  0  0  0  0  0  0  0  0
    3.7164   -0.6203    0.1693 N   0  0  0  0  0  0  0  0  0  0  0  0
    4.7591   -1.3140    0.7673 C   0  0  0  0  0  0  0  0  0  0  0  0
    4.6917   -2.5260    0.9817 O   0  0  0  0  0  0  0  0  0  0  0  0
    6.0335   -0.5361    1.1053 C   0  0  0  0  0  0  0  0  0  0  0  0
    6.7768   -1.1999    2.2664 C   0  0  0  0  0  0  0  0  0  0  0  0
    6.9384   -0.4730   -0.1239 C   0  0  0  0  0  0  0  0  0  0  0  0
    3.6746    0.8307   -0.0312 C   0  0  0  0  0  0  0  0  0  0  0  0
    2.5390    1.2563   -0.9780 C   0  0  0  0  0  0  0  0  0  0  0  0
   -1.7758    1.6937   -0.1734 N   0  0  0  0  0  0  0  0  0  0  0  0
   -1.1219    2.7946    0.4917 C   0  0  0  0  0  0  0  0  0  0  0  0
   -9.0517   -2.7180   -1.2735 H   0  0  0  0  0  0  0  0  0  0  0  0
   -9.2662   -1.2081   -0.3729 H   0  0  0  0  0  0  0  0  0  0  0  0
   -8.6874   -2.6749    0.4725 H   0  0  0  0  0  0  0  0  0  0  0  0
   -7.4616   -0.2443    0.6033 H   0  0  0  0  0  0  0  0  0  0  0  0
   -6.1314    1.3971    1.4376 H   0  0  0  0  0  0  0  0  0  0  0  0
   -3.9744    2.5835    1.5324 H   0  0  0  0  0  0  0  0  0  0  0  0
   -4.5483   -1.3171   -1.5486 H   0  0  0  0  0  0  0  0  0  0  0  0
    0.3186    1.9336   -2.0834 H   0  0  0  0  0  0  0  0  0  0  0  0
    0.4035    0.1948   -2.3472 H   0  0  0  0  0  0  0  0  0  0  0  0
    0.3416   -1.0935   -0.1613 H   0  0  0  0  0  0  0  0  0  0  0  0
    1.1544   -0.3514    1.1982 H   0  0  0  0  0  0  0  0  0  0  0  0
    2.4220   -2.2839    0.3881 H   0  0  0  0  0  0  0  0  0  0  0  0
    2.5406   -1.5922   -1.2327 H   0  0  0  0  0  0  0  0  0  0  0  0
    5.7722    0.4769    1.4284 H   0  0  0  0  0  0  0  0  0  0  0  0
    6.1272   -1.2838    3.1445 H   0  0  0  0  0  0  0  0  0  0  0  0
    7.6563   -0.6123    2.5503 H   0  0  0  0  0  0  0  0  0  0  0  0
    7.1148   -2.2095    2.0060 H   0  0  0  0  0  0  0  0  0  0  0  0
    6.4299   -0.0263   -0.9834 H   0  0  0  0  0  0  0  0  0  0  0  0
    7.8349    0.1206    0.0843 H   0  0  0  0  0  0  0  0  0  0  0  0
    7.2592   -1.4759   -0.4279 H   0  0  0  0  0  0  0  0  0  0  0  0
    4.6298    1.1768   -0.4335 H   0  0  0  0  0  0  0  0  0  0  0  0
    3.5414    1.2935    0.9542 H   0  0  0  0  0  0  0  0  0  0  0  0
    2.7350    0.8210   -1.9677 H   0  0  0  0  0  0  0  0  0  0  0  0
    2.5628    2.3465   -1.0914 H   0  0  0  0  0  0  0  0  0  0  0  0
   -1.8694    3.5139    0.8345 H   0  0  0  0  0  0  0  0  0  0  0  0
   -0.4523    3.2989   -0.2090 H   0  0  0  0  0  0  0  0  0  0  0  0
   -0.5649    2.3988    1.3445 H   0  0  0  0  0  0  0  0  0  0  0  0
  1  2  1  0
  2  3  2  0
  2  4  1  0
  4  5  1  0
  5  6  2  0
  6  7  1  0
  7  8  2  0
  8  9  1  0
  9 10  2  0
  9 11  1  0
 11 12  2  0
 12 13  1  0
 13 14  1  0
 14 15  1  0
 15 16  1  0
 16 17  1  0
 17 18  1  0
 18 19  2  0
 18 20  1  0
 20 21  1  0
 20 22  1  0
 17 23  1  0
 23 24  1  0
 12 25  1  0
 25 26  1  0
 10  5  1  0
 24 14  1  0
 25  8  1  0
  1 27  1  0
  1 28  1  0
  1 29  1  0
  4 30  1  0
  6 31  1  0
  7 32  1  0
 10 33  1  0
 13 34  1  0
 13 35  1  0
 15 36  1  0
 15 37  1  0
 16 38  1  0
 16 39  1  0
 20 40  1  0
 21 41  1  0
 21 42  1  0
 21 43  1  0
 22 44  1  0
 22 45  1  0
 22 46  1  0
 23 47  1  0
 23 48  1  0
 24 49  1  0
 24 50  1  0
 26 51  1  0
 26 52  1  0
 26 53  1  0
M  END
$$$$
