
     RDKit          3D

 46 50  0  0  0  0  0  0  0  0999 V2000
    2.8737    1.2137    1.5262 O   0  0  0  0  0  0  0  0  0  0  0  0
    2.7263    0.4299    0.5947 C   0  0  0  0  0  0  0  0  0  0  0  0
    1.5295   -0.0833    0.1314 N   0  0  0  0  0  0  0  0  0  0  0  0
    0.2307    0.1536    0.6050 C   0  0  0  0  0  0  0  0  0  0  0  0
   -0.0639    0.9704    1.6888 C   0  0  0  0  0  0  0  0  0  0  0  0
   -1.3908    1.1487    2.0949 C   0  0  0  0  0  0  0  0  0  0  0  0
   -2.4577    0.5364    1.4160 C   0  0  0  0  0  0  0  0  0  0  0  0
   -2.1667   -0.3168    0.3438 C   0  0  0  0  0  0  0  0  0  0  0  0
   -0.8212   -0.4917   -0.0509 C   0  0  0  0  0  0  0  0  0  0  0  0
   -3.1434   -1.2037   -0.3435 C   0  0  0  0  0  0  0  0  0  0  0  0
   -2.7390   -2.2701   -0.8066 O   0  0  0  0  0  0  0  0  0  0  0  0
   -4.4589   -0.8245   -0.4518 N   0  0  0  0  0  0  0  0  0  0  0  0
   -5.4044   -1.6297   -1.2079 C   0  0  0  0  0  0  0  0  0  0  0  0
   -6.3636   -0.6152   -1.8052 C   0  0  0  0  0  0  0  0  0  0  0  0
   -6.4231    0.4558   -0.7271 C   0  0  0  0  0  0  0  0  0  0  0  0
   -4.9848    0.5064   -0.1947 C   0  0  1  0  0  0  0  0  0  0  0  0
   -4.9379    0.8558    1.2878 C   0  0  0  0  0  0  0  0  0  0  0  0
   -5.9107    1.2993    1.9025 O   0  0  0  0  0  0  0  0  0  0  0  0
   -3.7295    0.8448    1.9238 N   0  0  0  0  0  0  0  0  0  0  0  0
    3.8692   -0.0806   -0.1833 C   0  0  0  0  0  0  0  0  0  0  0  0
    3.7022   -0.9413   -1.2266 N   0  0  0  0  0  0  0  0  0  0  0  0
    4.9598   -1.1826   -1.6821 N   0  0  0  0  0  0  0  0  0  0  0  0
    5.8819   -0.5083   -0.9702 C   0  0  0  0  0  0  0  0  0  0  0  0
    5.2298    0.2013   -0.0106 C   0  0  0  0  0  0  0  0  0  0  0  0
    6.1597    0.9763    0.8257 C   0  0  0  0  0  0  0  0  0  0  0  0
    7.5493    0.3777    0.3921 C   0  0  0  0  0  0  0  0  0  0  0  0
    7.3420   -0.3645   -0.9774 C   0  0  0  0  0  0  0  0  0  0  0  0
    1.6507   -0.7162   -0.6582 H   0  0  0  0  0  0  0  0  0  0  0  0
    0.7134    1.4847    2.2462 H   0  0  0  0  0  0  0  0  0  0  0  0
   -1.5754    1.8031    2.9454 H   0  0  0  0  0  0  0  0  0  0  0  0
   -0.5993   -1.1684   -0.8762 H   0  0  0  0  0  0  0  0  0  0  0  0
   -4.9151   -2.2394   -1.9729 H   0  0  0  0  0  0  0  0  0  0  0  0
   -5.9159   -2.2889   -0.4979 H   0  0  0  0  0  0  0  0  0  0  0  0
   -5.9423   -0.1923   -2.7252 H   0  0  0  0  0  0  0  0  0  0  0  0
   -7.3419   -1.0438   -2.0388 H   0  0  0  0  0  0  0  0  0  0  0  0
   -6.7535    1.4239   -1.1160 H   0  0  0  0  0  0  0  0  0  0  0  0
   -7.1350    0.1470    0.0482 H   0  0  0  0  0  0  0  0  0  0  0  0
   -4.3914    1.2367   -0.7583 H   0  0  0  0  0  0  0  0  0  0  0  0
   -3.7840    1.2874    2.8346 H   0  0  0  0  0  0  0  0  0  0  0  0
    5.0831   -1.8115   -2.4700 H   0  0  0  0  0  0  0  0  0  0  0  0
    6.1114    2.0419    0.5800 H   0  0  0  0  0  0  0  0  0  0  0  0
    5.9901    0.8394    1.8970 H   0  0  0  0  0  0  0  0  0  0  0  0
    8.3263    1.1463    0.3301 H   0  0  0  0  0  0  0  0  0  0  0  0
    7.8706   -0.3529    1.1463 H   0  0  0  0  0  0  0  0  0  0  0  0
    7.8743   -1.3188   -0.9958 H   0  0  0  0  0  0  0  0  0  0  0  0
    7.6751    0.2642   -1.8086 H   0  0  0  0  0  0  0  0  0  0  0  0
  1  2  2  0
  2  3  1  0
  3  4  1  0
  4  5  2  0
  5  6  1  0
  6  7  2  0
  7  8  1  0
  8  9  2  0
  8 10  1  0
 10 11  2  0
 10 12  1  0
 12 13  1  0
 13 14  1  0
 14 15  1  0
 15 16  1  0
 16 17  1  0
 17 18  2  0
 17 19  1  0
  2 20  1  0
 20 21  2  0
 21 22  1  0
 22 23  1  0
 23 24  2  0
 24 25  1  0
 25 26  1  0
 26 27  1  0
  9  4  1  0
 16 12  1  0
 24 20  1  0
 19  7  1  0
 27 23  1  0
  3 28  1  0
  5 29  1  0
  6 30  1  0
  9 31  1  0
 13 32  1  0
 13 33  1  0
 14 34  1  0
 14 35  1  0
 15 36  1  0
 15 37  1  0
 16 38  1  6
 19 39  1  0
 22 40  1  0
 25 41  1  0
 25 42  1  0
 26 43  1  0
 26 44  1  0
 27 45  1  0
 27 46  1  0
M  END
$$$$
