
     RDKit          3D

 31 33  0  0  0  0  0  0  0  0999 V2000
    3.4181   -0.2549   -3.2797 C   0  0  0  0  0  0  0  0  0  0  0  0
    3.9155   -1.4042   -2.6750 C   0  0  0  0  0  0  0  0  0  0  0  0
    3.3740   -1.8484   -1.4650 C   0  0  0  0  0  0  0  0  0  0  0  0
    2.3388   -1.1487   -0.8273 C   0  0  0  0  0  0  0  0  0  0  0  0
    1.8327   -1.6577    0.3722 N   0  0  0  0  0  0  0  0  0  0  0  0
    0.7829   -1.2927    1.2092 C   0  0  0  0  0  0  0  0  0  0  0  0
    0.7869   -1.8964    2.4079 N   0  0  0  0  0  0  0  0  0  0  0  0
   -0.2085   -1.5862    3.2554 C   0  0  0  0  0  0  0  0  0  0  0  0
   -1.2141   -0.7073    2.9500 C   0  0  0  0  0  0  0  0  0  0  0  0
   -1.1641   -0.1341    1.6939 C   0  0  0  0  0  0  0  0  0  0  0  0
   -2.1955    0.8236    1.2291 C   0  0  0  0  0  0  0  0  0  0  0  0
   -2.2445    1.2908   -0.0866 C   0  0  0  0  0  0  0  0  0  0  0  0
   -3.2360    2.1971   -0.4592 C   0  0  0  0  0  0  0  0  0  0  0  0
   -4.1650    2.6143    0.4821 C   0  0  0  0  0  0  0  0  0  0  0  0
   -4.0575    2.1118    1.7649 C   0  0  0  0  0  0  0  0  0  0  0  0
   -3.1058    1.2343    2.1564 N   0  0  0  0  0  0  0  0  0  0  0  0
   -0.1635   -0.4247    0.8259 N   0  0  0  0  0  0  0  0  0  0  0  0
    1.8388   -0.0095   -1.4644 C   0  0  0  0  0  0  0  0  0  0  0  0
    2.3764    0.4405   -2.6758 C   0  0  0  0  0  0  0  0  0  0  0  0
    3.8399    0.0989   -4.2162 H   0  0  0  0  0  0  0  0  0  0  0  0
    4.7227   -1.9595   -3.1426 H   0  0  0  0  0  0  0  0  0  0  0  0
    3.7745   -2.7576   -1.0232 H   0  0  0  0  0  0  0  0  0  0  0  0
    2.4081   -2.3324    0.8558 H   0  0  0  0  0  0  0  0  0  0  0  0
   -0.1717   -2.0812    4.2197 H   0  0  0  0  0  0  0  0  0  0  0  0
   -1.9987   -0.4780    3.6602 H   0  0  0  0  0  0  0  0  0  0  0  0
   -1.5128    0.9592   -0.8190 H   0  0  0  0  0  0  0  0  0  0  0  0
   -3.2799    2.5689   -1.4791 H   0  0  0  0  0  0  0  0  0  0  0  0
   -4.9501    3.3170    0.2272 H   0  0  0  0  0  0  0  0  0  0  0  0
   -4.7555    2.4085    2.5382 H   0  0  0  0  0  0  0  0  0  0  0  0
    1.0344    0.5678   -1.0212 H   0  0  0  0  0  0  0  0  0  0  0  0
    1.9796    1.3407   -3.1383 H   0  0  0  0  0  0  0  0  0  0  0  0
  1  2  2  0
  2  3  1  0
  3  4  2  0
  4  5  1  0
  5  6  1  0
  6  7  2  0
  7  8  1  0
  8  9  2  0
  9 10  1  0
 10 11  1  0
 11 12  2  0
 12 13  1  0
 13 14  2  0
 14 15  1  0
 15 16  2  0
 10 17  2  0
  4 18  1  0
 18 19  2  0
 19  1  1  0
 17  6  1  0
 16 11  1  0
  1 20  1  0
  2 21  1  0
  3 22  1  0
  5 23  1  0
  8 24  1  0
  9 25  1  0
 12 26  1  0
 13 27  1  0
 14 28  1  0
 15 29  1  0
 18 30  1  0
 19 31  1  0
M  END
$$$$
