
     RDKit          3D

 40 41  0  0  0  0  0  0  0  0999 V2000
   -4.2452   -0.5443    2.6909 C   0  0  0  0  0  0  0  0  0  0  0  0
   -3.2837   -0.5547    1.6464 O   0  0  0  0  0  0  0  0  0  0  0  0
   -3.6697   -0.0663    0.4222 C   0  0  0  0  0  0  0  0  0  0  0  0
   -4.9767    0.3198    0.1026 C   0  0  0  0  0  0  0  0  0  0  0  0
   -5.2799    0.7973   -1.1738 C   0  0  0  0  0  0  0  0  0  0  0  0
   -4.2814    0.8916   -2.1380 C   0  0  0  0  0  0  0  0  0  0  0  0
   -2.9745    0.5069   -1.8318 C   0  0  0  0  0  0  0  0  0  0  0  0
   -2.6585    0.0240   -0.5567 C   0  0  0  0  0  0  0  0  0  0  0  0
   -1.4030   -0.3698   -0.1651 O   0  0  0  0  0  0  0  0  0  0  0  0
   -0.3807   -0.4301   -1.1606 C   0  0  0  0  0  0  0  0  0  0  0  0
    0.9068   -1.0039   -0.5335 C   0  0  0  0  0  0  0  0  0  0  0  0
    1.6063   -0.0442    0.3432 N   0  0  0  0  0  0  0  0  0  0  0  0
    2.4578   -0.7243    1.3312 C   0  0  0  0  0  0  0  0  0  0  0  0
    3.7395   -1.3737    0.7580 C   0  0  0  0  0  0  0  0  0  0  0  0
    4.2453   -0.7962   -0.5019 N   0  0  0  0  0  0  0  0  0  0  0  0
    3.9191    0.6401   -0.6035 C   0  0  0  0  0  0  0  0  0  0  0  0
    4.8090    1.4588    0.3385 C   0  0  0  0  0  0  0  0  0  0  0  0
    2.4012    0.9550   -0.4036 C   0  0  0  0  0  0  0  0  0  0  0  0
   -3.7547   -0.9040    3.6006 H   0  0  0  0  0  0  0  0  0  0  0  0
   -4.6075    0.4701    2.8881 H   0  0  0  0  0  0  0  0  0  0  0  0
   -5.0735   -1.2252    2.4698 H   0  0  0  0  0  0  0  0  0  0  0  0
   -5.7833    0.2572    0.8247 H   0  0  0  0  0  0  0  0  0  0  0  0
   -6.2973    1.0959   -1.4137 H   0  0  0  0  0  0  0  0  0  0  0  0
   -4.5182    1.2666   -3.1305 H   0  0  0  0  0  0  0  0  0  0  0  0
   -2.2245    0.6023   -2.6089 H   0  0  0  0  0  0  0  0  0  0  0  0
   -0.1984    0.5639   -1.5830 H   0  0  0  0  0  0  0  0  0  0  0  0
   -0.6959   -1.1111   -1.9610 H   0  0  0  0  0  0  0  0  0  0  0  0
    0.6114   -1.8836    0.0529 H   0  0  0  0  0  0  0  0  0  0  0  0
    1.5683   -1.3554   -1.3330 H   0  0  0  0  0  0  0  0  0  0  0  0
    1.8816   -1.4727    1.8896 H   0  0  0  0  0  0  0  0  0  0  0  0
    2.7489    0.0210    2.0827 H   0  0  0  0  0  0  0  0  0  0  0  0
    3.5498   -2.4387    0.5776 H   0  0  0  0  0  0  0  0  0  0  0  0
    4.5322   -1.3274    1.5138 H   0  0  0  0  0  0  0  0  0  0  0  0
    3.7609   -1.2678   -1.2648 H   0  0  0  0  0  0  0  0  0  0  0  0
    4.1833    0.9495   -1.6230 H   0  0  0  0  0  0  0  0  0  0  0  0
    4.6585    2.5305    0.1678 H   0  0  0  0  0  0  0  0  0  0  0  0
    5.8682    1.2449    0.1563 H   0  0  0  0  0  0  0  0  0  0  0  0
    4.6021    1.2590    1.3939 H   0  0  0  0  0  0  0  0  0  0  0  0
    1.9556    1.1283   -1.3907 H   0  0  0  0  0  0  0  0  0  0  0  0
    2.3007    1.9107    0.1263 H   0  0  0  0  0  0  0  0  0  0  0  0
  1  2  1  0
  2  3  1  0
  3  4  2  0
  4  5  1  0
  5  6  2  0
  6  7  1  0
  7  8  2  0
  8  9  1  0
  9 10  1  0
 10 11  1  0
 11 12  1  0
 12 13  1  0
 13 14  1  0
 14 15  1  0
 15 16  1  0
 16 17  1  0
 16 18  1  0
  8  3  1  0
 18 12  1  0
  1 19  1  0
  1 20  1  0
  1 21  1  0
  4 22  1  0
  5 23  1  0
  6 24  1  0
  7 25  1  0
 10 26  1  0
 10 27  1  0
 11 28  1  0
 11 29  1  0
 13 30  1  0
 13 31  1  0
 14 32  1  0
 14 33  1  0
 15 34  1  0
 16 35  1  0
 17 36  1  0
 17 37  1  0
 17 38  1  0
 18 39  1  0
 18 40  1  0
M  END
$$$$
