
     RDKit          3D

 39 42  0  0  0  0  0  0  0  0999 V2000
   -3.8920    2.8015    1.2344 C   0  0  0  0  0  0  0  0  0  0  0  0
   -2.7171    2.0050    1.1849 O   0  0  0  0  0  0  0  0  0  0  0  0
   -2.1369    2.0105   -0.1250 C   0  0  0  0  0  0  0  0  0  0  0  0
   -0.8718    1.2088   -0.1677 C   0  0  0  0  0  0  0  0  0  0  0  0
    0.3142    1.8273   -0.2803 N   0  0  0  0  0  0  0  0  0  0  0  0
    1.2451    0.8269   -0.2630 N   0  0  0  0  0  0  0  0  0  0  0  0
    0.6146   -0.4237   -0.2240 C   0  0  0  0  0  0  0  0  0  0  0  0
   -0.7404   -0.2050   -0.1508 C   0  0  0  0  0  0  0  0  0  0  0  0
   -1.7410   -1.2498   -0.0818 C   0  0  0  0  0  0  0  0  0  0  0  0
   -2.6179   -1.3135    1.0092 C   0  0  0  0  0  0  0  0  0  0  0  0
   -3.5861   -2.3175    1.0743 C   0  0  0  0  0  0  0  0  0  0  0  0
   -3.6746   -3.2522    0.0493 C   0  0  0  0  0  0  0  0  0  0  0  0
   -4.6040   -4.2144    0.1122 F   0  0  0  0  0  0  0  0  0  0  0  0
   -2.8135   -3.2033   -1.0410 C   0  0  0  0  0  0  0  0  0  0  0  0
   -1.8444   -2.2004   -1.1082 C   0  0  0  0  0  0  0  0  0  0  0  0
    1.3838   -1.5474   -0.2557 N   0  0  0  0  0  0  0  0  0  0  0  0
    2.7617   -1.4553   -0.1783 C   0  0  0  0  0  0  0  0  0  0  0  0
    3.4324   -0.2826   -0.2093 C   0  0  0  0  0  0  0  0  0  0  0  0
    2.6604    0.9543   -0.3466 C   0  0  0  0  0  0  0  0  0  0  0  0
    3.2168    2.1528   -0.5799 C   0  0  0  0  0  0  0  0  0  0  0  0
    4.6117    2.3570   -1.0092 C   0  0  0  0  0  0  0  0  0  0  0  0
    5.7046    1.6973   -0.8455 N   0  0  0  0  0  0  0  0  0  0  0  0
    5.8171    0.5772   -0.0480 N   0  0  0  0  0  0  0  0  0  0  0  0
    4.8629   -0.2510    0.1529 C   0  0  0  0  0  0  0  0  0  0  0  0
    5.2049   -1.3163    0.9096 O   0  0  0  0  0  0  0  0  0  0  0  0
   -4.2965    2.7555    2.2491 H   0  0  0  0  0  0  0  0  0  0  0  0
   -3.6594    3.8444    0.9987 H   0  0  0  0  0  0  0  0  0  0  0  0
   -4.6458    2.4167    0.5407 H   0  0  0  0  0  0  0  0  0  0  0  0
   -2.8558    1.5910   -0.8394 H   0  0  0  0  0  0  0  0  0  0  0  0
   -1.9308    3.0465   -0.4219 H   0  0  0  0  0  0  0  0  0  0  0  0
   -2.5487   -0.5876    1.8177 H   0  0  0  0  0  0  0  0  0  0  0  0
   -4.2677   -2.3751    1.9169 H   0  0  0  0  0  0  0  0  0  0  0  0
   -2.9041   -3.9421   -1.8309 H   0  0  0  0  0  0  0  0  0  0  0  0
   -1.1781   -2.1597   -1.9676 H   0  0  0  0  0  0  0  0  0  0  0  0
    0.9793   -2.4674   -0.0893 H   0  0  0  0  0  0  0  0  0  0  0  0
    3.2509   -2.4131   -0.0202 H   0  0  0  0  0  0  0  0  0  0  0  0
    2.5960    3.0414   -0.6663 H   0  0  0  0  0  0  0  0  0  0  0  0
    4.7233    3.2668   -1.6265 H   0  0  0  0  0  0  0  0  0  0  0  0
    6.1470   -1.2036    1.1265 H   0  0  0  0  0  0  0  0  0  0  0  0
  1  2  1  0
  2  3  1  0
  3  4  1  0
  4  5  2  0
  5  6  1  0
  6  7  1  0
  7  8  2  0
  8  9  1  0
  9 10  2  0
 10 11  1  0
 11 12  2  0
 12 13  1  0
 12 14  1  0
 14 15  2  0
  7 16  1  0
 16 17  1  0
 17 18  2  0
 18 19  1  0
 19 20  2  0
 20 21  1  0
 21 22  2  0
 22 23  1  0
 23 24  2  0
 24 25  1  0
  8  4  1  0
 15  9  1  0
 24 18  1  0
 19  6  1  0
  1 26  1  0
  1 27  1  0
  1 28  1  0
  3 29  1  0
  3 30  1  0
 10 31  1  0
 11 32  1  0
 14 33  1  0
 15 34  1  0
 16 35  1  0
 17 36  1  0
 20 37  1  0
 21 38  1  0
 25 39  1  0
M  END
$$$$
