
     RDKit          3D

 46 47  0  0  0  0  0  0  0  0999 V2000
   -5.3382    2.0273   -1.4410 C   0  0  0  0  0  0  0  0  0  0  0  0
   -3.8558    1.7398   -0.4952 S   0  0  0  0  0  6  0  0  0  0  0  0
   -4.1644    1.8383    0.9153 O   0  0  0  0  0  0  0  0  0  0  0  0
   -2.7945    2.5347   -1.0753 O   0  0  0  0  0  0  0  0  0  0  0  0
   -3.5209    0.1009   -0.8295 N   0  0  0  0  0  0  0  0  0  0  0  0
   -4.5725   -0.8748   -0.4124 C   0  0  0  0  0  0  0  0  0  0  0  0
   -4.0080   -2.2865   -0.3061 C   0  0  0  0  0  0  0  0  0  0  0  0
   -2.9013   -2.3709    0.7476 C   0  0  0  0  0  0  0  0  0  0  0  0
   -2.0972   -1.0654    0.8532 C   0  0  0  0  0  0  0  0  0  0  0  0
   -0.6510   -1.2922    1.2680 C   0  0  0  0  0  0  0  0  0  0  0  0
   -0.0842   -2.3752    1.1748 O   0  0  0  0  0  0  0  0  0  0  0  0
   -0.0265   -0.1537    1.7352 N   0  0  0  0  0  0  0  0  0  0  0  0
    1.3758   -0.1426    2.0996 C   0  0  0  0  0  0  0  0  0  0  0  0
    2.2628    0.1213    0.8860 C   0  0  0  0  0  0  0  0  0  0  0  0
    3.7376    0.1828    1.2863 C   0  0  0  0  0  0  0  0  0  0  0  0
    4.6304    0.4773    0.1027 C   0  0  0  0  0  0  0  0  0  0  0  0
    4.9452    1.8169   -0.1879 C   0  0  0  0  0  0  0  0  0  0  0  0
    5.7515    2.1440   -1.2798 C   0  0  0  0  0  0  0  0  0  0  0  0
    6.2527    1.1390   -2.1020 C   0  0  0  0  0  0  0  0  0  0  0  0
    5.9451   -0.1939   -1.8331 C   0  0  0  0  0  0  0  0  0  0  0  0
    5.1373   -0.5253   -0.7403 C   0  0  0  0  0  0  0  0  0  0  0  0
    4.7958   -2.1989   -0.4803 Cl  0  0  0  0  0  0  0  0  0  0  0  0
   -2.1248   -0.3221   -0.4807 C   0  0  0  0  0  0  0  0  0  0  0  0
   -6.1531    1.4294   -1.0311 H   0  0  0  0  0  0  0  0  0  0  0  0
   -5.5854    3.0881   -1.3574 H   0  0  0  0  0  0  0  0  0  0  0  0
   -5.1454    1.7749   -2.4852 H   0  0  0  0  0  0  0  0  0  0  0  0
   -5.0103   -0.5868    0.5496 H   0  0  0  0  0  0  0  0  0  0  0  0
   -5.3671   -0.8670   -1.1660 H   0  0  0  0  0  0  0  0  0  0  0  0
   -3.6056   -2.5934   -1.2800 H   0  0  0  0  0  0  0  0  0  0  0  0
   -4.8055   -2.9965   -0.0591 H   0  0  0  0  0  0  0  0  0  0  0  0
   -3.3462   -2.5832    1.7283 H   0  0  0  0  0  0  0  0  0  0  0  0
   -2.2681   -3.2347    0.5151 H   0  0  0  0  0  0  0  0  0  0  0  0
   -2.5657   -0.4433    1.6284 H   0  0  0  0  0  0  0  0  0  0  0  0
   -0.5344    0.7233    1.7614 H   0  0  0  0  0  0  0  0  0  0  0  0
    1.5043    0.6456    2.8489 H   0  0  0  0  0  0  0  0  0  0  0  0
    1.6350   -1.1008    2.5632 H   0  0  0  0  0  0  0  0  0  0  0  0
    2.1040   -0.6607    0.1330 H   0  0  0  0  0  0  0  0  0  0  0  0
    1.9622    1.0651    0.4124 H   0  0  0  0  0  0  0  0  0  0  0  0
    3.8807    0.9635    2.0452 H   0  0  0  0  0  0  0  0  0  0  0  0
    4.0459   -0.7483    1.7757 H   0  0  0  0  0  0  0  0  0  0  0  0
    4.5593    2.6190    0.4385 H   0  0  0  0  0  0  0  0  0  0  0  0
    5.9858    3.1850   -1.4890 H   0  0  0  0  0  0  0  0  0  0  0  0
    6.8797    1.3919   -2.9530 H   0  0  0  0  0  0  0  0  0  0  0  0
    6.3364   -0.9738   -2.4817 H   0  0  0  0  0  0  0  0  0  0  0  0
   -1.4510    0.5410   -0.4674 H   0  0  0  0  0  0  0  0  0  0  0  0
   -1.7504   -0.9592   -1.2929 H   0  0  0  0  0  0  0  0  0  0  0  0
  1  2  1  0
  2  3  2  0
  2  4  2  0
  2  5  1  0
  5  6  1  0
  6  7  1  0
  7  8  1  0
  8  9  1  0
  9 10  1  0
 10 11  2  0
 10 12  1  0
 12 13  1  0
 13 14  1  0
 14 15  1  0
 15 16  1  0
 16 17  2  0
 17 18  1  0
 18 19  2  0
 19 20  1  0
 20 21  2  0
 21 22  1  0
  9 23  1  0
 23  5  1  0
 21 16  1  0
  1 24  1  0
  1 25  1  0
  1 26  1  0
  6 27  1  0
  6 28  1  0
  7 29  1  0
  7 30  1  0
  8 31  1  0
  8 32  1  0
  9 33  1  0
 12 34  1  0
 13 35  1  0
 13 36  1  0
 14 37  1  0
 14 38  1  0
 15 39  1  0
 15 40  1  0
 17 41  1  0
 18 42  1  0
 19 43  1  0
 20 44  1  0
 23 45  1  0
 23 46  1  0
M  END
$$$$
