
     RDKit          3D

 31 32  0  0  0  0  0  0  0  0999 V2000
    3.1820    1.1507    2.3371 N   0  0  0  0  0  0  0  0  0  0  0  0
    2.4082    1.5936    1.3002 C   0  0  0  0  0  0  0  0  0  0  0  0
    1.9515    2.7290    1.3027 O   0  0  0  0  0  0  0  0  0  0  0  0
    2.1120    0.6339    0.2030 C   0  0  0  0  0  0  0  0  0  0  0  0
    2.9295   -0.4762   -0.0555 C   0  0  0  0  0  0  0  0  0  0  0  0
    2.6195   -1.3529   -1.0996 C   0  0  0  0  0  0  0  0  0  0  0  0
    1.4922   -1.1287   -1.8891 C   0  0  0  0  0  0  0  0  0  0  0  0
    0.6772   -0.0224   -1.6289 C   0  0  0  0  0  0  0  0  0  0  0  0
   -0.7476    0.2740   -2.6530 S   0  0  0  0  0  6  0  0  0  0  0  0
   -1.0844    1.6776   -2.5673 O   0  0  0  0  0  0  0  0  0  0  0  0
   -0.4970   -0.3583   -3.9321 O   0  0  0  0  0  0  0  0  0  0  0  0
   -1.9490   -0.6482   -1.9104 N   0  0  0  0  0  0  0  0  0  0  0  0
   -2.2177   -0.4851   -0.5237 C   0  0  0  0  0  0  0  0  0  0  0  0
   -2.6290    0.7417   -0.0040 C   0  0  0  0  0  0  0  0  0  0  0  0
   -2.8542    0.8785    1.3667 C   0  0  0  0  0  0  0  0  0  0  0  0
   -2.6763   -0.2125    2.2163 C   0  0  0  0  0  0  0  0  0  0  0  0
   -2.2768   -1.4429    1.6961 C   0  0  0  0  0  0  0  0  0  0  0  0
   -2.0490   -1.5805    0.3256 C   0  0  0  0  0  0  0  0  0  0  0  0
    0.9924    0.8726   -0.6019 C   0  0  0  0  0  0  0  0  0  0  0  0
    3.2595    1.7836    3.1238 H   0  0  0  0  0  0  0  0  0  0  0  0
    3.3311    0.1693    2.5186 H   0  0  0  0  0  0  0  0  0  0  0  0
    3.8306   -0.6551    0.5246 H   0  0  0  0  0  0  0  0  0  0  0  0
    3.2667   -2.2027   -1.3061 H   0  0  0  0  0  0  0  0  0  0  0  0
    1.2647   -1.8074   -2.7086 H   0  0  0  0  0  0  0  0  0  0  0  0
   -2.0218   -1.5818   -2.3092 H   0  0  0  0  0  0  0  0  0  0  0  0
   -2.7845    1.5990   -0.6546 H   0  0  0  0  0  0  0  0  0  0  0  0
   -3.1697    1.8382    1.7693 H   0  0  0  0  0  0  0  0  0  0  0  0
   -2.8534   -0.1028    3.2835 H   0  0  0  0  0  0  0  0  0  0  0  0
   -2.1431   -2.2941    2.3589 H   0  0  0  0  0  0  0  0  0  0  0  0
   -1.7322   -2.5435   -0.0638 H   0  0  0  0  0  0  0  0  0  0  0  0
    0.3684    1.7463   -0.4187 H   0  0  0  0  0  0  0  0  0  0  0  0
  1  2  1  0
  2  3  2  0
  2  4  1  0
  4  5  2  0
  5  6  1  0
  6  7  2  0
  7  8  1  0
  8  9  1  0
  9 10  2  0
  9 11  2  0
  9 12  1  0
 12 13  1  0
 13 14  2  0
 14 15  1  0
 15 16  2  0
 16 17  1  0
 17 18  2  0
  8 19  2  0
 19  4  1  0
 18 13  1  0
  1 20  1  0
  1 21  1  0
  5 22  1  0
  6 23  1  0
  7 24  1  0
 12 25  1  0
 14 26  1  0
 15 27  1  0
 16 28  1  0
 17 29  1  0
 18 30  1  0
 19 31  1  0
M  END
$$$$
