
     RDKit          3D

 45 47  0  0  0  0  0  0  0  0999 V2000
   -5.9185   -1.8237    0.5895 C   0  0  0  0  0  0  0  0  0  0  0  0
   -4.6563   -1.0370    0.9715 C   0  0  0  0  0  0  0  0  0  0  0  0
   -5.0909    0.3009    1.5923 C   0  0  0  0  0  0  0  0  0  0  0  0
   -3.7813   -0.8401   -0.2970 C   0  0  0  0  0  0  0  0  0  0  0  0
   -2.3676   -0.4846    0.0644 C   0  0  0  0  0  0  0  0  0  0  0  0
   -1.9250   -0.7286    1.3504 C   0  0  0  0  0  0  0  0  0  0  0  0
   -0.3253   -0.2282    1.5925 S   0  0  0  0  0  0  0  0  0  0  0  0
   -0.1971    0.3599    0.0064 C   0  0  0  0  0  0  0  0  0  0  0  0
    0.9618    0.9748   -0.4432 N   0  0  0  0  0  0  0  0  0  0  0  0
    2.0584    1.3531    0.2991 C   0  0  0  0  0  0  0  0  0  0  0  0
    2.2023    1.2909    1.5130 O   0  0  0  0  0  0  0  0  0  0  0  0
    3.0459    1.8583   -0.5285 N   0  0  0  0  0  0  0  0  0  0  0  0
    4.3404    2.2191    0.0051 C   0  0  0  0  0  0  0  0  0  0  0  0
    5.3136    1.0811   -0.1047 C   0  0  0  0  0  0  0  0  0  0  0  0
    6.1687    0.9463   -1.2038 C   0  0  0  0  0  0  0  0  0  0  0  0
    7.0429   -0.1354   -1.2720 C   0  0  0  0  0  0  0  0  0  0  0  0
    7.0294   -1.0549   -0.2351 C   0  0  0  0  0  0  0  0  0  0  0  0
    6.2124   -0.9655    0.8366 N   0  0  0  0  0  0  0  0  0  0  0  0
    5.3710    0.0948    0.8765 C   0  0  0  0  0  0  0  0  0  0  0  0
   -1.3350    0.1111   -0.7573 C   0  0  0  0  0  0  0  0  0  0  0  0
   -1.3866    0.4716   -2.1758 C   0  0  0  0  0  0  0  0  0  0  0  0
   -2.2945   -0.1934   -2.9475 N   0  0  0  0  0  0  0  0  0  0  0  0
   -0.6161    1.2781   -2.6936 O   0  0  0  0  0  0  0  0  0  0  0  0
   -2.7407   -1.3048    2.4611 C   0  0  0  0  0  0  0  0  0  0  0  0
   -3.9564   -1.8625    1.9271 O   0  0  0  0  0  0  0  0  0  0  0  0
   -5.6584   -2.8096    0.1867 H   0  0  0  0  0  0  0  0  0  0  0  0
   -6.5436   -2.0078    1.4710 H   0  0  0  0  0  0  0  0  0  0  0  0
   -6.5173   -1.2908   -0.1568 H   0  0  0  0  0  0  0  0  0  0  0  0
   -5.6176    0.1350    2.5390 H   0  0  0  0  0  0  0  0  0  0  0  0
   -4.2389    0.9511    1.8196 H   0  0  0  0  0  0  0  0  0  0  0  0
   -5.7536    0.8546    0.9169 H   0  0  0  0  0  0  0  0  0  0  0  0
   -4.2254   -0.0792   -0.9485 H   0  0  0  0  0  0  0  0  0  0  0  0
   -3.7402   -1.7843   -0.8551 H   0  0  0  0  0  0  0  0  0  0  0  0
    0.9098    1.3391   -1.3897 H   0  0  0  0  0  0  0  0  0  0  0  0
    3.0282    1.5378   -1.4847 H   0  0  0  0  0  0  0  0  0  0  0  0
    4.2534    2.5525    1.0449 H   0  0  0  0  0  0  0  0  0  0  0  0
    4.6977    3.0756   -0.5764 H   0  0  0  0  0  0  0  0  0  0  0  0
    6.1653    1.6823   -2.0039 H   0  0  0  0  0  0  0  0  0  0  0  0
    7.7222   -0.2561   -2.1085 H   0  0  0  0  0  0  0  0  0  0  0  0
    7.6950   -1.9134   -0.2400 H   0  0  0  0  0  0  0  0  0  0  0  0
    4.7190    0.1288    1.7481 H   0  0  0  0  0  0  0  0  0  0  0  0
   -2.6492   -1.0912   -2.6516 H   0  0  0  0  0  0  0  0  0  0  0  0
   -2.2032   -0.0441   -3.9448 H   0  0  0  0  0  0  0  0  0  0  0  0
   -2.9925   -0.5443    3.2080 H   0  0  0  0  0  0  0  0  0  0  0  0
   -2.2061   -2.1171    2.9654 H   0  0  0  0  0  0  0  0  0  0  0  0
  1  2  1  0
  2  3  1  0
  2  4  1  0
  4  5  1  0
  5  6  2  0
  6  7  1  0
  7  8  1  0
  8  9  1  0
  9 10  1  0
 10 11  2  0
 10 12  1  0
 12 13  1  0
 13 14  1  0
 14 15  2  0
 15 16  1  0
 16 17  2  0
 17 18  1  0
 18 19  2  0
  8 20  2  0
 20 21  1  0
 21 22  1  0
 21 23  2  0
  6 24  1  0
 24 25  1  0
 25  2  1  0
 20  5  1  0
 19 14  1  0
  1 26  1  0
  1 27  1  0
  1 28  1  0
  3 29  1  0
  3 30  1  0
  3 31  1  0
  4 32  1  0
  4 33  1  0
  9 34  1  0
 12 35  1  0
 13 36  1  0
 13 37  1  0
 15 38  1  0
 16 39  1  0
 17 40  1  0
 19 41  1  0
 22 42  1  0
 22 43  1  0
 24 44  1  0
 24 45  1  0
M  END
$$$$
