
     RDKit          3D

 54 56  0  0  0  0  0  0  0  0999 V2000
    8.3863   -0.0886    1.3287 C   0  0  0  0  0  0  0  0  0  0  0  0
    6.8716   -0.0452    1.2367 C   0  0  0  0  0  0  0  0  0  0  0  0
    6.4918   -0.6053   -0.0178 O   0  0  0  0  0  0  0  0  0  0  0  0
    5.1574   -0.6576   -0.3232 C   0  0  0  0  0  0  0  0  0  0  0  0
    4.1329   -0.2167    0.5213 C   0  0  0  0  0  0  0  0  0  0  0  0
    2.7934   -0.3081    0.1228 C   0  0  0  0  0  0  0  0  0  0  0  0
    2.4660   -0.8307   -1.1324 C   0  0  0  0  0  0  0  0  0  0  0  0
    1.0615   -0.9744   -1.5824 C   0  0  0  0  0  0  0  0  0  0  0  0
    0.7319   -1.9405   -2.2658 O   0  0  0  0  0  0  0  0  0  0  0  0
    0.0454    0.0246   -1.2137 C   0  0  0  0  0  0  0  0  0  0  0  0
    0.1994    1.3487   -1.1215 C   0  0  0  0  0  0  0  0  0  0  0  0
    1.3182    2.1051   -1.2982 O   0  0  0  0  0  0  0  0  0  0  0  0
   -1.1455    1.9284   -0.9216 C   0  0  0  0  0  0  0  0  0  0  0  0
   -1.3561    3.1264   -0.8814 O   0  0  0  0  0  0  0  0  0  0  0  0
   -2.0339    0.8797   -0.8385 N   0  0  0  0  0  0  0  0  0  0  0  0
   -3.4805    1.0455   -0.9090 C   0  0  0  0  0  0  0  0  0  0  0  0
   -4.0679    1.6838    0.3677 C   0  0  0  0  0  0  0  0  0  0  0  0
   -5.5315    1.8272    0.4380 N   0  0  0  0  0  0  0  0  0  0  0  0
   -6.2286    0.5444    0.4328 C   0  0  0  0  0  0  0  0  0  0  0  0
   -6.0572    2.7184   -0.5923 C   0  0  0  0  0  0  0  0  0  0  0  0
   -1.3830   -0.4023   -1.0617 C   0  0  0  0  0  0  0  0  0  0  0  0
   -1.6048   -1.3708    0.0756 C   0  0  0  0  0  0  0  0  0  0  0  0
   -1.5777   -0.9903    1.4240 C   0  0  0  0  0  0  0  0  0  0  0  0
   -1.7830   -1.9408    2.4200 C   0  0  0  0  0  0  0  0  0  0  0  0
   -2.0006   -3.2528    2.0388 C   0  0  0  0  0  0  0  0  0  0  0  0
   -2.0179   -3.6642    0.7544 N   0  0  0  0  0  0  0  0  0  0  0  0
   -1.8106   -2.7220   -0.1938 C   0  0  0  0  0  0  0  0  0  0  0  0
    3.4800   -1.2956   -1.9737 C   0  0  0  0  0  0  0  0  0  0  0  0
    4.8151   -1.2019   -1.5730 C   0  0  0  0  0  0  0  0  0  0  0  0
    6.0272   -1.7787   -2.6649 Cl  0  0  0  0  0  0  0  0  0  0  0  0
    8.8387    0.4764    0.5069 H   0  0  0  0  0  0  0  0  0  0  0  0
    8.7482   -1.1186    1.2444 H   0  0  0  0  0  0  0  0  0  0  0  0
    8.7314    0.3308    2.2778 H   0  0  0  0  0  0  0  0  0  0  0  0
    6.5389    0.9969    1.3048 H   0  0  0  0  0  0  0  0  0  0  0  0
    6.4467   -0.6320    2.0592 H   0  0  0  0  0  0  0  0  0  0  0  0
    4.3403    0.2007    1.5015 H   0  0  0  0  0  0  0  0  0  0  0  0
    2.0204    0.0254    0.8102 H   0  0  0  0  0  0  0  0  0  0  0  0
    1.0126    3.0363   -1.2656 H   0  0  0  0  0  0  0  0  0  0  0  0
   -3.9257    0.0617   -1.0885 H   0  0  0  0  0  0  0  0  0  0  0  0
   -3.6906    1.6769   -1.7793 H   0  0  0  0  0  0  0  0  0  0  0  0
   -3.7412    1.1023    1.2389 H   0  0  0  0  0  0  0  0  0  0  0  0
   -3.6189    2.6742    0.5159 H   0  0  0  0  0  0  0  0  0  0  0  0
   -6.1453    0.0226   -0.5265 H   0  0  0  0  0  0  0  0  0  0  0  0
   -7.2936    0.6905    0.6454 H   0  0  0  0  0  0  0  0  0  0  0  0
   -5.8404   -0.1118    1.2196 H   0  0  0  0  0  0  0  0  0  0  0  0
   -7.1207    2.9162   -0.4173 H   0  0  0  0  0  0  0  0  0  0  0  0
   -5.5498    3.6889   -0.5620 H   0  0  0  0  0  0  0  0  0  0  0  0
   -5.9523    2.3034   -1.6005 H   0  0  0  0  0  0  0  0  0  0  0  0
   -1.7676   -0.8025   -2.0086 H   0  0  0  0  0  0  0  0  0  0  0  0
   -1.4066    0.0451    1.7088 H   0  0  0  0  0  0  0  0  0  0  0  0
   -1.7763   -1.6646    3.4686 H   0  0  0  0  0  0  0  0  0  0  0  0
   -2.1686   -4.0317    2.7772 H   0  0  0  0  0  0  0  0  0  0  0  0
   -1.8093   -3.1043   -1.2129 H   0  0  0  0  0  0  0  0  0  0  0  0
    3.2302   -1.7287   -2.9401 H   0  0  0  0  0  0  0  0  0  0  0  0
  1  2  1  0
  2  3  1  0
  3  4  1  0
  4  5  2  0
  5  6  1  0
  6  7  2  0
  7  8  1  0
  8  9  2  0
  8 10  1  0
 10 11  2  0
 11 12  1  0
 11 13  1  0
 13 14  2  0
 13 15  1  0
 15 16  1  0
 16 17  1  0
 17 18  1  0
 18 19  1  0
 18 20  1  0
 15 21  1  0
 21 22  1  0
 22 23  2  0
 23 24  1  0
 24 25  2  0
 25 26  1  0
 26 27  2  0
  7 28  1  0
 28 29  2  0
 29 30  1  0
 29  4  1  0
 21 10  1  0
 27 22  1  0
  1 31  1  0
  1 32  1  0
  1 33  1  0
  2 34  1  0
  2 35  1  0
  5 36  1  0
  6 37  1  0
 12 38  1  0
 16 39  1  0
 16 40  1  0
 17 41  1  0
 17 42  1  0
 19 43  1  0
 19 44  1  0
 19 45  1  0
 20 46  1  0
 20 47  1  0
 20 48  1  0
 21 49  1  0
 23 50  1  0
 24 51  1  0
 25 52  1  0
 27 53  1  0
 28 54  1  0
M  END
$$$$
