
     RDKit          3D

 37 38  0  0  0  0  0  0  0  0999 V2000
   -5.2377   -0.7992   -0.5075 C   0  0  0  0  0  0  0  0  0  0  0  0
   -3.8957   -0.1066   -0.7293 C   0  0  0  0  0  0  0  0  0  0  0  0
   -3.0074   -0.2028    0.5393 C   0  0  0  0  0  0  0  0  0  0  0  0
   -1.6734    0.4250    0.3965 N   0  0  0  0  0  0  0  0  0  0  0  0
   -0.6343   -0.5737    0.0953 C   0  0  0  0  0  0  0  0  0  0  0  0
    0.7999   -0.0207    0.1515 C   0  0  0  0  0  0  0  0  0  0  0  0
    1.7019   -1.1017   -0.1073 O   0  0  0  0  0  0  0  0  0  0  0  0
    3.0385   -0.8166   -0.0893 C   0  0  0  0  0  0  0  0  0  0  0  0
    3.6101    0.4286    0.1759 C   0  0  0  0  0  0  0  0  0  0  0  0
    5.0021    0.5810    0.1615 C   0  0  0  0  0  0  0  0  0  0  0  0
    5.8299   -0.5110   -0.1180 C   0  0  0  0  0  0  0  0  0  0  0  0
    7.2544   -0.3511   -0.1325 C   0  0  0  0  0  0  0  0  0  0  0  0
    8.4075   -0.2191   -0.1450 N   0  0  0  0  0  0  0  0  0  0  0  0
    5.2592   -1.7579   -0.3827 C   0  0  0  0  0  0  0  0  0  0  0  0
    3.8696   -1.9056   -0.3671 C   0  0  0  0  0  0  0  0  0  0  0  0
   -1.7013    1.5145   -0.6030 C   0  0  0  0  0  0  0  0  0  0  0  0
   -3.0811    2.1941   -0.7297 C   0  0  0  0  0  0  0  0  0  0  0  0
   -4.1563    1.2842   -1.1544 N   0  0  0  0  0  0  0  0  0  0  0  0
   -5.8496   -0.7727   -1.4161 H   0  0  0  0  0  0  0  0  0  0  0  0
   -5.8066   -0.3228    0.2988 H   0  0  0  0  0  0  0  0  0  0  0  0
   -5.0901   -1.8509   -0.2394 H   0  0  0  0  0  0  0  0  0  0  0  0
   -3.3769   -0.6243   -1.5472 H   0  0  0  0  0  0  0  0  0  0  0  0
   -3.5184    0.3081    1.3669 H   0  0  0  0  0  0  0  0  0  0  0  0
   -2.9203   -1.2490    0.8593 H   0  0  0  0  0  0  0  0  0  0  0  0
   -0.8094   -1.0449   -0.8812 H   0  0  0  0  0  0  0  0  0  0  0  0
   -0.6883   -1.3887    0.8297 H   0  0  0  0  0  0  0  0  0  0  0  0
    0.9876    0.3938    1.1496 H   0  0  0  0  0  0  0  0  0  0  0  0
    0.9350    0.7552   -0.6106 H   0  0  0  0  0  0  0  0  0  0  0  0
    3.0042    1.3009    0.3999 H   0  0  0  0  0  0  0  0  0  0  0  0
    5.4326    1.5587    0.3714 H   0  0  0  0  0  0  0  0  0  0  0  0
    5.8856   -2.6204   -0.6015 H   0  0  0  0  0  0  0  0  0  0  0  0
    3.4296   -2.8791   -0.5730 H   0  0  0  0  0  0  0  0  0  0  0  0
   -0.9607    2.2714   -0.3205 H   0  0  0  0  0  0  0  0  0  0  0  0
   -1.4203    1.1399   -1.5968 H   0  0  0  0  0  0  0  0  0  0  0  0
   -3.0175    3.0236   -1.4431 H   0  0  0  0  0  0  0  0  0  0  0  0
   -3.3594    2.6375    0.2345 H   0  0  0  0  0  0  0  0  0  0  0  0
   -4.2432    1.3020   -2.1698 H   0  0  0  0  0  0  0  0  0  0  0  0
  1  2  1  0
  2  3  1  0
  3  4  1  0
  4  5  1  0
  5  6  1  0
  6  7  1  0
  7  8  1  0
  8  9  2  0
  9 10  1  0
 10 11  2  0
 11 12  1  0
 12 13  3  0
 11 14  1  0
 14 15  2  0
  4 16  1  0
 16 17  1  0
 17 18  1  0
 18  2  1  0
 15  8  1  0
  1 19  1  0
  1 20  1  0
  1 21  1  0
  2 22  1  0
  3 23  1  0
  3 24  1  0
  5 25  1  0
  5 26  1  0
  6 27  1  0
  6 28  1  0
  9 29  1  0
 10 30  1  0
 14 31  1  0
 15 32  1  0
 16 33  1  0
 16 34  1  0
 17 35  1  0
 17 36  1  0
 18 37  1  0
M  END
$$$$
