
     RDKit          3D

 48 49  0  0  0  0  0  0  0  0999 V2000
    4.3115   -3.6803    1.4388 C   0  0  0  0  0  0  0  0  0  0  0  0
    3.2043   -3.4679    2.4621 C   0  0  0  0  0  0  0  0  0  0  0  0
    2.2830   -2.3935    2.1035 N   0  0  0  0  0  0  0  0  0  0  0  0
    2.8460   -1.0630    2.3122 C   0  0  0  0  0  0  0  0  0  0  0  0
    1.8431    0.0037    1.9346 C   0  0  0  0  0  0  0  0  0  0  0  0
    0.6991    0.2032    2.7167 C   0  0  0  0  0  0  0  0  0  0  0  0
   -0.2419    1.1763    2.3727 C   0  0  0  0  0  0  0  0  0  0  0  0
   -0.0516    1.9628    1.2352 C   0  0  0  0  0  0  0  0  0  0  0  0
   -0.9128    2.9492    0.8193 O   0  0  0  0  0  0  0  0  0  0  0  0
   -2.2704    2.8703    1.2305 C   0  0  0  0  0  0  0  0  0  0  0  0
   -3.0861    1.7421    0.5837 C   0  0  0  0  0  0  0  0  0  0  0  0
   -4.0993    1.3147    1.1298 O   0  0  0  0  0  0  0  0  0  0  0  0
   -2.5683    1.3539   -0.6407 N   0  0  0  0  0  0  0  0  0  0  0  0
   -3.0635    0.3859   -1.5406 C   0  0  0  0  0  0  0  0  0  0  0  0
   -4.2697   -0.2900   -1.3235 C   0  0  0  0  0  0  0  0  0  0  0  0
   -4.7362   -1.2406   -2.2354 C   0  0  0  0  0  0  0  0  0  0  0  0
   -4.0024   -1.5289   -3.3791 C   0  0  0  0  0  0  0  0  0  0  0  0
   -2.8003   -0.8654   -3.6124 C   0  0  0  0  0  0  0  0  0  0  0  0
   -2.3182    0.0958   -2.7053 C   0  0  0  0  0  0  0  0  0  0  0  0
   -1.0042    0.7658   -3.0090 C   0  0  0  0  0  0  0  0  0  0  0  0
    1.0952    1.7743    0.4390 C   0  0  0  0  0  0  0  0  0  0  0  0
    1.1827    2.5659   -0.6810 O   0  0  0  0  0  0  0  0  0  0  0  0
    2.4195    2.5664   -1.3811 C   0  0  0  0  0  0  0  0  0  0  0  0
    2.0296    0.7928    0.7894 C   0  0  0  0  0  0  0  0  0  0  0  0
    3.8993   -3.8528    0.4389 H   0  0  0  0  0  0  0  0  0  0  0  0
    4.9890   -2.8224    1.3892 H   0  0  0  0  0  0  0  0  0  0  0  0
    4.9075   -4.5577    1.7107 H   0  0  0  0  0  0  0  0  0  0  0  0
    3.6318   -3.2997    3.4574 H   0  0  0  0  0  0  0  0  0  0  0  0
    2.6217   -4.3937    2.5319 H   0  0  0  0  0  0  0  0  0  0  0  0
    1.9884   -2.4892    1.1326 H   0  0  0  0  0  0  0  0  0  0  0  0
    3.7599   -0.9250    1.7232 H   0  0  0  0  0  0  0  0  0  0  0  0
    3.1199   -0.9207    3.3652 H   0  0  0  0  0  0  0  0  0  0  0  0
    0.5328   -0.4137    3.5986 H   0  0  0  0  0  0  0  0  0  0  0  0
   -1.1046    1.2903    3.0201 H   0  0  0  0  0  0  0  0  0  0  0  0
   -2.3636    2.8331    2.3206 H   0  0  0  0  0  0  0  0  0  0  0  0
   -2.7466    3.8064    0.9154 H   0  0  0  0  0  0  0  0  0  0  0  0
   -1.6834    1.7925   -0.8774 H   0  0  0  0  0  0  0  0  0  0  0  0
   -4.8805   -0.0980   -0.4471 H   0  0  0  0  0  0  0  0  0  0  0  0
   -5.6756   -1.7531   -2.0451 H   0  0  0  0  0  0  0  0  0  0  0  0
   -4.3648   -2.2688   -4.0875 H   0  0  0  0  0  0  0  0  0  0  0  0
   -2.2371   -1.1040   -4.5119 H   0  0  0  0  0  0  0  0  0  0  0  0
   -0.2615    0.4977   -2.2515 H   0  0  0  0  0  0  0  0  0  0  0  0
   -0.6083    0.4561   -3.9820 H   0  0  0  0  0  0  0  0  0  0  0  0
   -1.1253    1.8532   -3.0413 H   0  0  0  0  0  0  0  0  0  0  0  0
    2.5880    1.6045   -1.8760 H   0  0  0  0  0  0  0  0  0  0  0  0
    3.2537    2.8244   -0.7201 H   0  0  0  0  0  0  0  0  0  0  0  0
    2.3625    3.3339   -2.1592 H   0  0  0  0  0  0  0  0  0  0  0  0
    2.9079    0.6134    0.1782 H   0  0  0  0  0  0  0  0  0  0  0  0
  1  2  1  0
  2  3  1  0
  3  4  1  0
  4  5  1  0
  5  6  2  0
  6  7  1  0
  7  8  2  0
  8  9  1  0
  9 10  1  0
 10 11  1  0
 11 12  2  0
 11 13  1  0
 13 14  1  0
 14 15  2  0
 15 16  1  0
 16 17  2  0
 17 18  1  0
 18 19  2  0
 19 20  1  0
  8 21  1  0
 21 22  1  0
 22 23  1  0
 21 24  2  0
 24  5  1  0
 19 14  1  0
  1 25  1  0
  1 26  1  0
  1 27  1  0
  2 28  1  0
  2 29  1  0
  3 30  1  0
  4 31  1  0
  4 32  1  0
  6 33  1  0
  7 34  1  0
 10 35  1  0
 10 36  1  0
 13 37  1  0
 15 38  1  0
 16 39  1  0
 17 40  1  0
 18 41  1  0
 20 42  1  0
 20 43  1  0
 20 44  1  0
 23 45  1  0
 23 46  1  0
 23 47  1  0
 24 48  1  0
M  END
$$$$
