
     RDKit          3D

 48 50  0  0  0  0  0  0  0  0999 V2000
   -2.4027   -2.6061    0.0540 C   0  0  0  0  0  0  0  0  0  0  0  0
   -2.1696   -1.2339   -0.5724 C   0  0  0  0  0  0  0  0  0  0  0  0
   -1.9753   -1.3858   -2.0792 C   0  0  0  0  0  0  0  0  0  0  0  0
   -3.3286   -0.4016   -0.3860 O   0  0  0  0  0  0  0  0  0  0  0  0
   -3.1645    0.4958    0.6411 C   0  0  0  0  0  0  0  0  0  0  0  0
   -3.4494    0.0978    1.9476 C   0  0  0  0  0  0  0  0  0  0  0  0
   -3.3434    1.0169    2.9909 C   0  0  0  0  0  0  0  0  0  0  0  0
   -2.9882    2.3381    2.7223 C   0  0  0  0  0  0  0  0  0  0  0  0
   -2.7381    2.7454    1.4095 C   0  0  0  0  0  0  0  0  0  0  0  0
   -2.8105    1.8246    0.3630 C   0  0  0  0  0  0  0  0  0  0  0  0
   -2.6044    2.2189   -0.9933 N   0  0  0  0  0  0  0  0  0  0  0  0
   -1.2106    3.0246   -1.4750 S   0  0  0  0  0  6  0  0  0  0  0  0
   -1.0431    4.2396   -0.7077 O   0  0  0  0  0  0  0  0  0  0  0  0
   -1.2530    3.0612   -2.9230 O   0  0  0  0  0  0  0  0  0  0  0  0
    0.1017    1.9126   -1.0171 C   0  0  0  0  0  0  0  0  0  0  0  0
    0.6075    1.9252    0.2808 C   0  0  0  0  0  0  0  0  0  0  0  0
    1.6432    1.0504    0.6322 C   0  0  0  0  0  0  0  0  0  0  0  0
    2.2077    0.1723   -0.3040 C   0  0  0  0  0  0  0  0  0  0  0  0
    3.2596   -0.7176    0.0453 N   0  0  0  0  0  0  0  0  0  0  0  0
    3.9493   -1.5340   -0.9266 C   0  0  0  0  0  0  0  0  0  0  0  0
    5.2009   -1.9907   -0.2080 C   0  0  0  0  0  0  0  0  0  0  0  0
    4.7563   -2.0926    1.2371 C   0  0  0  0  0  0  0  0  0  0  0  0
    3.6893   -1.0283    1.3462 C   0  0  0  0  0  0  0  0  0  0  0  0
    3.2824   -0.6065    2.4178 O   0  0  0  0  0  0  0  0  0  0  0  0
    1.7077    0.2084   -1.6169 C   0  0  0  0  0  0  0  0  0  0  0  0
    0.6664    1.0730   -1.9762 C   0  0  0  0  0  0  0  0  0  0  0  0
   -1.5886   -3.2959   -0.1900 H   0  0  0  0  0  0  0  0  0  0  0  0
   -2.4640   -2.5355    1.1436 H   0  0  0  0  0  0  0  0  0  0  0  0
   -3.3483   -3.0398   -0.2894 H   0  0  0  0  0  0  0  0  0  0  0  0
   -1.2676   -0.7791   -0.1437 H   0  0  0  0  0  0  0  0  0  0  0  0
   -1.0855   -1.9805   -2.3074 H   0  0  0  0  0  0  0  0  0  0  0  0
   -1.8754   -0.4072   -2.5583 H   0  0  0  0  0  0  0  0  0  0  0  0
   -2.8453   -1.8675   -2.5398 H   0  0  0  0  0  0  0  0  0  0  0  0
   -3.7717   -0.9172    2.1575 H   0  0  0  0  0  0  0  0  0  0  0  0
   -3.5593    0.7089    4.0112 H   0  0  0  0  0  0  0  0  0  0  0  0
   -2.9277    3.0608    3.5329 H   0  0  0  0  0  0  0  0  0  0  0  0
   -2.5127    3.7916    1.2207 H   0  0  0  0  0  0  0  0  0  0  0  0
   -2.9624    1.5732   -1.6972 H   0  0  0  0  0  0  0  0  0  0  0  0
    0.2116    2.6077    1.0294 H   0  0  0  0  0  0  0  0  0  0  0  0
    2.0055    1.0990    1.6555 H   0  0  0  0  0  0  0  0  0  0  0  0
    3.3093   -2.3839   -1.1893 H   0  0  0  0  0  0  0  0  0  0  0  0
    4.2109   -0.9650   -1.8239 H   0  0  0  0  0  0  0  0  0  0  0  0
    5.9829   -1.2262   -0.2986 H   0  0  0  0  0  0  0  0  0  0  0  0
    5.6001   -2.9294   -0.6017 H   0  0  0  0  0  0  0  0  0  0  0  0
    4.3067   -3.0665    1.4541 H   0  0  0  0  0  0  0  0  0  0  0  0
    5.5795   -1.8943    1.9278 H   0  0  0  0  0  0  0  0  0  0  0  0
    2.1041   -0.4400   -2.3928 H   0  0  0  0  0  0  0  0  0  0  0  0
    0.3072    1.0791   -3.0033 H   0  0  0  0  0  0  0  0  0  0  0  0
  1  2  1  0
  2  3  1  0
  2  4  1  0
  4  5  1  0
  5  6  2  0
  6  7  1  0
  7  8  2  0
  8  9  1  0
  9 10  2  0
 10 11  1  0
 11 12  1  0
 12 13  2  0
 12 14  2  0
 12 15  1  0
 15 16  2  0
 16 17  1  0
 17 18  2  0
 18 19  1  0
 19 20  1  0
 20 21  1  0
 21 22  1  0
 22 23  1  0
 23 24  2  0
 18 25  1  0
 25 26  2  0
 10  5  1  0
 26 15  1  0
 23 19  1  0
  1 27  1  0
  1 28  1  0
  1 29  1  0
  2 30  1  0
  3 31  1  0
  3 32  1  0
  3 33  1  0
  6 34  1  0
  7 35  1  0
  8 36  1  0
  9 37  1  0
 11 38  1  0
 16 39  1  0
 17 40  1  0
 20 41  1  0
 20 42  1  0
 21 43  1  0
 21 44  1  0
 22 45  1  0
 22 46  1  0
 25 47  1  0
 26 48  1  0
M  END
$$$$
