
     RDKit          3D

 45 46  0  0  0  0  0  0  0  0999 V2000
   -4.9531   -1.3514    2.2210 C   0  0  0  0  0  0  0  0  0  0  0  0
   -4.1330   -0.2090    1.5881 C   0  0  0  0  0  0  0  0  0  0  0  0
   -3.8834    0.8453    2.6814 C   0  0  0  0  0  0  0  0  0  0  0  0
   -4.9297    0.4292    0.4190 C   0  0  0  0  0  0  0  0  0  0  0  0
   -5.2625   -0.5369   -0.5824 O   0  0  0  0  0  0  0  0  0  0  0  0
   -2.8697   -0.7925    1.0941 N   0  0  0  0  0  0  0  0  0  0  0  0
   -1.8447   -0.0556    0.5386 C   0  0  0  0  0  0  0  0  0  0  0  0
   -1.7904    1.1688    0.5817 O   0  0  0  0  0  0  0  0  0  0  0  0
   -0.7512   -0.8044   -0.1461 C   0  0  0  0  0  0  0  0  0  0  0  0
    0.2830   -0.0675   -0.7436 C   0  0  0  0  0  0  0  0  0  0  0  0
    1.3401   -0.7325   -1.3769 C   0  0  0  0  0  0  0  0  0  0  0  0
    2.6387    0.2271   -2.1157 S   0  0  0  0  0  6  0  0  0  0  0  0
    2.0133    1.1505   -3.0357 O   0  0  0  0  0  0  0  0  0  0  0  0
    3.6825   -0.6763   -2.5517 O   0  0  0  0  0  0  0  0  0  0  0  0
    3.2558    1.1114   -0.7956 N   0  0  0  0  0  0  0  0  0  0  0  0
    3.8194    0.2900    0.3267 C   0  0  0  0  0  0  0  0  0  0  0  0
    4.7433    1.1416    1.2031 C   0  0  0  0  0  0  0  0  0  0  0  0
    5.8908    1.6285    0.4946 O   0  0  0  0  0  0  0  0  0  0  0  0
    5.6391    1.8617   -0.8993 C   0  0  0  0  0  0  0  0  0  0  0  0
    4.1816    2.2263   -1.1942 C   0  0  0  0  0  0  0  0  0  0  0  0
    1.3794   -2.1275   -1.4346 C   0  0  0  0  0  0  0  0  0  0  0  0
    0.3488   -2.8609   -0.8487 C   0  0  0  0  0  0  0  0  0  0  0  0
   -0.7039   -2.2007   -0.2111 C   0  0  0  0  0  0  0  0  0  0  0  0
   -1.6709   -2.9541    0.3351 F   0  0  0  0  0  0  0  0  0  0  0  0
   -5.1266   -2.1683    1.5116 H   0  0  0  0  0  0  0  0  0  0  0  0
   -4.4248   -1.7834    3.0793 H   0  0  0  0  0  0  0  0  0  0  0  0
   -5.9287   -0.9952    2.5700 H   0  0  0  0  0  0  0  0  0  0  0  0
   -3.4091    1.7490    2.2875 H   0  0  0  0  0  0  0  0  0  0  0  0
   -3.2343    0.4485    3.4703 H   0  0  0  0  0  0  0  0  0  0  0  0
   -4.8252    1.1590    3.1465 H   0  0  0  0  0  0  0  0  0  0  0  0
   -4.3502    1.2172   -0.0722 H   0  0  0  0  0  0  0  0  0  0  0  0
   -5.8615    0.8829    0.7759 H   0  0  0  0  0  0  0  0  0  0  0  0
   -6.0462   -1.0207   -0.2726 H   0  0  0  0  0  0  0  0  0  0  0  0
   -2.9207   -1.7662    0.8142 H   0  0  0  0  0  0  0  0  0  0  0  0
    0.2672    1.0221   -0.7170 H   0  0  0  0  0  0  0  0  0  0  0  0
    2.9937   -0.0904    0.9358 H   0  0  0  0  0  0  0  0  0  0  0  0
    4.3877   -0.5567   -0.0735 H   0  0  0  0  0  0  0  0  0  0  0  0
    5.1078    0.5531    2.0510 H   0  0  0  0  0  0  0  0  0  0  0  0
    4.2053    2.0053    1.6110 H   0  0  0  0  0  0  0  0  0  0  0  0
    6.3027    2.6714   -1.2186 H   0  0  0  0  0  0  0  0  0  0  0  0
    5.9336    0.9605   -1.4491 H   0  0  0  0  0  0  0  0  0  0  0  0
    4.0695    2.4815   -2.2524 H   0  0  0  0  0  0  0  0  0  0  0  0
    3.8863    3.1112   -0.6179 H   0  0  0  0  0  0  0  0  0  0  0  0
    2.1956   -2.6447   -1.9354 H   0  0  0  0  0  0  0  0  0  0  0  0
    0.3543   -3.9469   -0.8863 H   0  0  0  0  0  0  0  0  0  0  0  0
  1  2  1  0
  2  3  1  0
  2  4  1  0
  4  5  1  0
  2  6  1  0
  6  7  1  0
  7  8  2  0
  7  9  1  0
  9 10  2  0
 10 11  1  0
 11 12  1  0
 12 13  2  0
 12 14  2  0
 12 15  1  0
 15 16  1  0
 16 17  1  0
 17 18  1  0
 18 19  1  0
 19 20  1  0
 11 21  2  0
 21 22  1  0
 22 23  2  0
 23 24  1  0
 23  9  1  0
 20 15  1  0
  1 25  1  0
  1 26  1  0
  1 27  1  0
  3 28  1  0
  3 29  1  0
  3 30  1  0
  4 31  1  0
  4 32  1  0
  5 33  1  0
  6 34  1  0
 10 35  1  0
 16 36  1  0
 16 37  1  0
 17 38  1  0
 17 39  1  0
 19 40  1  0
 19 41  1  0
 20 42  1  0
 20 43  1  0
 21 44  1  0
 22 45  1  0
M  END
$$$$
