
     RDKit          3D

 57 59  0  0  0  0  0  0  0  0999 V2000
   -1.5664   -1.3952    2.8740 C   0  0  0  0  0  0  0  0  0  0  0  0
   -2.4631   -0.2861    2.8151 O   0  0  0  0  0  0  0  0  0  0  0  0
   -2.8493   -0.0545    1.5191 C   0  0  0  0  0  0  0  0  0  0  0  0
   -1.9697    0.5716    0.6396 C   0  0  0  0  0  0  0  0  0  0  0  0
   -2.3795    0.8265   -0.6741 C   0  0  0  0  0  0  0  0  0  0  0  0
   -1.4681    1.4743   -1.6599 C   0  0  0  0  0  0  0  0  0  0  0  0
   -1.9573    2.2080   -2.5107 O   0  0  0  0  0  0  0  0  0  0  0  0
   -0.1412    1.1421   -1.5188 N   0  0  0  0  0  0  0  0  0  0  0  0
    0.9642    1.5929   -2.2685 C   0  0  0  0  0  0  0  0  0  0  0  0
    0.8823    2.5207   -3.3075 C   0  0  0  0  0  0  0  0  0  0  0  0
    2.0361    2.8946   -3.9991 C   0  0  0  0  0  0  0  0  0  0  0  0
    3.2722    2.3461   -3.6546 C   0  0  0  0  0  0  0  0  0  0  0  0
    3.3631    1.4232   -2.6108 C   0  0  0  0  0  0  0  0  0  0  0  0
    2.2150    1.0321   -1.9066 C   0  0  0  0  0  0  0  0  0  0  0  0
    2.2587    0.1064   -0.8251 N   0  0  0  0  0  0  0  0  0  0  0  0
    2.8610   -1.2048   -1.1886 C   0  0  0  0  0  0  0  0  0  0  0  0
    4.1426   -1.5242   -0.4015 C   0  0  0  0  0  0  0  0  0  0  0  0
    3.9671   -1.3790    1.0465 N   0  0  0  0  0  0  0  0  0  0  0  0
    4.7035   -2.1865    1.8966 C   0  0  0  0  0  0  0  0  0  0  0  0
    4.4786   -2.0099    3.3772 C   0  0  0  0  0  0  0  0  0  0  0  0
    5.5192   -3.0107    1.4863 O   0  0  0  0  0  0  0  0  0  0  0  0
    3.0706   -0.3048    1.4894 C   0  0  0  0  0  0  0  0  0  0  0  0
    2.8188    0.7441    0.3913 C   0  0  0  0  0  0  0  0  0  0  0  0
   -3.6815    0.4906   -1.0902 C   0  0  0  0  0  0  0  0  0  0  0  0
   -4.5723   -0.1231   -0.2043 C   0  0  0  0  0  0  0  0  0  0  0  0
   -5.8528   -0.5023   -0.5177 O   0  0  0  0  0  0  0  0  0  0  0  0
   -6.2816   -0.3163   -1.8597 C   0  0  0  0  0  0  0  0  0  0  0  0
   -4.1498   -0.3788    1.1119 C   0  0  0  0  0  0  0  0  0  0  0  0
   -4.9797   -1.0250    1.9972 O   0  0  0  0  0  0  0  0  0  0  0  0
   -5.8140   -0.0792    2.6605 C   0  0  0  0  0  0  0  0  0  0  0  0
   -0.5586   -1.0814    2.5891 H   0  0  0  0  0  0  0  0  0  0  0  0
   -1.8959   -2.2277    2.2460 H   0  0  0  0  0  0  0  0  0  0  0  0
   -1.5284   -1.7437    3.9104 H   0  0  0  0  0  0  0  0  0  0  0  0
   -0.9904    0.8741    0.9930 H   0  0  0  0  0  0  0  0  0  0  0  0
    0.1335    0.4324   -0.8458 H   0  0  0  0  0  0  0  0  0  0  0  0
   -0.0649    2.9647   -3.6003 H   0  0  0  0  0  0  0  0  0  0  0  0
    1.9663    3.6158   -4.8107 H   0  0  0  0  0  0  0  0  0  0  0  0
    4.1661    2.6424   -4.1980 H   0  0  0  0  0  0  0  0  0  0  0  0
    4.3375    1.0200   -2.3513 H   0  0  0  0  0  0  0  0  0  0  0  0
    3.0593   -1.2907   -2.2636 H   0  0  0  0  0  0  0  0  0  0  0  0
    2.1091   -1.9678   -0.9550 H   0  0  0  0  0  0  0  0  0  0  0  0
    4.4789   -2.5368   -0.6430 H   0  0  0  0  0  0  0  0  0  0  0  0
    4.9454   -0.8364   -0.6887 H   0  0  0  0  0  0  0  0  0  0  0  0
    3.4111   -2.0365    3.6189 H   0  0  0  0  0  0  0  0  0  0  0  0
    4.9234   -1.0701    3.7113 H   0  0  0  0  0  0  0  0  0  0  0  0
    4.9617   -2.8327    3.9162 H   0  0  0  0  0  0  0  0  0  0  0  0
    2.1270   -0.7822    1.7777 H   0  0  0  0  0  0  0  0  0  0  0  0
    3.4874    0.1824    2.3759 H   0  0  0  0  0  0  0  0  0  0  0  0
    2.1131    1.4942    0.7687 H   0  0  0  0  0  0  0  0  0  0  0  0
    3.7654    1.2539    0.1694 H   0  0  0  0  0  0  0  0  0  0  0  0
   -3.9677    0.7161   -2.1170 H   0  0  0  0  0  0  0  0  0  0  0  0
   -6.3085    0.7476   -2.1228 H   0  0  0  0  0  0  0  0  0  0  0  0
   -5.6561   -0.8825   -2.5569 H   0  0  0  0  0  0  0  0  0  0  0  0
   -7.3023   -0.7046   -1.9398 H   0  0  0  0  0  0  0  0  0  0  0  0
   -6.4380   -0.6303    3.3715 H   0  0  0  0  0  0  0  0  0  0  0  0
   -5.2216    0.6518    3.2224 H   0  0  0  0  0  0  0  0  0  0  0  0
   -6.4793    0.4354    1.9586 H   0  0  0  0  0  0  0  0  0  0  0  0
  1  2  1  0
  2  3  1  0
  3  4  2  0
  4  5  1  0
  5  6  1  0
  6  7  2  0
  6  8  1  0
  8  9  1  0
  9 10  2  0
 10 11  1  0
 11 12  2  0
 12 13  1  0
 13 14  2  0
 14 15  1  0
 15 16  1  0
 16 17  1  0
 17 18  1  0
 18 19  1  0
 19 20  1  0
 19 21  2  0
 18 22  1  0
 22 23  1  0
  5 24  2  0
 24 25  1  0
 25 26  1  0
 26 27  1  0
 25 28  2  0
 28 29  1  0
 29 30  1  0
 28  3  1  0
 14  9  1  0
 23 15  1  0
  1 31  1  0
  1 32  1  0
  1 33  1  0
  4 34  1  0
  8 35  1  0
 10 36  1  0
 11 37  1  0
 12 38  1  0
 13 39  1  0
 16 40  1  0
 16 41  1  0
 17 42  1  0
 17 43  1  0
 20 44  1  0
 20 45  1  0
 20 46  1  0
 22 47  1  0
 22 48  1  0
 23 49  1  0
 23 50  1  0
 24 51  1  0
 27 52  1  0
 27 53  1  0
 27 54  1  0
 30 55  1  0
 30 56  1  0
 30 57  1  0
M  END
$$$$
