
     RDKit          3D

 45 45  0  0  0  0  0  0  0  0999 V2000
   -5.5081    2.0116   -2.0275 C   0  0  0  0  0  0  0  0  0  0  0  0
   -4.8420    1.1871   -1.0539 N   0  0  0  0  0  0  0  0  0  0  0  0
   -3.5390    1.4211   -0.6810 C   0  0  0  0  0  0  0  0  0  0  0  0
   -2.9003    2.3938   -1.0726 O   0  0  0  0  0  0  0  0  0  0  0  0
   -2.8959    0.4368    0.2484 C   0  0  0  0  0  0  0  0  0  0  0  0
   -1.7433    0.8893    0.9166 C   0  0  0  0  0  0  0  0  0  0  0  0
   -1.0476    0.0380    1.7751 C   0  0  0  0  0  0  0  0  0  0  0  0
    0.3951    0.6279    2.6278 S   0  0  0  0  0  6  0  0  0  0  0  0
    0.6168   -0.2396    3.7641 O   0  0  0  0  0  0  0  0  0  0  0  0
    0.2802    2.0602    2.7731 O   0  0  0  0  0  0  0  0  0  0  0  0
    1.6269    0.2922    1.5428 N   0  0  0  0  0  0  0  0  0  0  0  0
    1.6411    0.9151    0.2183 C   0  0  0  0  0  0  0  0  0  0  0  0
    3.0783    1.1043   -0.2677 C   0  0  0  0  0  0  0  0  0  0  0  0
    3.7604   -0.2252   -0.6191 C   0  0  0  0  0  0  0  0  0  0  0  0
    5.0604   -0.0474   -1.2890 N   0  0  0  0  0  0  0  0  0  0  0  0
    5.5474   -1.3344   -1.7937 C   0  0  0  0  0  0  0  0  0  0  0  0
    6.0646    0.5441   -0.4012 C   0  0  0  0  0  0  0  0  0  0  0  0
   -1.5072   -1.2569    2.0071 C   0  0  0  0  0  0  0  0  0  0  0  0
   -2.6565   -1.7117    1.3537 C   0  0  0  0  0  0  0  0  0  0  0  0
   -3.3579   -0.8806    0.4656 C   0  0  0  0  0  0  0  0  0  0  0  0
   -4.4805   -1.2831   -0.2137 O   0  0  0  0  0  0  0  0  0  0  0  0
   -4.9026   -2.6352   -0.0675 C   0  0  0  0  0  0  0  0  0  0  0  0
   -5.1723    1.7151   -3.0246 H   0  0  0  0  0  0  0  0  0  0  0  0
   -6.5853    1.8541   -1.9379 H   0  0  0  0  0  0  0  0  0  0  0  0
   -5.2696    3.0656   -1.8616 H   0  0  0  0  0  0  0  0  0  0  0  0
   -5.2408    0.2833   -0.8220 H   0  0  0  0  0  0  0  0  0  0  0  0
   -1.3944    1.9107    0.7643 H   0  0  0  0  0  0  0  0  0  0  0  0
    2.0697   -0.6123    1.6867 H   0  0  0  0  0  0  0  0  0  0  0  0
    1.0787    0.2921   -0.4847 H   0  0  0  0  0  0  0  0  0  0  0  0
    1.1642    1.8999    0.2590 H   0  0  0  0  0  0  0  0  0  0  0  0
    3.0562    1.7405   -1.1616 H   0  0  0  0  0  0  0  0  0  0  0  0
    3.6488    1.6403    0.4995 H   0  0  0  0  0  0  0  0  0  0  0  0
    3.8750   -0.8433    0.2803 H   0  0  0  0  0  0  0  0  0  0  0  0
    3.0905   -0.7707   -1.2966 H   0  0  0  0  0  0  0  0  0  0  0  0
    5.7100   -2.0592   -0.9878 H   0  0  0  0  0  0  0  0  0  0  0  0
    4.8348   -1.7640   -2.5067 H   0  0  0  0  0  0  0  0  0  0  0  0
    6.4899   -1.2042   -2.3375 H   0  0  0  0  0  0  0  0  0  0  0  0
    5.7887    1.5627   -0.1119 H   0  0  0  0  0  0  0  0  0  0  0  0
    6.2131   -0.0499    0.5078 H   0  0  0  0  0  0  0  0  0  0  0  0
    7.0291    0.6297   -0.9151 H   0  0  0  0  0  0  0  0  0  0  0  0
   -0.9855   -1.9170    2.6978 H   0  0  0  0  0  0  0  0  0  0  0  0
   -2.9798   -2.7265    1.5663 H   0  0  0  0  0  0  0  0  0  0  0  0
   -5.7765   -2.7817   -0.7095 H   0  0  0  0  0  0  0  0  0  0  0  0
   -5.2093   -2.8415    0.9630 H   0  0  0  0  0  0  0  0  0  0  0  0
   -4.1252   -3.3308   -0.4002 H   0  0  0  0  0  0  0  0  0  0  0  0
  1  2  1  0
  2  3  1  0
  3  4  2  0
  3  5  1  0
  5  6  2  0
  6  7  1  0
  7  8  1  0
  8  9  2  0
  8 10  2  0
  8 11  1  0
 11 12  1  0
 12 13  1  0
 13 14  1  0
 14 15  1  0
 15 16  1  0
 15 17  1  0
  7 18  2  0
 18 19  1  0
 19 20  2  0
 20 21  1  0
 21 22  1  0
 20  5  1  0
  1 23  1  0
  1 24  1  0
  1 25  1  0
  2 26  1  0
  6 27  1  0
 11 28  1  0
 12 29  1  0
 12 30  1  0
 13 31  1  0
 13 32  1  0
 14 33  1  0
 14 34  1  0
 16 35  1  0
 16 36  1  0
 16 37  1  0
 17 38  1  0
 17 39  1  0
 17 40  1  0
 18 41  1  0
 19 42  1  0
 22 43  1  0
 22 44  1  0
 22 45  1  0
M  END
$$$$
