
     RDKit          3D

 32 33  0  0  0  0  0  0  0  0999 V2000
    4.9421    1.3417    0.5203 C   0  0  0  0  0  0  0  0  0  0  0  0
    3.5717    0.7520    0.3644 C   0  0  0  0  0  0  0  0  0  0  0  0
    2.4374    1.4889    0.7134 C   0  0  0  0  0  0  0  0  0  0  0  0
    1.1581    0.9516    0.5400 C   0  0  0  0  0  0  0  0  0  0  0  0
    0.9947   -0.3283    0.0026 C   0  0  0  0  0  0  0  0  0  0  0  0
   -0.2115   -0.9441   -0.2060 O   0  0  0  0  0  0  0  0  0  0  0  0
   -1.3900   -0.1875    0.0584 C   0  0  0  0  0  0  0  0  0  0  0  0
   -2.6015   -1.0312   -0.2738 C   0  0  0  0  0  0  0  0  0  0  0  0
   -2.5906   -2.1642   -0.7429 O   0  0  0  0  0  0  0  0  0  0  0  0
   -3.8380   -0.4488    0.0061 N   0  0  0  0  0  0  0  0  0  0  0  0
   -5.0456   -1.0999   -0.1086 C   0  0  0  0  0  0  0  0  0  0  0  0
   -6.0287   -0.3304    0.2912 N   0  0  0  0  0  0  0  0  0  0  0  0
   -5.4827    0.8670    0.6681 N   0  0  0  0  0  0  0  0  0  0  0  0
   -4.1878    0.8136    0.4611 C   0  0  0  0  0  0  0  0  0  0  0  0
   -3.3223    1.8413    0.6500 N   0  0  0  0  0  0  0  0  0  0  0  0
    2.1282   -1.0753   -0.3621 C   0  0  0  0  0  0  0  0  0  0  0  0
    1.9844   -2.4547   -0.9455 C   0  0  0  0  0  0  0  0  0  0  0  0
    3.4076   -0.5246   -0.1841 C   0  0  0  0  0  0  0  0  0  0  0  0
    5.2295    1.8674   -0.3954 H   0  0  0  0  0  0  0  0  0  0  0  0
    4.9715    2.0472    1.3573 H   0  0  0  0  0  0  0  0  0  0  0  0
    5.6816    0.5611    0.7282 H   0  0  0  0  0  0  0  0  0  0  0  0
    2.5416    2.4891    1.1284 H   0  0  0  0  0  0  0  0  0  0  0  0
    0.3137    1.5625    0.8403 H   0  0  0  0  0  0  0  0  0  0  0  0
   -1.3930    0.6946   -0.5900 H   0  0  0  0  0  0  0  0  0  0  0  0
   -1.4220    0.0639    1.1240 H   0  0  0  0  0  0  0  0  0  0  0  0
   -5.1324   -2.1173   -0.4660 H   0  0  0  0  0  0  0  0  0  0  0  0
   -3.0707    2.3158   -0.2187 H   0  0  0  0  0  0  0  0  0  0  0  0
   -3.7796    2.5765    1.1975 H   0  0  0  0  0  0  0  0  0  0  0  0
    2.9594   -2.9017   -1.1664 H   0  0  0  0  0  0  0  0  0  0  0  0
    1.4185   -2.4129   -1.8817 H   0  0  0  0  0  0  0  0  0  0  0  0
    1.4708   -3.1140   -0.2382 H   0  0  0  0  0  0  0  0  0  0  0  0
    4.2854   -1.0992   -0.4744 H   0  0  0  0  0  0  0  0  0  0  0  0
  1  2  1  0
  2  3  2  0
  3  4  1  0
  4  5  2  0
  5  6  1  0
  6  7  1  0
  7  8  1  0
  8  9  2  0
  8 10  1  0
 10 11  1  0
 11 12  2  0
 12 13  1  0
 13 14  2  0
 14 15  1  0
  5 16  1  0
 16 17  1  0
 16 18  2  0
 18  2  1  0
 14 10  1  0
  1 19  1  0
  1 20  1  0
  1 21  1  0
  3 22  1  0
  4 23  1  0
  7 24  1  0
  7 25  1  0
 11 26  1  0
 15 27  1  0
 15 28  1  0
 17 29  1  0
 17 30  1  0
 17 31  1  0
 18 32  1  0
M  END
$$$$
