
     RDKit          3D

 27 27  0  0  0  0  0  0  0  0999 V2000
    2.1815    1.8774   -1.9462 O   0  0  0  0  0  0  0  0  0  0  0  0
    1.5536    1.1365   -1.1932 C   0  0  0  0  0  0  0  0  0  0  0  0
    0.0267    1.1759   -1.1110 C   0  0  0  0  0  0  0  0  0  0  0  0
   -0.4509    0.3790   -0.0309 O   0  0  0  0  0  0  0  0  0  0  0  0
   -1.8046    0.2068    0.0851 C   0  0  0  0  0  0  0  0  0  0  0  0
   -2.7595    0.9188   -0.6488 C   0  0  0  0  0  0  0  0  0  0  0  0
   -4.1240    0.6762   -0.4554 C   0  0  0  0  0  0  0  0  0  0  0  0
   -4.5382   -0.2738    0.4759 C   0  0  0  0  0  0  0  0  0  0  0  0
   -6.3832   -0.5969    0.7282 Br  0  0  0  0  0  0  0  0  0  0  0  0
   -3.6038   -0.9860    1.2207 C   0  0  0  0  0  0  0  0  0  0  0  0
   -2.2422   -0.7431    1.0251 C   0  0  0  0  0  0  0  0  0  0  0  0
   -1.1131   -1.6510    1.9710 Cl  0  0  0  0  0  0  0  0  0  0  0  0
    2.1491    0.1916   -0.3897 N   0  0  0  0  0  0  0  0  0  0  0  0
    3.5870    0.1485   -0.2060 C   0  0  0  0  0  0  0  0  0  0  0  0
    4.0168   -1.1575    0.4556 C   0  0  0  0  0  0  0  0  0  0  0  0
    3.4075   -1.2683    1.7412 O   0  0  0  0  0  0  0  0  0  0  0  0
   -0.3549    0.7996   -2.0677 H   0  0  0  0  0  0  0  0  0  0  0  0
   -0.2598    2.2224   -0.9534 H   0  0  0  0  0  0  0  0  0  0  0  0
   -2.4797    1.6766   -1.3748 H   0  0  0  0  0  0  0  0  0  0  0  0
   -4.8536    1.2336   -1.0379 H   0  0  0  0  0  0  0  0  0  0  0  0
   -3.9265   -1.7295    1.9453 H   0  0  0  0  0  0  0  0  0  0  0  0
    1.5821   -0.1682    0.3759 H   0  0  0  0  0  0  0  0  0  0  0  0
    3.8522    1.0067    0.4221 H   0  0  0  0  0  0  0  0  0  0  0  0
    4.0760    0.2658   -1.1788 H   0  0  0  0  0  0  0  0  0  0  0  0
    5.1035   -1.1828    0.5822 H   0  0  0  0  0  0  0  0  0  0  0  0
    3.7052   -2.0178   -0.1459 H   0  0  0  0  0  0  0  0  0  0  0  0
    3.6525   -2.1404    2.0960 H   0  0  0  0  0  0  0  0  0  0  0  0
  1  2  2  0
  2  3  1  0
  3  4  1  0
  4  5  1  0
  5  6  2  0
  6  7  1  0
  7  8  2  0
  8  9  1  0
  8 10  1  0
 10 11  2  0
 11 12  1  0
  2 13  1  0
 13 14  1  0
 14 15  1  0
 15 16  1  0
 11  5  1  0
  3 17  1  0
  3 18  1  0
  6 19  1  0
  7 20  1  0
 10 21  1  0
 13 22  1  0
 14 23  1  0
 14 24  1  0
 15 25  1  0
 15 26  1  0
 16 27  1  0
M  END
$$$$
