
     RDKit          3D

 42 44  0  0  0  0  0  0  0  0999 V2000
   -7.1162    0.6547    0.4358 C   0  0  0  0  0  0  0  0  0  0  0  0
   -6.4918   -0.3107   -0.5374 C   0  0  0  0  0  0  0  0  0  0  0  0
   -7.1546   -1.2015   -1.0647 O   0  0  0  0  0  0  0  0  0  0  0  0
   -5.0422   -0.1731   -0.8671 C   0  0  0  0  0  0  0  0  0  0  0  0
   -4.4411   -1.1647   -1.6562 C   0  0  0  0  0  0  0  0  0  0  0  0
   -3.0849   -1.0891   -1.9771 C   0  0  0  0  0  0  0  0  0  0  0  0
   -2.3215   -0.0191   -1.5156 C   0  0  0  0  0  0  0  0  0  0  0  0
   -2.9186    0.9777   -0.7450 C   0  0  0  0  0  0  0  0  0  0  0  0
   -2.1029    2.0363   -0.2376 N   0  0  0  0  0  0  0  0  0  0  0  0
   -1.5049    1.8159    1.3373 S   0  0  0  0  0  6  0  0  0  0  0  0
   -2.5920    1.4178    2.2037 O   0  0  0  0  0  0  0  0  0  0  0  0
   -0.6753    2.9622    1.6355 O   0  0  0  0  0  0  0  0  0  0  0  0
   -0.4022    0.4795    1.3282 C   0  0  0  0  0  0  0  0  0  0  0  0
   -0.7350   -0.7982    1.7152 C   0  0  0  0  0  0  0  0  0  0  0  0
    0.5754   -1.8764    1.5255 S   0  0  0  0  0  0  0  0  0  0  0  0
    1.6204   -0.6360    0.9485 C   0  0  0  0  0  0  0  0  0  0  0  0
    3.0002   -0.9832    0.6021 C   0  0  0  0  0  0  0  0  0  0  0  0
    3.3729   -2.1424    0.4364 O   0  0  0  0  0  0  0  0  0  0  0  0
    3.8391    0.1047    0.4824 N   0  0  0  0  0  0  0  0  0  0  0  0
    5.1743    0.0518    0.1483 C   0  0  0  0  0  0  0  0  0  0  0  0
    5.9868   -1.0577   -0.1710 C   0  0  0  0  0  0  0  0  0  0  0  0
    7.2249   -0.5198   -0.4197 C   0  0  0  0  0  0  0  0  0  0  0  0
    8.5332   -1.0781   -0.8003 C   0  0  0  0  0  0  0  0  0  0  0  0
    7.1630    0.8281   -0.2632 O   0  0  0  0  0  0  0  0  0  0  0  0
    5.8768    1.1891    0.0923 N   0  0  0  0  0  0  0  0  0  0  0  0
    0.9532    0.5764    0.8822 C   0  0  0  0  0  0  0  0  0  0  0  0
   -4.2733    0.9043   -0.4116 C   0  0  0  0  0  0  0  0  0  0  0  0
   -6.5653    0.6549    1.3800 H   0  0  0  0  0  0  0  0  0  0  0  0
   -7.1494    1.6575    0.0024 H   0  0  0  0  0  0  0  0  0  0  0  0
   -8.1419    0.3371    0.6480 H   0  0  0  0  0  0  0  0  0  0  0  0
   -5.0285   -2.0072   -2.0198 H   0  0  0  0  0  0  0  0  0  0  0  0
   -2.6266   -1.8666   -2.5843 H   0  0  0  0  0  0  0  0  0  0  0  0
   -1.2657    0.0339   -1.7689 H   0  0  0  0  0  0  0  0  0  0  0  0
   -2.5530    2.9525   -0.2724 H   0  0  0  0  0  0  0  0  0  0  0  0
   -1.6866   -1.1546    2.0896 H   0  0  0  0  0  0  0  0  0  0  0  0
    3.5187    1.0385    0.6872 H   0  0  0  0  0  0  0  0  0  0  0  0
    5.7191   -2.1029   -0.2142 H   0  0  0  0  0  0  0  0  0  0  0  0
    8.4815   -2.1666   -0.9017 H   0  0  0  0  0  0  0  0  0  0  0  0
    9.2863   -0.8425   -0.0421 H   0  0  0  0  0  0  0  0  0  0  0  0
    8.8642   -0.6626   -1.7570 H   0  0  0  0  0  0  0  0  0  0  0  0
    1.3921    1.5014    0.5260 H   0  0  0  0  0  0  0  0  0  0  0  0
   -4.7086    1.6789    0.2119 H   0  0  0  0  0  0  0  0  0  0  0  0
  1  2  1  0
  2  3  2  0
  2  4  1  0
  4  5  2  0
  5  6  1  0
  6  7  2  0
  7  8  1  0
  8  9  1  0
  9 10  1  0
 10 11  2  0
 10 12  2  0
 10 13  1  0
 13 14  2  0
 14 15  1  0
 15 16  1  0
 16 17  1  0
 17 18  2  0
 17 19  1  0
 19 20  1  0
 20 21  1  0
 21 22  2  0
 22 23  1  0
 22 24  1  0
 24 25  1  0
 16 26  2  0
  8 27  2  0
 27  4  1  0
 26 13  1  0
 25 20  2  0
  1 28  1  0
  1 29  1  0
  1 30  1  0
  5 31  1  0
  6 32  1  0
  7 33  1  0
  9 34  1  0
 14 35  1  0
 19 36  1  0
 21 37  1  0
 23 38  1  0
 23 39  1  0
 23 40  1  0
 26 41  1  0
 27 42  1  0
M  END
$$$$
