
     RDKit          3D

 48 50  0  0  0  0  0  0  0  0999 V2000
    4.7036   -2.0784    2.4257 C   0  0  0  0  0  0  0  0  0  0  0  0
    3.7027   -1.0041    2.2667 N   0  0  0  0  0  0  0  0  0  0  0  0
    2.7999   -0.9182    3.4350 C   0  0  0  0  0  0  0  0  0  0  0  0
    4.3655    0.4760    1.7758 S   0  0  0  0  0  6  0  0  0  0  0  0
    4.8087    1.1805    2.9577 O   0  0  0  0  0  0  0  0  0  0  0  0
    5.2508    0.2517    0.6578 O   0  0  0  0  0  0  0  0  0  0  0  0
    2.9708    1.2383    1.1863 N   0  0  0  0  0  0  0  0  0  0  0  0
    3.1253    2.7099    1.0180 C   0  0  0  0  0  0  0  0  0  0  0  0
    2.1430    3.2836   -0.0049 C   0  0  0  0  0  0  0  0  0  0  0  0
    0.7806    2.5951    0.0396 C   0  0  0  0  0  0  0  0  0  0  0  0
    0.9011    1.0657   -0.0968 C   0  0  0  0  0  0  0  0  0  0  0  0
    0.2796    0.5762   -1.3964 C   0  0  0  0  0  0  0  0  0  0  0  0
    0.9426    0.2034   -2.3573 O   0  0  0  0  0  0  0  0  0  0  0  0
   -1.0967    0.6034   -1.3954 N   0  0  0  0  0  0  0  0  0  0  0  0
   -1.8762    0.1666   -2.5330 C   0  0  0  0  0  0  0  0  0  0  0  0
   -3.0604   -0.6510   -2.0808 C   0  0  0  0  0  0  0  0  0  0  0  0
   -2.8519   -1.8697   -1.3877 C   0  0  0  0  0  0  0  0  0  0  0  0
   -3.9297   -2.6498   -0.9571 C   0  0  0  0  0  0  0  0  0  0  0  0
   -5.2005   -2.1933   -1.2369 C   0  0  0  0  0  0  0  0  0  0  0  0
   -5.4155   -1.0157   -1.9159 C   0  0  0  0  0  0  0  0  0  0  0  0
   -4.3724   -0.2229   -2.3495 C   0  0  0  0  0  0  0  0  0  0  0  0
   -6.7380   -0.7527   -2.0935 O   0  0  0  0  0  0  0  0  0  0  0  0
   -7.3306   -1.9119   -1.4704 C   0  0  0  0  0  0  0  0  0  0  0  0
   -6.3613   -2.8149   -0.8966 O   0  0  0  0  0  0  0  0  0  0  0  0
    2.3542    0.5893   -0.0020 C   0  0  0  0  0  0  0  0  0  0  0  0
    4.1999   -3.0270    2.6436 H   0  0  0  0  0  0  0  0  0  0  0  0
    5.3984   -1.8550    3.2442 H   0  0  0  0  0  0  0  0  0  0  0  0
    5.2707   -2.2243    1.5027 H   0  0  0  0  0  0  0  0  0  0  0  0
    2.0790   -0.1020    3.3228 H   0  0  0  0  0  0  0  0  0  0  0  0
    3.3673   -0.7740    4.3606 H   0  0  0  0  0  0  0  0  0  0  0  0
    2.2225   -1.8444    3.5193 H   0  0  0  0  0  0  0  0  0  0  0  0
    2.9432    3.1766    1.9912 H   0  0  0  0  0  0  0  0  0  0  0  0
    4.1441    2.9650    0.7074 H   0  0  0  0  0  0  0  0  0  0  0  0
    2.0293    4.3610    0.1582 H   0  0  0  0  0  0  0  0  0  0  0  0
    2.5620    3.1699   -1.0130 H   0  0  0  0  0  0  0  0  0  0  0  0
    0.2958    2.8314    0.9967 H   0  0  0  0  0  0  0  0  0  0  0  0
    0.1414    3.0221   -0.7420 H   0  0  0  0  0  0  0  0  0  0  0  0
    0.3355    0.6047    0.7258 H   0  0  0  0  0  0  0  0  0  0  0  0
   -1.5954    0.9797   -0.6001 H   0  0  0  0  0  0  0  0  0  0  0  0
   -1.2679   -0.4193   -3.2307 H   0  0  0  0  0  0  0  0  0  0  0  0
   -2.2035    1.0717   -3.0569 H   0  0  0  0  0  0  0  0  0  0  0  0
   -1.8370   -2.2064   -1.1828 H   0  0  0  0  0  0  0  0  0  0  0  0
   -3.7733   -3.5810   -0.4242 H   0  0  0  0  0  0  0  0  0  0  0  0
   -4.5749    0.6988   -2.8835 H   0  0  0  0  0  0  0  0  0  0  0  0
   -8.0092   -1.5743   -0.6788 H   0  0  0  0  0  0  0  0  0  0  0  0
   -7.9133   -2.4577   -2.2243 H   0  0  0  0  0  0  0  0  0  0  0  0
    2.3558   -0.5015    0.1007 H   0  0  0  0  0  0  0  0  0  0  0  0
    2.9343    0.8293   -0.9024 H   0  0  0  0  0  0  0  0  0  0  0  0
  1  2  1  0
  2  3  1  0
  2  4  1  0
  4  5  2  0
  4  6  2  0
  4  7  1  0
  7  8  1  0
  8  9  1  0
  9 10  1  0
 10 11  1  0
 11 12  1  0
 12 13  2  0
 12 14  1  0
 14 15  1  0
 15 16  1  0
 16 17  2  0
 17 18  1  0
 18 19  2  0
 19 20  1  0
 20 21  2  0
 20 22  1  0
 22 23  1  0
 23 24  1  0
 11 25  1  0
 25  7  1  0
 21 16  1  0
 24 19  1  0
  1 26  1  0
  1 27  1  0
  1 28  1  0
  3 29  1  0
  3 30  1  0
  3 31  1  0
  8 32  1  0
  8 33  1  0
  9 34  1  0
  9 35  1  0
 10 36  1  0
 10 37  1  0
 11 38  1  0
 14 39  1  0
 15 40  1  0
 15 41  1  0
 17 42  1  0
 18 43  1  0
 21 44  1  0
 23 45  1  0
 23 46  1  0
 25 47  1  0
 25 48  1  0
M  END
$$$$
