
     RDKit          3D

 30 31  0  0  0  0  0  0  0  0999 V2000
   -1.8913    1.5552    2.2349 C   0  0  0  0  0  0  0  0  0  0  0  0
   -2.4777    0.7381    1.1434 C   0  0  0  0  0  0  0  0  0  0  0  0
   -3.7945    0.3968    0.8918 C   0  0  0  0  0  0  0  0  0  0  0  0
   -3.8180   -0.4002   -0.2813 C   0  0  0  0  0  0  0  0  0  0  0  0
   -2.5151   -0.5333   -0.7280 C   0  0  0  0  0  0  0  0  0  0  0  0
   -1.9788   -1.2610   -1.9053 C   0  0  0  0  0  0  0  0  0  0  0  0
   -1.7298    0.1371    0.1696 N   0  0  0  0  0  0  0  0  0  0  0  0
   -0.4171    0.3754   -0.0121 N   0  0  0  0  0  0  0  0  0  0  0  0
    0.5025   -0.5202    0.4836 C   0  0  0  0  0  0  0  0  0  0  0  0
    0.2374   -1.4809    1.1969 O   0  0  0  0  0  0  0  0  0  0  0  0
    1.9136   -0.2829    0.0673 C   0  0  0  0  0  0  0  0  0  0  0  0
    2.7801   -1.3813   -0.0029 C   0  0  0  0  0  0  0  0  0  0  0  0
    4.1085   -1.2043   -0.3928 C   0  0  0  0  0  0  0  0  0  0  0  0
    4.5790    0.0706   -0.7047 C   0  0  0  0  0  0  0  0  0  0  0  0
    3.7262    1.1712   -0.6203 C   0  0  0  0  0  0  0  0  0  0  0  0
    2.3954    0.9989   -0.2316 C   0  0  0  0  0  0  0  0  0  0  0  0
   -2.6718    1.9245    2.9081 H   0  0  0  0  0  0  0  0  0  0  0  0
   -1.3611    2.4227    1.8288 H   0  0  0  0  0  0  0  0  0  0  0  0
   -1.1889    0.9622    2.8294 H   0  0  0  0  0  0  0  0  0  0  0  0
   -4.6484    0.6916    1.4886 H   0  0  0  0  0  0  0  0  0  0  0  0
   -4.6938   -0.8303   -0.7505 H   0  0  0  0  0  0  0  0  0  0  0  0
   -2.7887   -1.7164   -2.4844 H   0  0  0  0  0  0  0  0  0  0  0  0
   -1.3007   -2.0608   -1.5911 H   0  0  0  0  0  0  0  0  0  0  0  0
   -1.4349   -0.5807   -2.5684 H   0  0  0  0  0  0  0  0  0  0  0  0
   -0.2085    0.9979   -0.7767 H   0  0  0  0  0  0  0  0  0  0  0  0
    2.4203   -2.3782    0.2457 H   0  0  0  0  0  0  0  0  0  0  0  0
    4.7761   -2.0608   -0.4476 H   0  0  0  0  0  0  0  0  0  0  0  0
    5.6157    0.2075   -1.0036 H   0  0  0  0  0  0  0  0  0  0  0  0
    4.1030    2.1658   -0.8473 H   0  0  0  0  0  0  0  0  0  0  0  0
    1.7614    1.8759   -0.1396 H   0  0  0  0  0  0  0  0  0  0  0  0
  1  2  1  0
  2  3  2  0
  3  4  1  0
  4  5  2  0
  5  6  1  0
  5  7  1  0
  7  8  1  0
  8  9  1  0
  9 10  2  0
  9 11  1  0
 11 12  2  0
 12 13  1  0
 13 14  2  0
 14 15  1  0
 15 16  2  0
  7  2  1  0
 16 11  1  0
  1 17  1  0
  1 18  1  0
  1 19  1  0
  3 20  1  0
  4 21  1  0
  6 22  1  0
  6 23  1  0
  6 24  1  0
  8 25  1  0
 12 26  1  0
 13 27  1  0
 14 28  1  0
 15 29  1  0
 16 30  1  0
M  END
$$$$
