
     RDKit          3D

 46 48  0  0  0  0  0  0  0  0999 V2000
   -7.1698   -0.6275    0.6864 C   0  0  0  0  0  0  0  0  0  0  0  0
   -6.4415    0.0254   -0.4911 C   0  0  0  0  0  0  0  0  0  0  0  0
   -6.9480    1.4510   -0.7232 C   0  0  0  0  0  0  0  0  0  0  0  0
   -4.9348   -0.0068   -0.3041 C   0  0  0  0  0  0  0  0  0  0  0  0
   -4.1310   -0.6855   -1.2302 C   0  0  0  0  0  0  0  0  0  0  0  0
   -2.7393   -0.7298   -1.0825 C   0  0  0  0  0  0  0  0  0  0  0  0
   -2.1242   -0.1002    0.0043 C   0  0  0  0  0  0  0  0  0  0  0  0
   -0.7122   -0.1234    0.1869 N   0  0  0  0  0  0  0  0  0  0  0  0
   -0.1189    0.7494    1.0504 N   0  0  0  0  0  0  0  0  0  0  0  0
    1.1944    0.6394    0.9372 N   0  0  0  0  0  0  0  0  0  0  0  0
    1.4653   -0.3772    0.0580 C   0  0  0  0  0  0  0  0  0  0  0  0
    2.8211   -0.8056   -0.2566 C   0  0  0  0  0  0  0  0  0  0  0  0
    3.0686   -1.7565   -0.9939 O   0  0  0  0  0  0  0  0  0  0  0  0
    3.7963   -0.0424    0.3524 N   0  0  0  0  0  0  0  0  0  0  0  0
    5.1977   -0.2097    0.0531 C   0  0  0  0  0  0  0  0  0  0  0  0
    6.1019    0.4457    1.0889 C   0  0  0  0  0  0  0  0  0  0  0  0
    7.4442    0.5203    0.3771 C   0  0  0  0  0  0  0  0  0  0  0  0
    7.1095    0.7479   -1.0964 C   0  0  0  0  0  0  0  0  0  0  0  0
    5.6125    0.4789   -1.2459 C   0  0  0  0  0  0  0  0  0  0  0  0
    0.2764   -0.9214   -0.4034 C   0  0  0  0  0  0  0  0  0  0  0  0
    0.0616   -2.0006   -1.2136 N   0  0  0  0  0  0  0  0  0  0  0  0
   -2.9215    0.6016    0.9213 C   0  0  0  0  0  0  0  0  0  0  0  0
   -4.3114    0.6406    0.7705 C   0  0  0  0  0  0  0  0  0  0  0  0
   -8.2474   -0.6722    0.4950 H   0  0  0  0  0  0  0  0  0  0  0  0
   -7.0212   -0.0728    1.6193 H   0  0  0  0  0  0  0  0  0  0  0  0
   -6.8150   -1.6517    0.8469 H   0  0  0  0  0  0  0  0  0  0  0  0
   -6.6944   -0.5569   -1.3873 H   0  0  0  0  0  0  0  0  0  0  0  0
   -6.4374    1.9141   -1.5749 H   0  0  0  0  0  0  0  0  0  0  0  0
   -8.0222    1.4476   -0.9380 H   0  0  0  0  0  0  0  0  0  0  0  0
   -6.7859    2.0908    0.1511 H   0  0  0  0  0  0  0  0  0  0  0  0
   -4.5816   -1.1778   -2.0901 H   0  0  0  0  0  0  0  0  0  0  0  0
   -2.1683   -1.2221   -1.8634 H   0  0  0  0  0  0  0  0  0  0  0  0
    3.4816    0.7841    0.8510 H   0  0  0  0  0  0  0  0  0  0  0  0
    5.4202   -1.2825   -0.0142 H   0  0  0  0  0  0  0  0  0  0  0  0
    6.1558   -0.1279    2.0194 H   0  0  0  0  0  0  0  0  0  0  0  0
    5.7505    1.4549    1.3381 H   0  0  0  0  0  0  0  0  0  0  0  0
    7.9799   -0.4299    0.4899 H   0  0  0  0  0  0  0  0  0  0  0  0
    8.0827    1.3107    0.7829 H   0  0  0  0  0  0  0  0  0  0  0  0
    7.6978    0.0753   -1.7300 H   0  0  0  0  0  0  0  0  0  0  0  0
    7.3450    1.7734   -1.4014 H   0  0  0  0  0  0  0  0  0  0  0  0
    5.3914   -0.1340   -2.1259 H   0  0  0  0  0  0  0  0  0  0  0  0
    5.0791    1.4297   -1.3718 H   0  0  0  0  0  0  0  0  0  0  0  0
   -0.7186   -2.6211   -1.0008 H   0  0  0  0  0  0  0  0  0  0  0  0
    0.8935   -2.5507   -1.4565 H   0  0  0  0  0  0  0  0  0  0  0  0
   -2.4813    1.1183    1.7727 H   0  0  0  0  0  0  0  0  0  0  0  0
   -4.9010    1.1870    1.5037 H   0  0  0  0  0  0  0  0  0  0  0  0
  1  2  1  0
  2  3  1  0
  2  4  1  0
  4  5  2  0
  5  6  1  0
  6  7  2  0
  7  8  1  0
  8  9  1  0
  9 10  2  0
 10 11  1  0
 11 12  1  0
 12 13  2  0
 12 14  1  0
 14 15  1  0
 15 16  1  0
 16 17  1  0
 17 18  1  0
 18 19  1  0
 11 20  2  0
 20 21  1  0
  7 22  1  0
 22 23  2  0
 23  4  1  0
 20  8  1  0
 19 15  1  0
  1 24  1  0
  1 25  1  0
  1 26  1  0
  2 27  1  0
  3 28  1  0
  3 29  1  0
  3 30  1  0
  5 31  1  0
  6 32  1  0
 14 33  1  0
 15 34  1  0
 16 35  1  0
 16 36  1  0
 17 37  1  0
 17 38  1  0
 18 39  1  0
 18 40  1  0
 19 41  1  0
 19 42  1  0
 21 43  1  0
 21 44  1  0
 22 45  1  0
 23 46  1  0
M  END
$$$$
