
     RDKit          3D

 39 41  0  0  0  0  0  0  0  0999 V2000
    3.1469    1.6387    1.1758 O   0  0  0  0  0  0  0  0  0  0  0  0
    2.6460    0.7453    0.5020 C   0  0  0  0  0  0  0  0  0  0  0  0
    1.3631    0.7270   -0.0088 N   0  0  0  0  0  0  0  0  0  0  0  0
    0.3583    1.7228    0.1086 C   0  0  0  0  0  0  0  0  0  0  0  0
    0.5749    2.9493    0.7444 C   0  0  0  0  0  0  0  0  0  0  0  0
   -0.4243    3.9304    0.7703 C   0  0  0  0  0  0  0  0  0  0  0  0
   -1.6486    3.6977    0.1494 C   0  0  0  0  0  0  0  0  0  0  0  0
   -3.1117    5.1714    0.1577 I   0  0  0  0  0  0  0  0  0  0  0  0
   -1.8971    2.4792   -0.4743 C   0  0  0  0  0  0  0  0  0  0  0  0
   -0.9133    1.4805   -0.4586 C   0  0  0  0  0  0  0  0  0  0  0  0
   -1.2069    0.1661   -1.0824 C   0  0  0  0  0  0  0  0  0  0  0  0
   -0.3792   -0.2874   -1.8724 O   0  0  0  0  0  0  0  0  0  0  0  0
   -2.3430   -0.5290   -0.7035 N   0  0  0  0  0  0  0  0  0  0  0  0
   -2.6119   -1.8465   -1.2622 C   0  0  0  0  0  0  0  0  0  0  0  0
   -3.4679   -2.5454   -0.2158 C   0  0  0  0  0  0  0  0  0  0  0  0
   -4.2164   -1.3933    0.4372 C   0  0  0  0  0  0  0  0  0  0  0  0
   -3.1704   -0.2880    0.4745 C   0  0  0  0  0  0  0  0  0  0  0  0
    3.4874   -0.4364    0.1803 C   0  0  0  0  0  0  0  0  0  0  0  0
    4.8763   -0.2942    0.1151 C   0  0  0  0  0  0  0  0  0  0  0  0
    5.6706   -1.4028   -0.1694 C   0  0  0  0  0  0  0  0  0  0  0  0
    5.0467   -2.6236   -0.3699 C   0  0  0  0  0  0  0  0  0  0  0  0
    3.7093   -2.8031   -0.2986 N   0  0  0  0  0  0  0  0  0  0  0  0
    2.9601   -1.7064   -0.0199 C   0  0  0  0  0  0  0  0  0  0  0  0
    1.1215   -0.0211   -0.6602 H   0  0  0  0  0  0  0  0  0  0  0  0
    1.5240    3.1895    1.2143 H   0  0  0  0  0  0  0  0  0  0  0  0
   -0.2165    4.8771    1.2644 H   0  0  0  0  0  0  0  0  0  0  0  0
   -2.8421    2.2994   -0.9801 H   0  0  0  0  0  0  0  0  0  0  0  0
   -3.1660   -1.6996   -2.1957 H   0  0  0  0  0  0  0  0  0  0  0  0
   -1.6901   -2.3950   -1.4780 H   0  0  0  0  0  0  0  0  0  0  0  0
   -2.8265   -3.0371    0.5256 H   0  0  0  0  0  0  0  0  0  0  0  0
   -4.1319   -3.2985   -0.6485 H   0  0  0  0  0  0  0  0  0  0  0  0
   -5.0592   -1.0925   -0.1969 H   0  0  0  0  0  0  0  0  0  0  0  0
   -4.6036   -1.6405    1.4293 H   0  0  0  0  0  0  0  0  0  0  0  0
   -3.6333    0.6997    0.4526 H   0  0  0  0  0  0  0  0  0  0  0  0
   -2.5317   -0.3676    1.3611 H   0  0  0  0  0  0  0  0  0  0  0  0
    5.3378    0.6761    0.2844 H   0  0  0  0  0  0  0  0  0  0  0  0
    6.7498   -1.3154   -0.2301 H   0  0  0  0  0  0  0  0  0  0  0  0
    5.6230   -3.5168   -0.5951 H   0  0  0  0  0  0  0  0  0  0  0  0
    1.8962   -1.9104    0.0550 H   0  0  0  0  0  0  0  0  0  0  0  0
  1  2  2  0
  2  3  1  0
  3  4  1  0
  4  5  2  0
  5  6  1  0
  6  7  2  0
  7  8  1  0
  7  9  1  0
  9 10  2  0
 10 11  1  0
 11 12  2  0
 11 13  1  0
 13 14  1  0
 14 15  1  0
 15 16  1  0
 16 17  1  0
  2 18  1  0
 18 19  2  0
 19 20  1  0
 20 21  2  0
 21 22  1  0
 22 23  2  0
 10  4  1  0
 17 13  1  0
 23 18  1  0
  3 24  1  0
  5 25  1  0
  6 26  1  0
  9 27  1  0
 14 28  1  0
 14 29  1  0
 15 30  1  0
 15 31  1  0
 16 32  1  0
 16 33  1  0
 17 34  1  0
 17 35  1  0
 19 36  1  0
 20 37  1  0
 21 38  1  0
 23 39  1  0
M  END
$$$$
