
     RDKit          3D

 64 67  0  0  0  0  0  0  0  0999 V2000
    9.8155    0.2235   -0.5536 C   0  0  0  0  0  0  0  0  0  0  0  0
    8.8632    1.1208   -0.0008 O   0  0  0  0  0  0  0  0  0  0  0  0
    7.5563    0.7023    0.0066 C   0  0  0  0  0  0  0  0  0  0  0  0
    7.1665   -0.6379   -0.0510 C   0  0  0  0  0  0  0  0  0  0  0  0
    5.8105   -0.9849   -0.0258 C   0  0  0  0  0  0  0  0  0  0  0  0
    4.8258    0.0004    0.0446 C   0  0  0  0  0  0  0  0  0  0  0  0
    3.4386   -0.2697    0.0595 N   0  0  0  0  0  0  0  0  0  0  0  0
    2.8147   -1.4821   -0.1294 C   0  0  0  0  0  0  0  0  0  0  0  0
    3.3896   -2.5123   -0.4728 O   0  0  0  0  0  0  0  0  0  0  0  0
    1.4335   -1.4679    0.0847 N   0  0  0  0  0  0  0  0  0  0  0  0
    0.7577   -2.7702   -0.0144 C   0  0  0  0  0  0  0  0  0  0  0  0
   -0.7521   -2.6607   -0.2873 C   0  0  0  0  0  0  0  0  0  0  0  0
   -1.3924   -1.7272    0.6699 N   0  0  0  0  0  0  0  0  0  0  0  0
   -2.7935   -1.6792    0.4820 C   0  0  0  0  0  0  0  0  0  0  0  0
   -3.5453   -2.7866    0.8180 C   0  0  0  0  0  0  0  0  0  0  0  0
   -4.9040   -2.7026    0.6260 C   0  0  0  0  0  0  0  0  0  0  0  0
   -5.7926   -3.8592    0.9686 C   0  0  0  0  0  0  0  0  0  0  0  0
   -5.4897   -1.5946    0.1417 N   0  0  0  0  0  0  0  0  0  0  0  0
   -4.7104   -0.5418   -0.1505 C   0  0  0  0  0  0  0  0  0  0  0  0
   -5.3024    0.5957   -0.6610 N   0  0  0  0  0  0  0  0  0  0  0  0
   -4.4556    1.7314   -0.9929 C   0  0  0  0  0  0  0  0  0  0  0  0
   -5.2492    2.7398   -1.8218 C   0  0  0  0  0  0  0  0  0  0  0  0
   -6.4837    3.2469   -1.0786 C   0  0  0  0  0  0  0  0  0  0  0  0
   -7.0263    2.2344   -0.0694 C   0  0  0  0  0  0  0  0  0  0  0  0
   -6.7356    0.7896   -0.4765 C   0  0  0  0  0  0  0  0  0  0  0  0
   -3.3752   -0.5636    0.0113 N   0  0  0  0  0  0  0  0  0  0  0  0
   -0.7649   -0.3913    0.6351 C   0  0  0  0  0  0  0  0  0  0  0  0
    0.7377   -0.5031    0.9572 C   0  0  0  0  0  0  0  0  0  0  0  0
    5.2182    1.3448    0.1258 C   0  0  0  0  0  0  0  0  0  0  0  0
    6.5740    1.7018    0.1248 C   0  0  0  0  0  0  0  0  0  0  0  0
    7.0262    2.9978    0.1923 O   0  0  0  0  0  0  0  0  0  0  0  0
    6.1367    3.9601    0.7424 C   0  0  0  0  0  0  0  0  0  0  0  0
   10.7518    0.7730   -0.6873 H   0  0  0  0  0  0  0  0  0  0  0  0
   10.0135   -0.6065    0.1307 H   0  0  0  0  0  0  0  0  0  0  0  0
    9.5008   -0.1422   -1.5363 H   0  0  0  0  0  0  0  0  0  0  0  0
    7.8938   -1.4425   -0.1041 H   0  0  0  0  0  0  0  0  0  0  0  0
    5.5602   -2.0412   -0.0667 H   0  0  0  0  0  0  0  0  0  0  0  0
    2.8434    0.5386    0.0085 H   0  0  0  0  0  0  0  0  0  0  0  0
    0.9302   -3.2923    0.9341 H   0  0  0  0  0  0  0  0  0  0  0  0
    1.2129   -3.3689   -0.8094 H   0  0  0  0  0  0  0  0  0  0  0  0
   -0.9060   -2.3045   -1.3166 H   0  0  0  0  0  0  0  0  0  0  0  0
   -1.1820   -3.6669   -0.2136 H   0  0  0  0  0  0  0  0  0  0  0  0
   -3.0870   -3.6744    1.2318 H   0  0  0  0  0  0  0  0  0  0  0  0
   -5.4653   -4.7604    0.4404 H   0  0  0  0  0  0  0  0  0  0  0  0
   -5.7700   -4.0460    2.0461 H   0  0  0  0  0  0  0  0  0  0  0  0
   -6.8279   -3.6543    0.6791 H   0  0  0  0  0  0  0  0  0  0  0  0
   -3.5860    1.4156   -1.5846 H   0  0  0  0  0  0  0  0  0  0  0  0
   -4.0833    2.2089   -0.0778 H   0  0  0  0  0  0  0  0  0  0  0  0
   -5.5714    2.2610   -2.7539 H   0  0  0  0  0  0  0  0  0  0  0  0
   -4.6137    3.5833   -2.1083 H   0  0  0  0  0  0  0  0  0  0  0  0
   -6.2469    4.1792   -0.5522 H   0  0  0  0  0  0  0  0  0  0  0  0
   -7.2609    3.4982   -1.8116 H   0  0  0  0  0  0  0  0  0  0  0  0
   -8.1035    2.3842    0.0630 H   0  0  0  0  0  0  0  0  0  0  0  0
   -6.5629    2.4255    0.9082 H   0  0  0  0  0  0  0  0  0  0  0  0
   -7.2535    0.5511   -1.4135 H   0  0  0  0  0  0  0  0  0  0  0  0
   -7.1555    0.1384    0.3016 H   0  0  0  0  0  0  0  0  0  0  0  0
   -0.8812    0.0678   -0.3547 H   0  0  0  0  0  0  0  0  0  0  0  0
   -1.2256    0.2662    1.3810 H   0  0  0  0  0  0  0  0  0  0  0  0
    1.1819    0.4922    0.8950 H   0  0  0  0  0  0  0  0  0  0  0  0
    0.8777   -0.8539    1.9878 H   0  0  0  0  0  0  0  0  0  0  0  0
    4.4547    2.1128    0.1795 H   0  0  0  0  0  0  0  0  0  0  0  0
    6.7060    4.8764    0.9275 H   0  0  0  0  0  0  0  0  0  0  0  0
    5.3393    4.2015    0.0324 H   0  0  0  0  0  0  0  0  0  0  0  0
    5.7246    3.6259    1.7006 H   0  0  0  0  0  0  0  0  0  0  0  0
  1  2  1  0
  2  3  1  0
  3  4  2  0
  4  5  1  0
  5  6  2  0
  6  7  1  0
  7  8  1  0
  8  9  2  0
  8 10  1  0
 10 11  1  0
 11 12  1  0
 12 13  1  0
 13 14  1  0
 14 15  2  0
 15 16  1  0
 16 17  1  0
 16 18  2  0
 18 19  1  0
 19 20  1  0
 20 21  1  0
 21 22  1  0
 22 23  1  0
 23 24  1  0
 24 25  1  0
 19 26  2  0
 13 27  1  0
 27 28  1  0
  6 29  1  0
 29 30  2  0
 30 31  1  0
 31 32  1  0
 30  3  1  0
 28 10  1  0
 26 14  1  0
 25 20  1  0
  1 33  1  0
  1 34  1  0
  1 35  1  0
  4 36  1  0
  5 37  1  0
  7 38  1  0
 11 39  1  0
 11 40  1  0
 12 41  1  0
 12 42  1  0
 15 43  1  0
 17 44  1  0
 17 45  1  0
 17 46  1  0
 21 47  1  0
 21 48  1  0
 22 49  1  0
 22 50  1  0
 23 51  1  0
 23 52  1  0
 24 53  1  0
 24 54  1  0
 25 55  1  0
 25 56  1  0
 27 57  1  0
 27 58  1  0
 28 59  1  0
 28 60  1  0
 29 61  1  0
 32 62  1  0
 32 63  1  0
 32 64  1  0
M  END
$$$$
