
     RDKit          3D

 34 35  0  0  0  0  0  0  0  0999 V2000
    0.6837    0.0000    0.0000 Cl  0  0  0  0  0  0  0  0  0  0  0  0
    5.9925   -0.5932   -1.0383 N   0  0  0  0  0  0  0  0  0  0  0  0
    4.7086   -0.3946   -0.4240 C   0  0  0  0  0  0  0  0  0  0  0  0
    4.5576    0.4155    0.6762 C   0  0  0  0  0  0  0  0  0  0  0  0
    3.3074    0.5734    1.2323 C   0  0  0  0  0  0  0  0  0  0  0  0
    2.1642   -0.0482    0.7414 C   0  0  0  0  0  0  0  0  0  0  0  0
    0.9002    0.1673    1.4033 C   0  0  0  0  0  0  0  0  0  0  0  0
    0.9640    0.4079    2.6652 O   0  0  0  0  0  0  0  0  0  0  0  0
   -0.4097    0.1377    0.7883 C   0  0  0  0  0  0  0  0  0  0  0  0
   -0.5846    0.3415   -0.5554 C   0  0  0  0  0  0  0  0  0  0  0  0
   -1.8696    0.2955   -1.0942 C   0  0  0  0  0  0  0  0  0  0  0  0
   -2.9847    0.0526   -0.3270 C   0  0  0  0  0  0  0  0  0  0  0  0
   -2.7961   -0.1509    1.0299 C   0  0  0  0  0  0  0  0  0  0  0  0
   -1.5218   -0.1071    1.5645 C   0  0  0  0  0  0  0  0  0  0  0  0
   -3.9469   -0.3903    1.7688 O   0  0  0  0  0  0  0  0  0  0  0  0
   -5.1415    0.3527    1.4525 C   0  0  0  0  0  0  0  0  0  0  0  0
   -5.4360    0.2286   -0.0271 C   0  0  0  0  0  0  0  0  0  0  0  0
   -4.2801   -0.0032   -0.8118 O   0  0  0  0  0  0  0  0  0  0  0  0
    2.3483   -0.8528   -0.3608 C   0  0  0  0  0  0  0  0  0  0  0  0
    3.6088   -1.0323   -0.9500 C   0  0  0  0  0  0  0  0  0  0  0  0
   -0.6837    0.0000    0.0000 H   0  0  0  0  0  0  0  0  0  0  0  0
    6.5287    0.2261   -1.3795 H   0  0  0  0  0  0  0  0  0  0  0  0
    6.4130   -1.5272   -1.1555 H   0  0  0  0  0  0  0  0  0  0  0  0
    5.4394    0.9217    1.0969 H   0  0  0  0  0  0  0  0  0  0  0  0
    3.2175    1.2313    2.1147 H   0  0  0  0  0  0  0  0  0  0  0  0
    0.2005    0.5520   -1.2603 H   0  0  0  0  0  0  0  0  0  0  0  0
   -2.0076    0.4582   -2.1581 H   0  0  0  0  0  0  0  0  0  0  0  0
   -1.4391   -0.2700    2.6270 H   0  0  0  0  0  0  0  0  0  0  0  0
   -5.9706   -0.0358    2.0477 H   0  0  0  0  0  0  0  0  0  0  0  0
   -4.9671    1.4444    1.6629 H   0  0  0  0  0  0  0  0  0  0  0  0
   -6.2179   -0.5460   -0.1572 H   0  0  0  0  0  0  0  0  0  0  0  0
   -5.9445    1.1935   -0.3217 H   0  0  0  0  0  0  0  0  0  0  0  0
    1.4795   -1.3630   -0.7549 H   0  0  0  0  0  0  0  0  0  0  0  0
    3.6876   -1.6855   -1.8240 H   0  0  0  0  0  0  0  0  0  0  0  0
  2  3  1  0
  3  4  2  0
  4  5  1  0
  5  6  2  0
  6  7  1  0
  7  8  2  0
  7  9  1  0
  9 10  2  0
 10 11  1  0
 11 12  2  0
 12 13  1  0
 13 14  2  0
 13 15  1  0
 15 16  1  0
 16 17  1  0
 17 18  1  0
  6 19  1  0
 19 20  2  0
 20  3  1  0
 14  9  1  0
 18 12  1  0
  1 21  1  0
  2 22  1  0
  2 23  1  0
  4 24  1  0
  5 25  1  0
 10 26  1  0
 11 27  1  0
 14 28  1  0
 16 29  1  0
 16 30  1  0
 17 31  1  0
 17 32  1  0
 19 33  1  0
 20 34  1  0
M  END
$$$$
