
     RDKit          3D

 49 51  0  0  0  0  0  0  0  0999 V2000
   -5.8095    1.7610    1.2039 C   0  0  0  0  0  0  0  0  0  0  0  0
   -5.8914    0.5852    0.2166 C   0  0  0  0  0  0  0  0  0  0  0  0
   -7.1958    0.7156   -0.5827 C   0  0  0  0  0  0  0  0  0  0  0  0
   -4.6935    0.5705   -0.7725 C   0  0  0  0  0  0  0  0  0  0  0  0
   -3.4731   -0.0206   -0.1304 C   0  0  0  0  0  0  0  0  0  0  0  0
   -3.5936   -0.7612    1.0280 C   0  0  0  0  0  0  0  0  0  0  0  0
   -2.0922   -1.3117    1.6010 S   0  0  0  0  0  0  0  0  0  0  0  0
   -1.2725   -0.6433    0.2609 C   0  0  0  0  0  0  0  0  0  0  0  0
    0.0815   -0.9098    0.2913 N   0  0  0  0  0  0  0  0  0  0  0  0
    0.8321   -1.0382   -0.8549 C   0  0  0  0  0  0  0  0  0  0  0  0
    0.3425   -1.1036   -1.9790 O   0  0  0  0  0  0  0  0  0  0  0  0
    2.2029   -1.1084   -0.6399 N   0  0  0  0  0  0  0  0  0  0  0  0
    2.8675   -0.8082    0.6337 C   0  0  0  0  0  0  0  0  0  0  0  0
    4.3662   -1.1727    0.6318 C   0  0  0  0  0  0  0  0  0  0  0  0
    5.1593   -0.6216   -0.4853 N   0  0  0  0  0  0  0  0  0  0  0  0
    5.9983    0.5214   -0.0928 C   0  0  0  0  0  0  0  0  0  0  0  0
    7.2337    0.1120    0.7218 C   0  0  0  0  0  0  0  0  0  0  0  0
    7.9820    1.2749    1.0678 O   0  0  0  0  0  0  0  0  0  0  0  0
    4.3093   -0.2625   -1.6431 C   0  0  0  0  0  0  0  0  0  0  0  0
    3.0881   -1.1827   -1.8081 C   0  0  0  0  0  0  0  0  0  0  0  0
   -2.1098    0.0669   -0.5755 C   0  0  0  0  0  0  0  0  0  0  0  0
   -1.6976    0.8575   -1.7007 C   0  0  0  0  0  0  0  0  0  0  0  0
   -1.4386    1.5720   -2.5791 N   0  0  0  0  0  0  0  0  0  0  0  0
   -4.8701   -1.0144    1.7596 C   0  0  0  0  0  0  0  0  0  0  0  0
   -5.9837   -0.6776    0.9132 O   0  0  0  0  0  0  0  0  0  0  0  0
   -6.6180    1.7027    1.9415 H   0  0  0  0  0  0  0  0  0  0  0  0
   -5.8830    2.7222    0.6833 H   0  0  0  0  0  0  0  0  0  0  0  0
   -4.8718    1.7638    1.7686 H   0  0  0  0  0  0  0  0  0  0  0  0
   -8.0644    0.7107    0.0861 H   0  0  0  0  0  0  0  0  0  0  0  0
   -7.2176    1.6372   -1.1736 H   0  0  0  0  0  0  0  0  0  0  0  0
   -7.3256   -0.1356   -1.2611 H   0  0  0  0  0  0  0  0  0  0  0  0
   -4.4940    1.5813   -1.1468 H   0  0  0  0  0  0  0  0  0  0  0  0
   -4.9342   -0.0614   -1.6378 H   0  0  0  0  0  0  0  0  0  0  0  0
    0.3870   -1.4583    1.0801 H   0  0  0  0  0  0  0  0  0  0  0  0
    2.3704   -1.3513    1.4428 H   0  0  0  0  0  0  0  0  0  0  0  0
    2.7384    0.2642    0.8242 H   0  0  0  0  0  0  0  0  0  0  0  0
    4.7927   -0.9127    1.6066 H   0  0  0  0  0  0  0  0  0  0  0  0
    4.4430   -2.2654    0.5586 H   0  0  0  0  0  0  0  0  0  0  0  0
    5.4145    1.2736    0.4541 H   0  0  0  0  0  0  0  0  0  0  0  0
    6.3712    1.0351   -0.9896 H   0  0  0  0  0  0  0  0  0  0  0  0
    7.8770   -0.5515    0.1341 H   0  0  0  0  0  0  0  0  0  0  0  0
    6.9593   -0.3973    1.6501 H   0  0  0  0  0  0  0  0  0  0  0  0
    8.7885    0.9665    1.5158 H   0  0  0  0  0  0  0  0  0  0  0  0
    4.9188   -0.3078   -2.5530 H   0  0  0  0  0  0  0  0  0  0  0  0
    3.9440    0.7690   -1.5419 H   0  0  0  0  0  0  0  0  0  0  0  0
    2.5529   -0.9165   -2.7252 H   0  0  0  0  0  0  0  0  0  0  0  0
    3.4069   -2.2276   -1.9057 H   0  0  0  0  0  0  0  0  0  0  0  0
   -4.9272   -0.4268    2.6818 H   0  0  0  0  0  0  0  0  0  0  0  0
   -4.9709   -2.0723    2.0216 H   0  0  0  0  0  0  0  0  0  0  0  0
  1  2  1  0
  2  3  1  0
  2  4  1  0
  4  5  1  0
  5  6  2  0
  6  7  1  0
  7  8  1  0
  8  9  1  0
  9 10  1  0
 10 11  2  0
 10 12  1  0
 12 13  1  0
 13 14  1  0
 14 15  1  0
 15 16  1  0
 16 17  1  0
 17 18  1  0
 15 19  1  0
 19 20  1  0
  8 21  2  0
 21 22  1  0
 22 23  3  0
  6 24  1  0
 24 25  1  0
 25  2  1  0
 21  5  1  0
 20 12  1  0
  1 26  1  0
  1 27  1  0
  1 28  1  0
  3 29  1  0
  3 30  1  0
  3 31  1  0
  4 32  1  0
  4 33  1  0
  9 34  1  0
 13 35  1  0
 13 36  1  0
 14 37  1  0
 14 38  1  0
 16 39  1  0
 16 40  1  0
 17 41  1  0
 17 42  1  0
 18 43  1  0
 19 44  1  0
 19 45  1  0
 20 46  1  0
 20 47  1  0
 24 48  1  0
 24 49  1  0
M  END
$$$$
