
     RDKit          3D

 42 44  0  0  0  0  0  0  0  0999 V2000
    6.2506    3.6812   -1.6695 C   0  0  0  0  0  0  0  0  0  0  0  0
    5.1207    3.1528   -0.9882 O   0  0  0  0  0  0  0  0  0  0  0  0
    4.4860    2.0885   -1.5697 C   0  0  0  0  0  0  0  0  0  0  0  0
    4.7720    1.5505   -2.8224 C   0  0  0  0  0  0  0  0  0  0  0  0
    4.0407    0.4607   -3.2957 C   0  0  0  0  0  0  0  0  0  0  0  0
    3.0197   -0.0936   -2.5194 C   0  0  0  0  0  0  0  0  0  0  0  0
    2.7142    0.4306   -1.2562 C   0  0  0  0  0  0  0  0  0  0  0  0
    1.6528   -0.1586   -0.4471 C   0  0  0  0  0  0  0  0  0  0  0  0
    0.7298   -1.1623   -0.6320 C   0  0  0  0  0  0  0  0  0  0  0  0
    0.0041   -1.2186    0.5844 C   0  0  0  0  0  0  0  0  0  0  0  0
   -1.0520   -2.1629    0.9448 C   0  0  0  0  0  0  0  0  0  0  0  0
   -0.7739   -3.2303    1.4906 O   0  0  0  0  0  0  0  0  0  0  0  0
   -2.3728   -1.8055    0.6092 N   0  0  0  0  0  0  0  0  0  0  0  0
   -3.4469   -2.6736    1.0751 C   0  0  0  0  0  0  0  0  0  0  0  0
   -4.0986   -2.1603    2.3611 C   0  0  0  0  0  0  0  0  0  0  0  0
   -5.0590   -0.9987    2.1054 C   0  0  0  0  0  0  0  0  0  0  0  0
   -4.4320    0.3844    1.9174 C   0  0  0  0  0  0  0  0  0  0  0  0
   -3.0173    0.4675    1.3487 C   0  0  0  0  0  0  0  0  0  0  0  0
   -2.7565   -0.4626    0.1679 C   0  0  0  0  0  0  0  0  0  0  0  0
    0.4707   -0.3210    1.4638 N   0  0  0  0  0  0  0  0  0  0  0  0
    1.4872    0.3500    0.8086 O   0  0  0  0  0  0  0  0  0  0  0  0
    3.4602    1.5284   -0.7990 C   0  0  0  0  0  0  0  0  0  0  0  0
    5.9620    4.1167   -2.6310 H   0  0  0  0  0  0  0  0  0  0  0  0
    6.6677    4.4835   -1.0533 H   0  0  0  0  0  0  0  0  0  0  0  0
    7.0259    2.9191   -1.7997 H   0  0  0  0  0  0  0  0  0  0  0  0
    5.5533    1.9573   -3.4543 H   0  0  0  0  0  0  0  0  0  0  0  0
    4.2659    0.0408   -4.2733 H   0  0  0  0  0  0  0  0  0  0  0  0
    2.4718   -0.9459   -2.9169 H   0  0  0  0  0  0  0  0  0  0  0  0
    0.5970   -1.7851   -1.5033 H   0  0  0  0  0  0  0  0  0  0  0  0
   -3.0587   -3.6798    1.2600 H   0  0  0  0  0  0  0  0  0  0  0  0
   -4.1841   -2.7642    0.2677 H   0  0  0  0  0  0  0  0  0  0  0  0
   -3.3444   -1.8844    3.1088 H   0  0  0  0  0  0  0  0  0  0  0  0
   -4.6853   -2.9847    2.7877 H   0  0  0  0  0  0  0  0  0  0  0  0
   -5.7545   -0.9324    2.9505 H   0  0  0  0  0  0  0  0  0  0  0  0
   -5.6842   -1.2295    1.2320 H   0  0  0  0  0  0  0  0  0  0  0  0
   -4.4426    0.9120    2.8817 H   0  0  0  0  0  0  0  0  0  0  0  0
   -5.1035    0.9672    1.2716 H   0  0  0  0  0  0  0  0  0  0  0  0
   -2.8546    1.5022    1.0233 H   0  0  0  0  0  0  0  0  0  0  0  0
   -2.2959    0.2818    2.1527 H   0  0  0  0  0  0  0  0  0  0  0  0
   -3.6344   -0.5444   -0.4856 H   0  0  0  0  0  0  0  0  0  0  0  0
   -1.9560   -0.0422   -0.4470 H   0  0  0  0  0  0  0  0  0  0  0  0
    3.2550    1.9653    0.1769 H   0  0  0  0  0  0  0  0  0  0  0  0
  1  2  1  0
  2  3  1  0
  3  4  2  0
  4  5  1  0
  5  6  2  0
  6  7  1  0
  7  8  1  0
  8  9  2  0
  9 10  1  0
 10 11  1  0
 11 12  2  0
 11 13  1  0
 13 14  1  0
 14 15  1  0
 15 16  1  0
 16 17  1  0
 17 18  1  0
 18 19  1  0
 10 20  2  0
 20 21  1  0
  7 22  2  0
 22  3  1  0
 21  8  1  0
 19 13  1  0
  1 23  1  0
  1 24  1  0
  1 25  1  0
  4 26  1  0
  5 27  1  0
  6 28  1  0
  9 29  1  0
 14 30  1  0
 14 31  1  0
 15 32  1  0
 15 33  1  0
 16 34  1  0
 16 35  1  0
 17 36  1  0
 17 37  1  0
 18 38  1  0
 18 39  1  0
 19 40  1  0
 19 41  1  0
 22 42  1  0
M  END
$$$$
