
     RDKit          3D

 53 55  0  0  0  0  0  0  0  0999 V2000
    6.1038   -2.1801   -1.2788 C   0  0  0  0  0  0  0  0  0  0  0  0
    5.1034   -1.2416   -0.9010 O   0  0  0  0  0  0  0  0  0  0  0  0
    5.4640   -0.2754    0.0103 C   0  0  0  0  0  0  0  0  0  0  0  0
    6.7273   -0.1626    0.5982 C   0  0  0  0  0  0  0  0  0  0  0  0
    6.9819    0.8596    1.5155 C   0  0  0  0  0  0  0  0  0  0  0  0
    5.9756    1.7640    1.8475 C   0  0  0  0  0  0  0  0  0  0  0  0
    6.3018    3.0114    2.9887 Cl  0  0  0  0  0  0  0  0  0  0  0  0
    4.7111    1.6636    1.2701 C   0  0  0  0  0  0  0  0  0  0  0  0
    4.4502    0.6512    0.3434 C   0  0  0  0  0  0  0  0  0  0  0  0
    3.1923    0.4728   -0.2764 N   0  0  0  0  0  0  0  0  0  0  0  0
    2.1414    1.3553   -0.3248 C   0  0  0  0  0  0  0  0  0  0  0  0
    2.1990    2.5222    0.0550 O   0  0  0  0  0  0  0  0  0  0  0  0
    0.9754    0.8249   -0.8849 N   0  0  0  0  0  0  0  0  0  0  0  0
   -0.1816    1.7297   -0.9351 C   0  0  0  0  0  0  0  0  0  0  0  0
   -1.2392    1.2863   -1.9615 C   0  0  0  0  0  0  0  0  0  0  0  0
   -1.6384   -0.1253   -1.7626 N   0  0  0  0  0  0  0  0  0  0  0  0
   -2.5612   -0.3448   -0.7247 C   0  0  0  0  0  0  0  0  0  0  0  0
   -3.7838    0.3054   -0.7338 C   0  0  0  0  0  0  0  0  0  0  0  0
   -4.6814    0.0602    0.2932 C   0  0  0  0  0  0  0  0  0  0  0  0
   -5.9308    0.7235    0.3046 N   0  0  0  0  0  0  0  0  0  0  0  0
   -6.7418    0.4143   -0.8745 C   0  0  0  0  0  0  0  0  0  0  0  0
   -6.6445    0.5687    1.5736 C   0  0  0  0  0  0  0  0  0  0  0  0
   -4.3609   -0.7766    1.2916 N   0  0  0  0  0  0  0  0  0  0  0  0
   -3.1670   -1.3847    1.2300 C   0  0  0  0  0  0  0  0  0  0  0  0
   -2.8308   -2.3549    2.3180 C   0  0  0  0  0  0  0  0  0  0  0  0
   -2.2666   -1.2205    0.2475 N   0  0  0  0  0  0  0  0  0  0  0  0
   -0.4718   -1.0335   -1.7622 C   0  0  0  0  0  0  0  0  0  0  0  0
    0.6174   -0.6015   -0.7596 C   0  0  0  0  0  0  0  0  0  0  0  0
    6.4313   -2.7746   -0.4197 H   0  0  0  0  0  0  0  0  0  0  0  0
    6.9496   -1.6819   -1.7639 H   0  0  0  0  0  0  0  0  0  0  0  0
    5.6596   -2.8655   -2.0071 H   0  0  0  0  0  0  0  0  0  0  0  0
    7.5343   -0.8497    0.3677 H   0  0  0  0  0  0  0  0  0  0  0  0
    7.9659    0.9439    1.9699 H   0  0  0  0  0  0  0  0  0  0  0  0
    3.9439    2.3746    1.5594 H   0  0  0  0  0  0  0  0  0  0  0  0
    3.1835   -0.2762   -0.9545 H   0  0  0  0  0  0  0  0  0  0  0  0
    0.1524    2.7427   -1.1871 H   0  0  0  0  0  0  0  0  0  0  0  0
   -0.6122    1.7660    0.0733 H   0  0  0  0  0  0  0  0  0  0  0  0
   -2.0914    1.9739   -1.9430 H   0  0  0  0  0  0  0  0  0  0  0  0
   -0.8085    1.3696   -2.9679 H   0  0  0  0  0  0  0  0  0  0  0  0
   -4.0384    0.9911   -1.5294 H   0  0  0  0  0  0  0  0  0  0  0  0
   -7.7117    0.9201   -0.8064 H   0  0  0  0  0  0  0  0  0  0  0  0
   -6.9296   -0.6626   -0.9595 H   0  0  0  0  0  0  0  0  0  0  0  0
   -6.2741    0.7685   -1.7989 H   0  0  0  0  0  0  0  0  0  0  0  0
   -7.5485    1.1882    1.5676 H   0  0  0  0  0  0  0  0  0  0  0  0
   -6.0356    0.9133    2.4177 H   0  0  0  0  0  0  0  0  0  0  0  0
   -6.9528   -0.4694    1.7457 H   0  0  0  0  0  0  0  0  0  0  0  0
   -3.1809   -3.3537    2.0426 H   0  0  0  0  0  0  0  0  0  0  0  0
   -1.7491   -2.3922    2.4800 H   0  0  0  0  0  0  0  0  0  0  0  0
   -3.3072   -2.0604    3.2581 H   0  0  0  0  0  0  0  0  0  0  0  0
   -0.7672   -2.0765   -1.5933 H   0  0  0  0  0  0  0  0  0  0  0  0
   -0.0388   -1.0086   -2.7710 H   0  0  0  0  0  0  0  0  0  0  0  0
    0.2891   -0.7515    0.2751 H   0  0  0  0  0  0  0  0  0  0  0  0
    1.4916   -1.2408   -0.9045 H   0  0  0  0  0  0  0  0  0  0  0  0
  1  2  1  0
  2  3  1  0
  3  4  2  0
  4  5  1  0
  5  6  2  0
  6  7  1  0
  6  8  1  0
  8  9  2  0
  9 10  1  0
 10 11  1  0
 11 12  2  0
 11 13  1  0
 13 14  1  0
 14 15  1  0
 15 16  1  0
 16 17  1  0
 17 18  2  0
 18 19  1  0
 19 20  1  0
 20 21  1  0
 20 22  1  0
 19 23  2  0
 23 24  1  0
 24 25  1  0
 24 26  2  0
 16 27  1  0
 27 28  1  0
  9  3  1  0
 28 13  1  0
 26 17  1  0
  1 29  1  0
  1 30  1  0
  1 31  1  0
  4 32  1  0
  5 33  1  0
  8 34  1  0
 10 35  1  0
 14 36  1  0
 14 37  1  0
 15 38  1  0
 15 39  1  0
 18 40  1  0
 21 41  1  0
 21 42  1  0
 21 43  1  0
 22 44  1  0
 22 45  1  0
 22 46  1  0
 25 47  1  0
 25 48  1  0
 25 49  1  0
 27 50  1  0
 27 51  1  0
 28 52  1  0
 28 53  1  0
M  END
$$$$
