
     RDKit          3D

 33 35  0  0  0  0  0  0  0  0999 V2000
   -3.9581    2.5926   -0.5881 C   0  0  0  0  0  0  0  0  0  0  0  0
   -4.2274    1.1976   -0.6720 O   0  0  0  0  0  0  0  0  0  0  0  0
   -3.1697    0.3514   -0.4802 C   0  0  0  0  0  0  0  0  0  0  0  0
   -3.5105   -0.9967   -0.4047 C   0  0  0  0  0  0  0  0  0  0  0  0
   -2.5287   -1.9629   -0.1916 C   0  0  0  0  0  0  0  0  0  0  0  0
   -1.1839   -1.5890   -0.0838 C   0  0  0  0  0  0  0  0  0  0  0  0
   -0.2356   -2.5084    0.2932 O   0  0  0  0  0  0  0  0  0  0  0  0
   -0.2774   -3.7191   -0.4616 C   0  0  0  0  0  0  0  0  0  0  0  0
   -0.8124   -0.2330   -0.1834 C   0  0  0  0  0  0  0  0  0  0  0  0
    0.5474    0.1832   -0.0992 N   0  0  0  0  0  0  0  0  0  0  0  0
    1.6158   -0.5163   -0.6211 C   0  0  0  0  0  0  0  0  0  0  0  0
    1.6806   -1.5059   -1.3291 O   0  0  0  0  0  0  0  0  0  0  0  0
    2.8139    0.2440   -0.3060 C   0  0  0  0  0  0  0  0  0  0  0  0
    4.1495    0.0025   -0.5502 C   0  0  0  0  0  0  0  0  0  0  0  0
    5.0516    0.9835   -0.1327 C   0  0  0  0  0  0  0  0  0  0  0  0
    4.5639    2.1395    0.4903 C   0  0  0  0  0  0  0  0  0  0  0  0
    3.2514    2.3843    0.7233 N   0  0  0  0  0  0  0  0  0  0  0  0
    2.4269    1.4051    0.3062 C   0  0  0  0  0  0  0  0  0  0  0  0
    0.9638    1.3966    0.4152 C   0  0  0  0  0  0  0  0  0  0  0  0
    0.3152    2.3124    0.8919 O   0  0  0  0  0  0  0  0  0  0  0  0
   -1.8283    0.7264   -0.3667 C   0  0  0  0  0  0  0  0  0  0  0  0
   -4.9115    3.1222   -0.6778 H   0  0  0  0  0  0  0  0  0  0  0  0
   -3.5206    2.8561    0.3807 H   0  0  0  0  0  0  0  0  0  0  0  0
   -3.3182    2.9181   -1.4146 H   0  0  0  0  0  0  0  0  0  0  0  0
   -4.5535   -1.2945   -0.4826 H   0  0  0  0  0  0  0  0  0  0  0  0
   -2.8361   -2.9966   -0.0688 H   0  0  0  0  0  0  0  0  0  0  0  0
   -1.0254   -4.4023   -0.0477 H   0  0  0  0  0  0  0  0  0  0  0  0
   -0.4665   -3.5351   -1.5253 H   0  0  0  0  0  0  0  0  0  0  0  0
    0.7004   -4.2019   -0.3718 H   0  0  0  0  0  0  0  0  0  0  0  0
    4.4776   -0.9051   -1.0458 H   0  0  0  0  0  0  0  0  0  0  0  0
    6.1191    0.8585   -0.2902 H   0  0  0  0  0  0  0  0  0  0  0  0
    5.2451    2.9196    0.8237 H   0  0  0  0  0  0  0  0  0  0  0  0
   -1.5581    1.7731   -0.4556 H   0  0  0  0  0  0  0  0  0  0  0  0
  1  2  1  0
  2  3  1  0
  3  4  2  0
  4  5  1  0
  5  6  2  0
  6  7  1  0
  7  8  1  0
  6  9  1  0
  9 10  1  0
 10 11  1  0
 11 12  2  0
 11 13  1  0
 13 14  2  0
 14 15  1  0
 15 16  2  0
 16 17  1  0
 17 18  2  0
 18 19  1  0
 19 20  2  0
  9 21  2  0
 21  3  1  0
 19 10  1  0
 18 13  1  0
  1 22  1  0
  1 23  1  0
  1 24  1  0
  4 25  1  0
  5 26  1  0
  8 27  1  0
  8 28  1  0
  8 29  1  0
 14 30  1  0
 15 31  1  0
 16 32  1  0
 21 33  1  0
M  END
$$$$
