
     RDKit          3D

 40 41  0  0  0  0  0  0  0  0999 V2000
   -4.2433    2.2898   -0.5063 C   0  0  0  0  0  0  0  0  0  0  0  0
   -4.4764    0.7835   -0.4153 C   0  0  0  0  0  0  0  0  0  0  0  0
   -5.5098    0.4612    0.6594 C   0  0  0  0  0  0  0  0  0  0  0  0
   -3.2258    0.0919   -0.1346 N   0  0  0  0  0  0  0  0  0  0  0  0
   -2.3297   -0.2231   -1.1345 C   0  0  0  0  0  0  0  0  0  0  0  0
   -2.5322   -0.0176   -2.3251 O   0  0  0  0  0  0  0  0  0  0  0  0
   -1.0624   -0.8686   -0.7016 C   0  0  0  0  0  0  0  0  0  0  0  0
   -0.4657   -1.8061   -1.5559 C   0  0  0  0  0  0  0  0  0  0  0  0
    0.7223   -2.4422   -1.1883 C   0  0  0  0  0  0  0  0  0  0  0  0
    1.3305   -2.1320    0.0270 C   0  0  0  0  0  0  0  0  0  0  0  0
    0.7546   -1.1663    0.8585 C   0  0  0  0  0  0  0  0  0  0  0  0
    1.5283   -0.7555    2.4076 S   0  0  0  0  0  6  0  0  0  0  0  0
    0.4805   -0.2846    3.2903 O   0  0  0  0  0  0  0  0  0  0  0  0
    2.3872   -1.8559    2.7866 O   0  0  0  0  0  0  0  0  0  0  0  0
    2.4612    0.5958    2.0233 N   0  0  0  0  0  0  0  0  0  0  0  0
    3.4006    0.5190    0.9587 C   0  0  0  0  0  0  0  0  0  0  0  0
    4.4991   -0.3367    1.0332 C   0  0  0  0  0  0  0  0  0  0  0  0
    5.3890   -0.4233   -0.0384 C   0  0  0  0  0  0  0  0  0  0  0  0
    5.1793    0.3446   -1.1833 C   0  0  0  0  0  0  0  0  0  0  0  0
    4.0820    1.2022   -1.2568 C   0  0  0  0  0  0  0  0  0  0  0  0
    3.1920    1.2915   -0.1850 C   0  0  0  0  0  0  0  0  0  0  0  0
   -0.4464   -0.5384    0.5095 C   0  0  0  0  0  0  0  0  0  0  0  0
   -3.5260    2.5296   -1.2985 H   0  0  0  0  0  0  0  0  0  0  0  0
   -5.1771    2.8171   -0.7268 H   0  0  0  0  0  0  0  0  0  0  0  0
   -3.8399    2.6854    0.4326 H   0  0  0  0  0  0  0  0  0  0  0  0
   -4.8529    0.4294   -1.3824 H   0  0  0  0  0  0  0  0  0  0  0  0
   -6.4653    0.9500    0.4430 H   0  0  0  0  0  0  0  0  0  0  0  0
   -5.6860   -0.6186    0.7150 H   0  0  0  0  0  0  0  0  0  0  0  0
   -5.1728    0.7915    1.6483 H   0  0  0  0  0  0  0  0  0  0  0  0
   -3.0194   -0.1488    0.8256 H   0  0  0  0  0  0  0  0  0  0  0  0
   -0.9341   -2.0485   -2.5088 H   0  0  0  0  0  0  0  0  0  0  0  0
    1.1720   -3.1779   -1.8514 H   0  0  0  0  0  0  0  0  0  0  0  0
    2.2552   -2.6315    0.3102 H   0  0  0  0  0  0  0  0  0  0  0  0
    1.9541    1.4695    2.1493 H   0  0  0  0  0  0  0  0  0  0  0  0
    4.6772   -0.9343    1.9241 H   0  0  0  0  0  0  0  0  0  0  0  0
    6.2465   -1.0890    0.0220 H   0  0  0  0  0  0  0  0  0  0  0  0
    5.8728    0.2759   -2.0181 H   0  0  0  0  0  0  0  0  0  0  0  0
    3.9188    1.7993   -2.1507 H   0  0  0  0  0  0  0  0  0  0  0  0
    2.3376    1.9576   -0.2617 H   0  0  0  0  0  0  0  0  0  0  0  0
   -0.8755    0.2141    1.1650 H   0  0  0  0  0  0  0  0  0  0  0  0
  1  2  1  0
  2  3  1  0
  2  4  1  0
  4  5  1  0
  5  6  2  0
  5  7  1  0
  7  8  2  0
  8  9  1  0
  9 10  2  0
 10 11  1  0
 11 12  1  0
 12 13  2  0
 12 14  2  0
 12 15  1  0
 15 16  1  0
 16 17  2  0
 17 18  1  0
 18 19  2  0
 19 20  1  0
 20 21  2  0
 11 22  2  0
 22  7  1  0
 21 16  1  0
  1 23  1  0
  1 24  1  0
  1 25  1  0
  2 26  1  0
  3 27  1  0
  3 28  1  0
  3 29  1  0
  4 30  1  0
  8 31  1  0
  9 32  1  0
 10 33  1  0
 15 34  1  0
 17 35  1  0
 18 36  1  0
 19 37  1  0
 20 38  1  0
 21 39  1  0
 22 40  1  0
M  END
$$$$
