
     RDKit          3D

 49 52  0  0  0  0  0  0  0  0999 V2000
   -5.6835    2.2164    1.9945 C   0  0  0  0  0  0  0  0  0  0  0  0
   -4.8512    1.3500    1.2328 O   0  0  0  0  0  0  0  0  0  0  0  0
   -5.4764    0.3473    0.5256 C   0  0  0  0  0  0  0  0  0  0  0  0
   -6.8535    0.1051    0.5276 C   0  0  0  0  0  0  0  0  0  0  0  0
   -7.3815   -0.9453   -0.2263 C   0  0  0  0  0  0  0  0  0  0  0  0
   -6.5389   -1.7583   -0.9799 C   0  0  0  0  0  0  0  0  0  0  0  0
   -5.1625   -1.5253   -0.9878 C   0  0  0  0  0  0  0  0  0  0  0  0
   -4.6236   -0.4721   -0.2458 C   0  0  0  0  0  0  0  0  0  0  0  0
   -3.2408   -0.1866   -0.1948 N   0  0  0  0  0  0  0  0  0  0  0  0
   -2.2465   -0.6618   -1.0129 C   0  0  0  0  0  0  0  0  0  0  0  0
   -2.4344   -1.3200   -2.0331 O   0  0  0  0  0  0  0  0  0  0  0  0
   -0.9569   -0.3056   -0.6040 N   0  0  0  0  0  0  0  0  0  0  0  0
   -0.5962   -0.1618    0.8175 C   0  0  0  0  0  0  0  0  0  0  0  0
    0.7153    0.6188    1.0180 C   0  0  0  0  0  0  0  0  0  0  0  0
    1.8017    0.0195    0.2093 N   0  0  0  0  0  0  0  0  0  0  0  0
    3.0529    0.6346    0.4396 C   0  0  0  0  0  0  0  0  0  0  0  0
    4.2030   -0.0008   -0.0039 C   0  0  0  0  0  0  0  0  0  0  0  0
    5.4135    0.6200    0.2475 C   0  0  0  0  0  0  0  0  0  0  0  0
    6.6370    0.0100   -0.1853 N   0  0  0  0  0  0  0  0  0  0  0  0
    6.8102   -1.1868   -0.8589 C   0  0  0  0  0  0  0  0  0  0  0  0
    8.1605   -1.3515   -1.0593 C   0  0  0  0  0  0  0  0  0  0  0  0
    8.7422   -0.2161   -0.4819 C   0  0  0  0  0  0  0  0  0  0  0  0
    7.8393    0.6089    0.0448 N   0  0  0  0  0  0  0  0  0  0  0  0
    5.4880    1.8012    0.9005 N   0  0  0  0  0  0  0  0  0  0  0  0
    4.3306    2.3255    1.3044 C   0  0  0  0  0  0  0  0  0  0  0  0
    3.1160    1.7962    1.1107 N   0  0  0  0  0  0  0  0  0  0  0  0
    1.4538   -0.0124   -1.2313 C   0  0  0  0  0  0  0  0  0  0  0  0
    0.1411   -0.7846   -1.4508 C   0  0  0  0  0  0  0  0  0  0  0  0
   -6.2077    1.6669    2.7832 H   0  0  0  0  0  0  0  0  0  0  0  0
   -5.0392    2.9570    2.4780 H   0  0  0  0  0  0  0  0  0  0  0  0
   -6.3858    2.7566    1.3512 H   0  0  0  0  0  0  0  0  0  0  0  0
   -7.5439    0.7117    1.1034 H   0  0  0  0  0  0  0  0  0  0  0  0
   -8.4527   -1.1313   -0.2239 H   0  0  0  0  0  0  0  0  0  0  0  0
   -6.9495   -2.5785   -1.5637 H   0  0  0  0  0  0  0  0  0  0  0  0
   -4.5317   -2.1847   -1.5760 H   0  0  0  0  0  0  0  0  0  0  0  0
   -3.0263    0.6405    0.3446 H   0  0  0  0  0  0  0  0  0  0  0  0
   -1.3907    0.3287    1.3847 H   0  0  0  0  0  0  0  0  0  0  0  0
   -0.4950   -1.1776    1.2202 H   0  0  0  0  0  0  0  0  0  0  0  0
    0.9708    0.5910    2.0847 H   0  0  0  0  0  0  0  0  0  0  0  0
    0.5503    1.6648    0.7255 H   0  0  0  0  0  0  0  0  0  0  0  0
    4.1211   -0.9562   -0.5005 H   0  0  0  0  0  0  0  0  0  0  0  0
    5.9814   -1.8186   -1.1368 H   0  0  0  0  0  0  0  0  0  0  0  0
    8.6535   -2.1771   -1.5526 H   0  0  0  0  0  0  0  0  0  0  0  0
    9.7901    0.0493   -0.4206 H   0  0  0  0  0  0  0  0  0  0  0  0
    4.3777    3.2676    1.8390 H   0  0  0  0  0  0  0  0  0  0  0  0
    2.2365   -0.5016   -1.8226 H   0  0  0  0  0  0  0  0  0  0  0  0
    1.3395    1.0132   -1.6078 H   0  0  0  0  0  0  0  0  0  0  0  0
   -0.1446   -0.7117   -2.5064 H   0  0  0  0  0  0  0  0  0  0  0  0
    0.2872   -1.8476   -1.2201 H   0  0  0  0  0  0  0  0  0  0  0  0
  1  2  1  0
  2  3  1  0
  3  4  2  0
  4  5  1  0
  5  6  2  0
  6  7  1  0
  7  8  2  0
  8  9  1  0
  9 10  1  0
 10 11  2  0
 10 12  1  0
 12 13  1  0
 13 14  1  0
 14 15  1  0
 15 16  1  0
 16 17  2  0
 17 18  1  0
 18 19  1  0
 19 20  1  0
 20 21  2  0
 21 22  1  0
 22 23  2  0
 18 24  2  0
 24 25  1  0
 25 26  2  0
 15 27  1  0
 27 28  1  0
  8  3  1  0
 28 12  1  0
 26 16  1  0
 23 19  1  0
  1 29  1  0
  1 30  1  0
  1 31  1  0
  4 32  1  0
  5 33  1  0
  6 34  1  0
  7 35  1  0
  9 36  1  0
 13 37  1  0
 13 38  1  0
 14 39  1  0
 14 40  1  0
 17 41  1  0
 20 42  1  0
 21 43  1  0
 22 44  1  0
 25 45  1  0
 27 46  1  0
 27 47  1  0
 28 48  1  0
 28 49  1  0
M  END
$$$$
