
     RDKit          3D

 33 34  0  0  0  0  0  0  0  0999 V2000
   -2.4543    2.3896    0.6892 C   0  0  0  0  0  0  0  0  0  0  0  0
   -1.2014    1.6988    0.7248 O   0  0  0  0  0  0  0  0  0  0  0  0
   -1.2590    0.5409   -0.0060 C   0  0  0  0  0  0  0  0  0  0  0  0
   -2.0194   -0.5361    0.4601 C   0  0  0  0  0  0  0  0  0  0  0  0
   -2.0331   -1.7513   -0.2389 C   0  0  0  0  0  0  0  0  0  0  0  0
   -2.8804   -2.8937    0.2403 C   0  0  0  0  0  0  0  0  0  0  0  0
   -1.2843   -1.8733   -1.4164 C   0  0  0  0  0  0  0  0  0  0  0  0
   -0.5062   -0.8084   -1.8745 C   0  0  0  0  0  0  0  0  0  0  0  0
   -0.4886    0.3940   -1.1610 C   0  0  0  0  0  0  0  0  0  0  0  0
    0.5058    1.7395   -1.7459 S   0  0  0  0  0  6  0  0  0  0  0  0
    1.2868    1.2703   -2.8717 O   0  0  0  0  0  0  0  0  0  0  0  0
   -0.3554    2.8964   -1.8763 O   0  0  0  0  0  0  0  0  0  0  0  0
    1.5572    2.0424   -0.4492 N   0  0  0  0  0  0  0  0  0  0  0  0
    2.3750    0.9662    0.0155 C   0  0  0  0  0  0  0  0  0  0  0  0
    2.2368    0.5243    1.3292 C   0  0  0  0  0  0  0  0  0  0  0  0
    3.0226   -0.5330    1.7836 C   0  0  0  0  0  0  0  0  0  0  0  0
    3.9269   -1.1079    0.9047 C   0  0  0  0  0  0  0  0  0  0  0  0
    4.0950   -0.6992   -0.3708 N   0  0  0  0  0  0  0  0  0  0  0  0
    3.3186    0.3321   -0.7871 C   0  0  0  0  0  0  0  0  0  0  0  0
   -2.8628    2.4404   -0.3266 H   0  0  0  0  0  0  0  0  0  0  0  0
   -3.1735    1.9197    1.3677 H   0  0  0  0  0  0  0  0  0  0  0  0
   -2.2802    3.4124    1.0366 H   0  0  0  0  0  0  0  0  0  0  0  0
   -2.5911   -0.4366    1.3796 H   0  0  0  0  0  0  0  0  0  0  0  0
   -3.8742   -2.8382   -0.2145 H   0  0  0  0  0  0  0  0  0  0  0  0
   -2.9879   -2.8710    1.3298 H   0  0  0  0  0  0  0  0  0  0  0  0
   -2.4236   -3.8542   -0.0203 H   0  0  0  0  0  0  0  0  0  0  0  0
   -1.2948   -2.8043   -1.9809 H   0  0  0  0  0  0  0  0  0  0  0  0
    0.0808   -0.9279   -2.7831 H   0  0  0  0  0  0  0  0  0  0  0  0
    1.0609    2.5767    0.2657 H   0  0  0  0  0  0  0  0  0  0  0  0
    1.5176    0.9829    2.0014 H   0  0  0  0  0  0  0  0  0  0  0  0
    2.9303   -0.9015    2.7992 H   0  0  0  0  0  0  0  0  0  0  0  0
    4.5601   -1.9353    1.2130 H   0  0  0  0  0  0  0  0  0  0  0  0
    3.4959    0.6455   -1.8121 H   0  0  0  0  0  0  0  0  0  0  0  0
  1  2  1  0
  2  3  1  0
  3  4  2  0
  4  5  1  0
  5  6  1  0
  5  7  2  0
  7  8  1  0
  8  9  2  0
  9 10  1  0
 10 11  2  0
 10 12  2  0
 10 13  1  0
 13 14  1  0
 14 15  2  0
 15 16  1  0
 16 17  2  0
 17 18  1  0
 18 19  2  0
  9  3  1  0
 19 14  1  0
  1 20  1  0
  1 21  1  0
  1 22  1  0
  4 23  1  0
  6 24  1  0
  6 25  1  0
  6 26  1  0
  7 27  1  0
  8 28  1  0
 13 29  1  0
 15 30  1  0
 16 31  1  0
 17 32  1  0
 19 33  1  0
M  END
$$$$
