
     RDKit          3D

 28 29  0  0  0  0  0  0  0  0999 V2000
   -2.8423    0.1114    1.3197 O   0  0  0  0  0  0  0  0  0  0  0  0
   -1.7595    0.4322    0.8406 C   0  0  0  0  0  0  0  0  0  0  0  0
   -0.5608    0.0550    1.3977 N   0  0  0  0  0  0  0  0  0  0  0  0
   -0.5167   -0.9062    2.4620 C   0  0  0  0  0  0  0  0  0  0  0  0
    1.1340   -0.9833    3.1746 S   0  0  0  0  0  0  0  0  0  0  0  0
    1.9840   -1.7098    1.8583 C   0  0  0  0  0  0  0  0  0  0  0  0
    1.9196   -1.2560    0.6493 N   0  0  0  0  0  0  0  0  0  0  0  0
    2.8248   -2.0587   -0.2031 C   0  0  0  0  0  0  0  0  0  0  0  0
    3.0298   -3.4386    0.4033 C   0  0  0  0  0  0  0  0  0  0  0  0
    2.9684   -3.1054    2.1712 S   0  0  0  0  0  0  0  0  0  0  0  0
   -1.7009    1.2746   -0.3885 C   0  0  0  0  0  0  0  0  0  0  0  0
   -2.8059    2.0862   -0.6807 C   0  0  0  0  0  0  0  0  0  0  0  0
   -2.8077    2.8947   -1.8189 C   0  0  0  0  0  0  0  0  0  0  0  0
   -1.7093    2.8911   -2.6765 C   0  0  0  0  0  0  0  0  0  0  0  0
   -0.6119    2.0756   -2.4018 C   0  0  0  0  0  0  0  0  0  0  0  0
   -0.6058    1.2648   -1.2630 C   0  0  0  0  0  0  0  0  0  0  0  0
    0.3140    0.2217    0.9180 H   0  0  0  0  0  0  0  0  0  0  0  0
   -0.8179   -1.8831    2.0692 H   0  0  0  0  0  0  0  0  0  0  0  0
   -1.2332   -0.6163    3.2371 H   0  0  0  0  0  0  0  0  0  0  0  0
    3.7790   -1.5267   -0.3051 H   0  0  0  0  0  0  0  0  0  0  0  0
    2.3962   -2.1497   -1.2069 H   0  0  0  0  0  0  0  0  0  0  0  0
    2.2050   -4.1073    0.1380 H   0  0  0  0  0  0  0  0  0  0  0  0
    3.9755   -3.8926    0.0969 H   0  0  0  0  0  0  0  0  0  0  0  0
   -3.6688    2.0924   -0.0172 H   0  0  0  0  0  0  0  0  0  0  0  0
   -3.6674    3.5241   -2.0351 H   0  0  0  0  0  0  0  0  0  0  0  0
   -1.7117    3.5193   -3.5640 H   0  0  0  0  0  0  0  0  0  0  0  0
    0.2383    2.0656   -3.0796 H   0  0  0  0  0  0  0  0  0  0  0  0
    0.2511    0.6197   -1.0955 H   0  0  0  0  0  0  0  0  0  0  0  0
  1  2  2  0
  2  3  1  0
  3  4  1  0
  4  5  1  0
  5  6  1  0
  6  7  2  0
  7  8  1  0
  8  9  1  0
  9 10  1  0
  2 11  1  0
 11 12  2  0
 12 13  1  0
 13 14  2  0
 14 15  1  0
 15 16  2  0
 10  6  1  0
 16 11  1  0
  3 17  1  0
  4 18  1  0
  4 19  1  0
  8 20  1  0
  8 21  1  0
  9 22  1  0
  9 23  1  0
 12 24  1  0
 13 25  1  0
 14 26  1  0
 15 27  1  0
 16 28  1  0
M  END
$$$$
