
     RDKit          3D

 38 39  0  0  0  0  0  0  0  0999 V2000
    5.8965    2.1576   -1.2343 C   0  0  0  0  0  0  0  0  0  0  0  0
    5.8388    1.4586    0.0023 O   0  0  0  0  0  0  0  0  0  0  0  0
    4.7132    0.7235    0.2541 C   0  0  0  0  0  0  0  0  0  0  0  0
    4.7361    0.0227    1.4595 C   0  0  0  0  0  0  0  0  0  0  0  0
    3.6518   -0.7661    1.8372 C   0  0  0  0  0  0  0  0  0  0  0  0
    2.5310   -0.8593    1.0097 C   0  0  0  0  0  0  0  0  0  0  0  0
    2.4885   -0.1636   -0.1999 C   0  0  0  0  0  0  0  0  0  0  0  0
    1.3945   -0.2009   -1.0915 N   0  0  0  0  0  0  0  0  0  0  0  0
    0.2259   -0.9065   -0.9632 C   0  0  0  0  0  0  0  0  0  0  0  0
   -0.0786   -1.6447   -0.0431 O   0  0  0  0  0  0  0  0  0  0  0  0
   -0.6292   -0.6726   -2.0336 N   0  0  0  0  0  0  0  0  0  0  0  0
   -2.1124   -1.3930   -2.2442 S   0  0  0  0  0  6  0  0  0  0  0  0
   -2.6499   -0.7834   -3.4454 O   0  0  0  0  0  0  0  0  0  0  0  0
   -1.9746   -2.8282   -2.1488 O   0  0  0  0  0  0  0  0  0  0  0  0
   -3.0686   -0.7950   -0.8757 C   0  0  0  0  0  0  0  0  0  0  0  0
   -3.1967   -1.5744    0.2754 C   0  0  0  0  0  0  0  0  0  0  0  0
   -3.9756   -1.1121    1.3375 C   0  0  0  0  0  0  0  0  0  0  0  0
   -4.6462    0.1157    1.2462 C   0  0  0  0  0  0  0  0  0  0  0  0
   -5.4634    0.6098    2.4040 C   0  0  0  0  0  0  0  0  0  0  0  0
   -4.5155    0.8844    0.0819 C   0  0  0  0  0  0  0  0  0  0  0  0
   -3.7362    0.4285   -0.9832 C   0  0  0  0  0  0  0  0  0  0  0  0
    3.5883    0.6295   -0.5709 C   0  0  0  0  0  0  0  0  0  0  0  0
    6.8622    2.6698   -1.2848 H   0  0  0  0  0  0  0  0  0  0  0  0
    5.1120    2.9195   -1.2928 H   0  0  0  0  0  0  0  0  0  0  0  0
    5.8414    1.4664   -2.0818 H   0  0  0  0  0  0  0  0  0  0  0  0
    5.6066    0.0895    2.1078 H   0  0  0  0  0  0  0  0  0  0  0  0
    3.6775   -1.3116    2.7774 H   0  0  0  0  0  0  0  0  0  0  0  0
    1.7108   -1.4868    1.3447 H   0  0  0  0  0  0  0  0  0  0  0  0
    1.4910    0.3412   -1.9346 H   0  0  0  0  0  0  0  0  0  0  0  0
   -0.4155   -0.0149   -2.7695 H   0  0  0  0  0  0  0  0  0  0  0  0
   -2.6837   -2.5311    0.3584 H   0  0  0  0  0  0  0  0  0  0  0  0
   -4.0585   -1.7182    2.2375 H   0  0  0  0  0  0  0  0  0  0  0  0
   -6.1284    1.4262    2.1021 H   0  0  0  0  0  0  0  0  0  0  0  0
   -6.0919   -0.1950    2.7998 H   0  0  0  0  0  0  0  0  0  0  0  0
   -4.8052    0.9756    3.1988 H   0  0  0  0  0  0  0  0  0  0  0  0
   -5.0282    1.8404   -0.0052 H   0  0  0  0  0  0  0  0  0  0  0  0
   -3.6622    1.0272   -1.8878 H   0  0  0  0  0  0  0  0  0  0  0  0
    3.5546    1.1710   -1.5098 H   0  0  0  0  0  0  0  0  0  0  0  0
  1  2  1  0
  2  3  1  0
  3  4  2  0
  4  5  1  0
  5  6  2  0
  6  7  1  0
  7  8  1  0
  8  9  1  0
  9 10  2  0
  9 11  1  0
 11 12  1  0
 12 13  2  0
 12 14  2  0
 12 15  1  0
 15 16  2  0
 16 17  1  0
 17 18  2  0
 18 19  1  0
 18 20  1  0
 20 21  2  0
  7 22  2  0
 22  3  1  0
 21 15  1  0
  1 23  1  0
  1 24  1  0
  1 25  1  0
  4 26  1  0
  5 27  1  0
  6 28  1  0
  8 29  1  0
 11 30  1  0
 16 31  1  0
 17 32  1  0
 19 33  1  0
 19 34  1  0
 19 35  1  0
 20 36  1  0
 21 37  1  0
 22 38  1  0
M  END
$$$$
