
     RDKit          3D

 44 46  0  0  0  0  0  0  0  0999 V2000
   -7.9474    0.4452   -2.3566 C   0  0  0  0  0  0  0  0  0  0  0  0
   -6.6607    0.8448   -1.6778 C   0  0  0  0  0  0  0  0  0  0  0  0
   -6.3620    2.0265   -1.5484 O   0  0  0  0  0  0  0  0  0  0  0  0
   -5.9434   -0.2502   -1.2311 N   0  0  0  0  0  0  0  0  0  0  0  0
   -4.7044   -0.2481   -0.5590 C   0  0  0  0  0  0  0  0  0  0  0  0
   -4.1765   -1.4881   -0.1841 C   0  0  0  0  0  0  0  0  0  0  0  0
   -2.9493   -1.5772    0.4871 C   0  0  0  0  0  0  0  0  0  0  0  0
   -2.2270   -0.4261    0.7933 C   0  0  0  0  0  0  0  0  0  0  0  0
   -0.9881   -0.4192    1.4672 N   0  0  0  0  0  0  0  0  0  0  0  0
   -0.2456   -1.5125    1.8891 C   0  0  0  0  0  0  0  0  0  0  0  0
   -0.5731   -2.6911    1.7605 O   0  0  0  0  0  0  0  0  0  0  0  0
    1.0175   -1.1642    2.6437 C   0  0  0  0  0  0  0  0  0  0  0  0
    1.8475   -0.2440    1.9083 N   0  0  0  0  0  0  0  0  0  0  0  0
    1.5419    1.0625    1.8378 N   0  0  0  0  0  0  0  0  0  0  0  0
    2.5119    1.5896    1.1070 N   0  0  0  0  0  0  0  0  0  0  0  0
    3.3774    0.5645    0.7751 C   0  0  0  0  0  0  0  0  0  0  0  0
    4.5888    0.7914   -0.0147 C   0  0  0  0  0  0  0  0  0  0  0  0
    5.0993    2.1046   -0.0678 C   0  0  0  0  0  0  0  0  0  0  0  0
    6.2564    2.4070   -0.7875 C   0  0  0  0  0  0  0  0  0  0  0  0
    6.9269    1.4007   -1.4696 C   0  0  0  0  0  0  0  0  0  0  0  0
    6.4374    0.0958   -1.4373 C   0  0  0  0  0  0  0  0  0  0  0  0
    5.2663   -0.2272   -0.7235 C   0  0  0  0  0  0  0  0  0  0  0  0
    4.7991   -1.6586   -0.7535 C   0  0  0  0  0  0  0  0  0  0  0  0
    2.9807   -0.6126    1.2919 N   0  0  0  0  0  0  0  0  0  0  0  0
   -2.7546    0.8139    0.4175 C   0  0  0  0  0  0  0  0  0  0  0  0
   -3.9820    0.9029   -0.2528 C   0  0  0  0  0  0  0  0  0  0  0  0
   -8.2625    1.2427   -3.0357 H   0  0  0  0  0  0  0  0  0  0  0  0
   -7.8128   -0.4668   -2.9452 H   0  0  0  0  0  0  0  0  0  0  0  0
   -8.7207    0.2848   -1.6008 H   0  0  0  0  0  0  0  0  0  0  0  0
   -6.3546   -1.1605   -1.3944 H   0  0  0  0  0  0  0  0  0  0  0  0
   -4.7074   -2.4107   -0.4047 H   0  0  0  0  0  0  0  0  0  0  0  0
   -2.5922   -2.5665    0.7542 H   0  0  0  0  0  0  0  0  0  0  0  0
   -0.5769    0.5034    1.6016 H   0  0  0  0  0  0  0  0  0  0  0  0
    0.7612   -0.7085    3.6054 H   0  0  0  0  0  0  0  0  0  0  0  0
    1.5988   -2.0734    2.8291 H   0  0  0  0  0  0  0  0  0  0  0  0
    4.5977    2.9120    0.4641 H   0  0  0  0  0  0  0  0  0  0  0  0
    6.6318    3.4268   -0.8105 H   0  0  0  0  0  0  0  0  0  0  0  0
    7.8302    1.6290   -2.0295 H   0  0  0  0  0  0  0  0  0  0  0  0
    6.9774   -0.6769   -1.9819 H   0  0  0  0  0  0  0  0  0  0  0  0
    3.7492   -1.7183   -1.0572 H   0  0  0  0  0  0  0  0  0  0  0  0
    4.9388   -2.1273    0.2254 H   0  0  0  0  0  0  0  0  0  0  0  0
    5.3676   -2.2489   -1.4810 H   0  0  0  0  0  0  0  0  0  0  0  0
   -2.2221    1.7373    0.6344 H   0  0  0  0  0  0  0  0  0  0  0  0
   -4.3406    1.8914   -0.5224 H   0  0  0  0  0  0  0  0  0  0  0  0
  1  2  1  0
  2  3  2  0
  2  4  1  0
  4  5  1  0
  5  6  2  0
  6  7  1  0
  7  8  2  0
  8  9  1  0
  9 10  1  0
 10 11  2  0
 10 12  1  0
 12 13  1  0
 13 14  1  0
 14 15  2  0
 15 16  1  0
 16 17  1  0
 17 18  2  0
 18 19  1  0
 19 20  2  0
 20 21  1  0
 21 22  2  0
 22 23  1  0
 16 24  2  0
  8 25  1  0
 25 26  2  0
 26  5  1  0
 24 13  1  0
 22 17  1  0
  1 27  1  0
  1 28  1  0
  1 29  1  0
  4 30  1  0
  6 31  1  0
  7 32  1  0
  9 33  1  0
 12 34  1  0
 12 35  1  0
 18 36  1  0
 19 37  1  0
 20 38  1  0
 21 39  1  0
 23 40  1  0
 23 41  1  0
 23 42  1  0
 25 43  1  0
 26 44  1  0
M  END
$$$$
