
     RDKit          3D

 41 42  0  0  0  0  0  0  0  0999 V2000
    2.9236   -3.8261   -4.8716 C   0  0  0  0  0  0  0  0  0  0  0  0
    3.7058   -2.9076   -4.1197 O   0  0  0  0  0  0  0  0  0  0  0  0
    3.1011   -2.5325   -2.8814 C   0  0  0  0  0  0  0  0  0  0  0  0
    1.8688   -1.6416   -3.0621 C   0  0  0  0  0  0  0  0  0  0  0  0
    1.4095   -1.0830   -1.8048 N   0  0  0  0  0  0  0  0  0  0  0  0
    0.0896   -0.7253   -1.6208 C   0  0  0  0  0  0  0  0  0  0  0  0
   -0.7729   -0.9824   -2.4549 O   0  0  0  0  0  0  0  0  0  0  0  0
   -0.1760   -0.0186   -0.3772 C   0  0  0  0  0  0  0  0  0  0  0  0
    0.5826    0.0161    0.7822 C   0  0  0  0  0  0  0  0  0  0  0  0
   -0.1095    0.7687    1.7662 C   0  0  0  0  0  0  0  0  0  0  0  0
    0.1702    1.0918    3.1102 C   0  0  0  0  0  0  0  0  0  0  0  0
    1.3593    0.7024    3.6832 O   0  0  0  0  0  0  0  0  0  0  0  0
    1.1348   -0.3815    4.5870 C   0  0  0  0  0  0  0  0  0  0  0  0
   -0.7364    1.8558    3.8459 C   0  0  0  0  0  0  0  0  0  0  0  0
   -1.9355    2.2642    3.2679 C   0  0  0  0  0  0  0  0  0  0  0  0
   -2.2453    1.9591    1.9318 C   0  0  0  0  0  0  0  0  0  0  0  0
   -3.4358    2.3104    1.3489 O   0  0  0  0  0  0  0  0  0  0  0  0
   -3.9355    3.5897    1.7291 C   0  0  0  0  0  0  0  0  0  0  0  0
   -1.3074    1.2034    1.1928 C   0  0  0  0  0  0  0  0  0  0  0  0
   -1.3001    0.7561   -0.1217 N   0  0  0  0  0  0  0  0  0  0  0  0
   -2.3119    1.0820   -1.1080 C   0  0  0  0  0  0  0  0  0  0  0  0
    3.5293   -4.1843   -5.7095 H   0  0  0  0  0  0  0  0  0  0  0  0
    2.6325   -4.6861   -4.2604 H   0  0  0  0  0  0  0  0  0  0  0  0
    2.0389   -3.3317   -5.2805 H   0  0  0  0  0  0  0  0  0  0  0  0
    3.8635   -1.9813   -2.3177 H   0  0  0  0  0  0  0  0  0  0  0  0
    2.8616   -3.4260   -2.2921 H   0  0  0  0  0  0  0  0  0  0  0  0
    1.0568   -2.2059   -3.5337 H   0  0  0  0  0  0  0  0  0  0  0  0
    2.1038   -0.8047   -3.7289 H   0  0  0  0  0  0  0  0  0  0  0  0
    2.0911   -0.6198   -1.2197 H   0  0  0  0  0  0  0  0  0  0  0  0
    1.5266   -0.4873    0.9431 H   0  0  0  0  0  0  0  0  0  0  0  0
    0.5435   -1.1813    4.1240 H   0  0  0  0  0  0  0  0  0  0  0  0
    0.6501   -0.0289    5.5045 H   0  0  0  0  0  0  0  0  0  0  0  0
    2.1088   -0.7989    4.8601 H   0  0  0  0  0  0  0  0  0  0  0  0
   -0.5117    2.1257    4.8740 H   0  0  0  0  0  0  0  0  0  0  0  0
   -2.6359    2.8167    3.8865 H   0  0  0  0  0  0  0  0  0  0  0  0
   -4.4430    3.5335    2.6973 H   0  0  0  0  0  0  0  0  0  0  0  0
   -3.1449    4.3486    1.7466 H   0  0  0  0  0  0  0  0  0  0  0  0
   -4.6752    3.8939    0.9828 H   0  0  0  0  0  0  0  0  0  0  0  0
   -1.8595    1.1291   -2.1010 H   0  0  0  0  0  0  0  0  0  0  0  0
   -3.0908    0.3163   -1.0661 H   0  0  0  0  0  0  0  0  0  0  0  0
   -2.7243    2.0714   -0.9066 H   0  0  0  0  0  0  0  0  0  0  0  0
  1  2  1  0
  2  3  1  0
  3  4  1  0
  4  5  1  0
  5  6  1  0
  6  7  2  0
  6  8  1  0
  8  9  2  0
  9 10  1  0
 10 11  2  0
 11 12  1  0
 12 13  1  0
 11 14  1  0
 14 15  2  0
 15 16  1  0
 16 17  1  0
 17 18  1  0
 16 19  2  0
 19 20  1  0
 20 21  1  0
 20  8  1  0
 19 10  1  0
  1 22  1  0
  1 23  1  0
  1 24  1  0
  3 25  1  0
  3 26  1  0
  4 27  1  0
  4 28  1  0
  5 29  1  0
  9 30  1  0
 13 31  1  0
 13 32  1  0
 13 33  1  0
 14 34  1  0
 15 35  1  0
 18 36  1  0
 18 37  1  0
 18 38  1  0
 21 39  1  0
 21 40  1  0
 21 41  1  0
M  END
$$$$
