
     RDKit          3D

 33 33  0  0  0  0  0  0  0  0999 V2000
    4.7941    1.3865   -0.1575 C   0  0  0  0  0  0  0  0  0  0  0  0
    3.5055    0.7302   -0.6202 C   0  0  0  0  0  0  0  0  0  0  0  0
    2.7905    0.0196    0.5255 C   0  0  0  0  0  0  0  0  0  0  0  0
    1.6035   -0.6126    0.0499 O   0  0  0  0  0  0  0  0  0  0  0  0
    0.4021    0.0348    0.1893 C   0  0  0  0  0  0  0  0  0  0  0  0
    0.2670    1.4056    0.4325 C   0  0  0  0  0  0  0  0  0  0  0  0
   -1.0006    1.9810    0.5430 C   0  0  0  0  0  0  0  0  0  0  0  0
   -2.1387    1.1868    0.4035 C   0  0  0  0  0  0  0  0  0  0  0  0
   -3.4877    1.7729    0.5171 C   0  0  0  0  0  0  0  0  0  0  0  0
   -3.6764    3.0328    0.7525 N   0  0  0  0  0  0  0  0  0  0  0  0
   -5.0528    3.2816    0.8036 O   0  0  0  0  0  0  0  0  0  0  0  0
   -2.0199   -0.1827    0.1483 C   0  0  0  0  0  0  0  0  0  0  0  0
   -0.7519   -0.7639    0.0351 C   0  0  0  0  0  0  0  0  0  0  0  0
   -0.5294   -2.0965   -0.2121 O   0  0  0  0  0  0  0  0  0  0  0  0
   -1.6588   -2.9361   -0.4324 C   0  0  0  0  0  0  0  0  0  0  0  0
   -1.1509   -4.3366   -0.7247 C   0  0  0  0  0  0  0  0  0  0  0  0
    4.5957    2.1395    0.6117 H   0  0  0  0  0  0  0  0  0  0  0  0
    5.4855    0.6456    0.2563 H   0  0  0  0  0  0  0  0  0  0  0  0
    5.2905    1.8819   -0.9978 H   0  0  0  0  0  0  0  0  0  0  0  0
    3.7218    0.0086   -1.4173 H   0  0  0  0  0  0  0  0  0  0  0  0
    2.8504    1.4837   -1.0709 H   0  0  0  0  0  0  0  0  0  0  0  0
    2.6044    0.6770    1.3829 H   0  0  0  0  0  0  0  0  0  0  0  0
    3.4365   -0.7830    0.9012 H   0  0  0  0  0  0  0  0  0  0  0  0
    1.1279    2.0585    0.5267 H   0  0  0  0  0  0  0  0  0  0  0  0
   -1.0913    3.0482    0.7326 H   0  0  0  0  0  0  0  0  0  0  0  0
   -4.3459    1.0874    0.3925 H   0  0  0  0  0  0  0  0  0  0  0  0
   -5.0851    4.2402    0.9813 H   0  0  0  0  0  0  0  0  0  0  0  0
   -2.9214   -0.7755    0.0427 H   0  0  0  0  0  0  0  0  0  0  0  0
   -2.2378   -2.5795   -1.2921 H   0  0  0  0  0  0  0  0  0  0  0  0
   -2.2906   -2.9650    0.4626 H   0  0  0  0  0  0  0  0  0  0  0  0
   -1.9828   -5.0242   -0.9013 H   0  0  0  0  0  0  0  0  0  0  0  0
   -0.5529   -4.7123    0.1123 H   0  0  0  0  0  0  0  0  0  0  0  0
   -0.5003   -4.3347   -1.6056 H   0  0  0  0  0  0  0  0  0  0  0  0
  1  2  1  0
  2  3  1  0
  3  4  1  0
  4  5  1  0
  5  6  2  0
  6  7  1  0
  7  8  2  0
  8  9  1  0
  9 10  2  0
 10 11  1  0
  8 12  1  0
 12 13  2  0
 13 14  1  0
 14 15  1  0
 15 16  1  0
 13  5  1  0
  1 17  1  0
  1 18  1  0
  1 19  1  0
  2 20  1  0
  2 21  1  0
  3 22  1  0
  3 23  1  0
  6 24  1  0
  7 25  1  0
  9 26  1  0
 11 27  1  0
 12 28  1  0
 15 29  1  0
 15 30  1  0
 16 31  1  0
 16 32  1  0
 16 33  1  0
M  END
$$$$
