
     RDKit          3D

 37 38  0  0  0  0  0  0  0  0999 V2000
    5.9668    1.4678    0.2117 C   0  0  0  0  0  0  0  0  0  0  0  0
    4.8389    1.0242    1.5601 S   0  0  0  0  0  0  0  0  0  0  0  0
    3.4494    0.4355    0.6107 C   0  0  0  0  0  0  0  0  0  0  0  0
    2.7716    1.2716   -0.2842 C   0  0  0  0  0  0  0  0  0  0  0  0
    1.6765    0.7925   -1.0078 C   0  0  0  0  0  0  0  0  0  0  0  0
    1.2442   -0.5224   -0.8155 C   0  0  0  0  0  0  0  0  0  0  0  0
   -0.1328   -1.1521   -1.7574 S   0  0  0  0  0  6  0  0  0  0  0  0
    0.0811   -2.5738   -1.9267 O   0  0  0  0  0  0  0  0  0  0  0  0
   -0.3118   -0.2809   -2.9002 O   0  0  0  0  0  0  0  0  0  0  0  0
   -1.4521   -0.9267   -0.7127 N   0  0  0  0  0  0  0  0  0  0  0  0
   -1.5226   -1.7627    0.4979 C   0  0  0  0  0  0  0  0  0  0  0  0
   -2.9796   -1.8859    0.9365 C   0  0  0  0  0  0  0  0  0  0  0  0
   -3.7327   -0.5530    0.9256 C   0  0  0  0  0  0  0  0  0  0  0  0
   -2.7965    0.6395    0.7129 C   0  0  0  0  0  0  0  0  0  0  0  0
   -3.5808    1.9496    0.6661 C   0  0  0  0  0  0  0  0  0  0  0  0
   -1.9656    0.4576   -0.5669 C   0  0  0  0  0  0  0  0  0  0  0  0
    1.9226   -1.3703    0.0644 C   0  0  0  0  0  0  0  0  0  0  0  0
    3.0160   -0.8838    0.7850 C   0  0  0  0  0  0  0  0  0  0  0  0
    6.1289    0.6123   -0.4498 H   0  0  0  0  0  0  0  0  0  0  0  0
    6.9294    1.7659    0.6358 H   0  0  0  0  0  0  0  0  0  0  0  0
    5.5719    2.3066   -0.3673 H   0  0  0  0  0  0  0  0  0  0  0  0
    3.0861    2.3032   -0.4239 H   0  0  0  0  0  0  0  0  0  0  0  0
    1.1702    1.4477   -1.7135 H   0  0  0  0  0  0  0  0  0  0  0  0
   -0.9166   -1.3196    1.2962 H   0  0  0  0  0  0  0  0  0  0  0  0
   -1.1347   -2.7686    0.3093 H   0  0  0  0  0  0  0  0  0  0  0  0
   -3.0145   -2.3250    1.9406 H   0  0  0  0  0  0  0  0  0  0  0  0
   -3.5041   -2.5891    0.2772 H   0  0  0  0  0  0  0  0  0  0  0  0
   -4.2886   -0.4395    1.8641 H   0  0  0  0  0  0  0  0  0  0  0  0
   -4.4848   -0.5774    0.1260 H   0  0  0  0  0  0  0  0  0  0  0  0
   -2.1120    0.6966    1.5701 H   0  0  0  0  0  0  0  0  0  0  0  0
   -4.2967    1.9571   -0.1628 H   0  0  0  0  0  0  0  0  0  0  0  0
   -2.9047    2.8015    0.5380 H   0  0  0  0  0  0  0  0  0  0  0  0
   -4.1389    2.1007    1.5961 H   0  0  0  0  0  0  0  0  0  0  0  0
   -1.1448    1.1810   -0.5549 H   0  0  0  0  0  0  0  0  0  0  0  0
   -2.5854    0.6706   -1.4465 H   0  0  0  0  0  0  0  0  0  0  0  0
    1.6123   -2.4051    0.1912 H   0  0  0  0  0  0  0  0  0  0  0  0
    3.5345   -1.5458    1.4757 H   0  0  0  0  0  0  0  0  0  0  0  0
  1  2  1  0
  2  3  1  0
  3  4  2  0
  4  5  1  0
  5  6  2  0
  6  7  1  0
  7  8  2  0
  7  9  2  0
  7 10  1  0
 10 11  1  0
 11 12  1  0
 12 13  1  0
 13 14  1  0
 14 15  1  0
 14 16  1  0
  6 17  1  0
 17 18  2  0
 18  3  1  0
 16 10  1  0
  1 19  1  0
  1 20  1  0
  1 21  1  0
  4 22  1  0
  5 23  1  0
 11 24  1  0
 11 25  1  0
 12 26  1  0
 12 27  1  0
 13 28  1  0
 13 29  1  0
 14 30  1  0
 15 31  1  0
 15 32  1  0
 15 33  1  0
 16 34  1  0
 16 35  1  0
 17 36  1  0
 18 37  1  0
M  END
$$$$
