
     RDKit          3D

 46 47  0  0  0  0  0  0  0  0999 V2000
   -3.6317   -2.5036   -0.7020 C   0  0  0  0  0  0  0  0  0  0  0  0
   -2.2706   -1.8792   -0.4220 C   0  0  0  0  0  0  0  0  0  0  0  0
   -2.3029   -0.3366   -0.4263 C   0  0  0  0  0  0  0  0  0  0  0  0
   -0.9570    0.2114   -0.3046 N   0  0  0  0  0  0  0  0  0  0  0  0
   -0.0857    0.2581   -1.3691 C   0  0  0  0  0  0  0  0  0  0  0  0
   -0.3511   -0.1996   -2.4756 O   0  0  0  0  0  0  0  0  0  0  0  0
    1.2568    0.8872   -1.0332 C   0  0  0  0  0  0  0  0  0  0  0  0
    2.0324    1.2791   -2.2970 C   0  0  0  0  0  0  0  0  0  0  0  0
    3.4139    1.8204   -1.9359 C   0  0  0  0  0  0  0  0  0  0  0  0
    4.1928    0.8294   -1.0742 C   0  0  0  0  0  0  0  0  0  0  0  0
    3.3931    0.4897    0.1279 N   0  0  0  0  0  0  0  0  0  0  0  0
    4.2276   -0.1719    1.4485 S   0  0  0  0  0  6  0  0  0  0  0  0
    4.6965   -1.7837    0.8470 C   0  0  0  0  0  0  0  0  0  0  0  0
    5.4368    0.5976    1.6454 O   0  0  0  0  0  0  0  0  0  0  0  0
    3.2761   -0.3588    2.5231 O   0  0  0  0  0  0  0  0  0  0  0  0
    2.0705   -0.1049   -0.1995 C   0  0  0  0  0  0  0  0  0  0  0  0
   -3.1748    0.2528    0.6706 C   0  0  0  0  0  0  0  0  0  0  0  0
   -2.9733   -0.0653    2.0243 C   0  0  0  0  0  0  0  0  0  0  0  0
   -3.7747    0.5029    3.0163 C   0  0  0  0  0  0  0  0  0  0  0  0
   -4.7832    1.3994    2.6707 C   0  0  0  0  0  0  0  0  0  0  0  0
   -4.9898    1.7314    1.3339 C   0  0  0  0  0  0  0  0  0  0  0  0
   -4.1894    1.1649    0.3401 C   0  0  0  0  0  0  0  0  0  0  0  0
   -4.0363   -2.1497   -1.6555 H   0  0  0  0  0  0  0  0  0  0  0  0
   -4.3524   -2.2706    0.0875 H   0  0  0  0  0  0  0  0  0  0  0  0
   -3.5402   -3.5931   -0.7576 H   0  0  0  0  0  0  0  0  0  0  0  0
   -1.8842   -2.2626    0.5300 H   0  0  0  0  0  0  0  0  0  0  0  0
   -1.5725   -2.2328   -1.1909 H   0  0  0  0  0  0  0  0  0  0  0  0
   -2.6894   -0.0152   -1.4027 H   0  0  0  0  0  0  0  0  0  0  0  0
   -0.7389    0.7301    0.5380 H   0  0  0  0  0  0  0  0  0  0  0  0
    1.0718    1.7982   -0.4477 H   0  0  0  0  0  0  0  0  0  0  0  0
    2.1461    0.4127   -2.9614 H   0  0  0  0  0  0  0  0  0  0  0  0
    1.4738    2.0352   -2.8616 H   0  0  0  0  0  0  0  0  0  0  0  0
    3.9768    2.0382   -2.8503 H   0  0  0  0  0  0  0  0  0  0  0  0
    3.2998    2.7673   -1.3934 H   0  0  0  0  0  0  0  0  0  0  0  0
    5.1429    1.2917   -0.7890 H   0  0  0  0  0  0  0  0  0  0  0  0
    4.4105   -0.0796   -1.6459 H   0  0  0  0  0  0  0  0  0  0  0  0
    5.3444   -1.6704   -0.0233 H   0  0  0  0  0  0  0  0  0  0  0  0
    3.7990   -2.3536    0.6028 H   0  0  0  0  0  0  0  0  0  0  0  0
    5.2437   -2.2890    1.6463 H   0  0  0  0  0  0  0  0  0  0  0  0
    1.5248   -0.3371    0.7211 H   0  0  0  0  0  0  0  0  0  0  0  0
    2.2113   -1.0465   -0.7444 H   0  0  0  0  0  0  0  0  0  0  0  0
   -2.1879   -0.7576    2.3195 H   0  0  0  0  0  0  0  0  0  0  0  0
   -3.6106    0.2466    4.0600 H   0  0  0  0  0  0  0  0  0  0  0  0
   -5.4065    1.8413    3.4437 H   0  0  0  0  0  0  0  0  0  0  0  0
   -5.7743    2.4339    1.0640 H   0  0  0  0  0  0  0  0  0  0  0  0
   -4.3643    1.4419   -0.6977 H   0  0  0  0  0  0  0  0  0  0  0  0
  1  2  1  0
  2  3  1  0
  3  4  1  0
  4  5  1  0
  5  6  2  0
  5  7  1  0
  7  8  1  0
  8  9  1  0
  9 10  1  0
 10 11  1  0
 11 12  1  0
 12 13  1  0
 12 14  2  0
 12 15  2  0
 11 16  1  0
  3 17  1  0
 17 18  2  0
 18 19  1  0
 19 20  2  0
 20 21  1  0
 21 22  2  0
 16  7  1  0
 22 17  1  0
  1 23  1  0
  1 24  1  0
  1 25  1  0
  2 26  1  0
  2 27  1  0
  3 28  1  0
  4 29  1  0
  7 30  1  0
  8 31  1  0
  8 32  1  0
  9 33  1  0
  9 34  1  0
 10 35  1  0
 10 36  1  0
 13 37  1  0
 13 38  1  0
 13 39  1  0
 16 40  1  0
 16 41  1  0
 18 42  1  0
 19 43  1  0
 20 44  1  0
 21 45  1  0
 22 46  1  0
M  END
$$$$
