
     RDKit          3D

 49 50  0  0  0  0  0  0  0  0999 V2000
    2.1249    2.6902   -3.5311 C   0  0  0  0  0  0  0  0  0  0  0  0
    2.4740    2.1158   -2.1611 C   0  0  0  0  0  0  0  0  0  0  0  0
    2.2835    0.7017   -2.2435 O   0  0  0  0  0  0  0  0  0  0  0  0
    2.7830   -0.0826   -1.2423 C   0  0  0  0  0  0  0  0  0  0  0  0
    3.4751    0.3564   -0.1122 C   0  0  0  0  0  0  0  0  0  0  0  0
    3.9060   -0.5662    0.8507 C   0  0  0  0  0  0  0  0  0  0  0  0
    3.6460   -1.9256    0.6823 C   0  0  0  0  0  0  0  0  0  0  0  0
    4.1710   -3.0540    1.8709 Cl  0  0  0  0  0  0  0  0  0  0  0  0
    2.9597   -2.3739   -0.4419 C   0  0  0  0  0  0  0  0  0  0  0  0
    2.5323   -1.4506   -1.4027 C   0  0  0  0  0  0  0  0  0  0  0  0
    1.5750    2.7711   -1.0986 C   0  0  0  0  0  0  0  0  0  0  0  0
    2.0017    3.6130   -0.3107 O   0  0  0  0  0  0  0  0  0  0  0  0
    0.2685    2.3420   -1.1231 N   0  0  0  0  0  0  0  0  0  0  0  0
   -0.6982    2.7424   -0.1237 C   0  0  0  0  0  0  0  0  0  0  0  0
   -0.5410    1.9943    1.2012 C   0  0  0  0  0  0  0  0  0  0  0  0
   -0.6064    0.4644    1.0783 C   0  0  0  0  0  0  0  0  0  0  0  0
   -1.7792   -0.0200    0.3323 N   0  0  0  0  0  0  0  0  0  0  0  0
   -3.0357    0.1092    1.1025 C   0  0  0  0  0  0  0  0  0  0  0  0
   -3.2328   -0.9356    2.2304 C   0  0  0  0  0  0  0  0  0  0  0  0
   -3.0447   -2.3410    1.8205 N   0  0  0  0  0  0  0  0  0  0  0  0
   -4.1875   -2.8273    1.0483 C   0  0  0  0  0  0  0  0  0  0  0  0
   -1.7858   -2.4682    1.0618 C   0  0  0  0  0  0  0  0  0  0  0  0
   -1.6073   -1.4328   -0.0743 C   0  0  0  0  0  0  0  0  0  0  0  0
    2.7984    2.2859   -4.2946 H   0  0  0  0  0  0  0  0  0  0  0  0
    2.2008    3.7826   -3.5382 H   0  0  0  0  0  0  0  0  0  0  0  0
    1.1073    2.4128   -3.8316 H   0  0  0  0  0  0  0  0  0  0  0  0
    3.5239    2.3536   -1.9511 H   0  0  0  0  0  0  0  0  0  0  0  0
    3.6952    1.4059    0.0648 H   0  0  0  0  0  0  0  0  0  0  0  0
    4.4395   -0.2136    1.7288 H   0  0  0  0  0  0  0  0  0  0  0  0
    2.7545   -3.4329   -0.5801 H   0  0  0  0  0  0  0  0  0  0  0  0
    1.9925   -1.8028   -2.2798 H   0  0  0  0  0  0  0  0  0  0  0  0
    0.0811    1.4753   -1.6194 H   0  0  0  0  0  0  0  0  0  0  0  0
   -1.6922    2.5790   -0.5509 H   0  0  0  0  0  0  0  0  0  0  0  0
   -0.5893    3.8190    0.0529 H   0  0  0  0  0  0  0  0  0  0  0  0
    0.4252    2.2572    1.6506 H   0  0  0  0  0  0  0  0  0  0  0  0
   -1.3069    2.3490    1.8999 H   0  0  0  0  0  0  0  0  0  0  0  0
    0.3045    0.1469    0.5580 H   0  0  0  0  0  0  0  0  0  0  0  0
   -0.5477    0.0223    2.0794 H   0  0  0  0  0  0  0  0  0  0  0  0
   -3.1321    1.1140    1.5258 H   0  0  0  0  0  0  0  0  0  0  0  0
   -3.8672    0.0246    0.3925 H   0  0  0  0  0  0  0  0  0  0  0  0
   -4.2260   -0.8036    2.6775 H   0  0  0  0  0  0  0  0  0  0  0  0
   -2.5225   -0.7243    3.0400 H   0  0  0  0  0  0  0  0  0  0  0  0
   -4.3667   -2.2570    0.1310 H   0  0  0  0  0  0  0  0  0  0  0  0
   -5.0983   -2.7890    1.6559 H   0  0  0  0  0  0  0  0  0  0  0  0
   -4.0452   -3.8777    0.7705 H   0  0  0  0  0  0  0  0  0  0  0  0
   -1.6957   -3.4814    0.6492 H   0  0  0  0  0  0  0  0  0  0  0  0
   -0.9521   -2.3679    1.7692 H   0  0  0  0  0  0  0  0  0  0  0  0
   -2.3358   -1.6441   -0.8682 H   0  0  0  0  0  0  0  0  0  0  0  0
   -0.6275   -1.5761   -0.5457 H   0  0  0  0  0  0  0  0  0  0  0  0
  1  2  1  0
  2  3  1  0
  3  4  1  0
  4  5  2  0
  5  6  1  0
  6  7  2  0
  7  8  1  0
  7  9  1  0
  9 10  2  0
  2 11  1  0
 11 12  2  0
 11 13  1  0
 13 14  1  0
 14 15  1  0
 15 16  1  0
 16 17  1  0
 17 18  1  0
 18 19  1  0
 19 20  1  0
 20 21  1  0
 20 22  1  0
 22 23  1  0
 10  4  1  0
 23 17  1  0
  1 24  1  0
  1 25  1  0
  1 26  1  0
  2 27  1  0
  5 28  1  0
  6 29  1  0
  9 30  1  0
 10 31  1  0
 13 32  1  0
 14 33  1  0
 14 34  1  0
 15 35  1  0
 15 36  1  0
 16 37  1  0
 16 38  1  0
 18 39  1  0
 18 40  1  0
 19 41  1  0
 19 42  1  0
 21 43  1  0
 21 44  1  0
 21 45  1  0
 22 46  1  0
 22 47  1  0
 23 48  1  0
 23 49  1  0
M  END
$$$$
