
     RDKit          3D

 47 51  0  0  0  0  0  0  0  0999 V2000
   -4.0668    0.6913    2.0833 O   0  0  0  0  0  0  0  0  0  0  0  0
   -3.8693    0.6138    0.8746 C   0  0  0  0  0  0  0  0  0  0  0  0
   -5.0463    0.3407    0.0368 C   0  0  0  0  0  0  0  0  0  0  0  0
   -5.7129   -0.8790    0.1352 C   0  0  0  0  0  0  0  0  0  0  0  0
   -6.8305   -1.1001   -0.6651 C   0  0  0  0  0  0  0  0  0  0  0  0
   -7.2368   -0.0880   -1.5239 C   0  0  0  0  0  0  0  0  0  0  0  0
   -6.6158    1.1100   -1.6264 N   0  0  0  0  0  0  0  0  0  0  0  0
   -5.5414    1.3065   -0.8255 C   0  0  0  0  0  0  0  0  0  0  0  0
   -2.6477    0.7302    0.2306 N   0  0  0  0  0  0  0  0  0  0  0  0
   -2.3891    0.5142   -1.2074 C   0  0  0  0  0  0  0  0  0  0  0  0
   -0.8720    0.5837   -1.4232 C   0  0  0  0  0  0  0  0  0  0  0  0
   -0.3804    0.9685   -0.0662 C   0  0  0  0  0  0  0  0  0  0  0  0
    0.9308    1.2234    0.3092 C   0  0  0  0  0  0  0  0  0  0  0  0
    1.1856    1.5404    1.6436 C   0  0  0  0  0  0  0  0  0  0  0  0
    2.5243    1.7664    2.0649 N   0  0  0  0  0  0  0  0  0  0  0  0
    3.4283    0.4305    2.5759 S   0  0  0  0  0  6  0  0  0  0  0  0
    4.6138    0.9671    3.2109 O   0  0  0  0  0  0  0  0  0  0  0  0
    2.5669   -0.4995    3.2724 O   0  0  0  0  0  0  0  0  0  0  0  0
    3.9404   -0.3004    1.0414 C   0  0  0  0  0  0  0  0  0  0  0  0
    3.3322   -1.4940    0.6002 C   0  0  0  0  0  0  0  0  0  0  0  0
    3.7320   -2.0768   -0.6053 C   0  0  0  0  0  0  0  0  0  0  0  0
    4.7311   -1.4491   -1.3201 C   0  0  0  0  0  0  0  0  0  0  0  0
    5.3280   -0.2900   -0.8766 C   0  0  0  0  0  0  0  0  0  0  0  0
    4.9607    0.3133    0.3056 C   0  0  0  0  0  0  0  0  0  0  0  0
    6.2867    0.1576   -1.7304 O   0  0  0  0  0  0  0  0  0  0  0  0
    6.2413   -0.8609   -2.7515 C   0  0  0  0  0  0  0  0  0  0  0  0
    5.2412   -1.8723   -2.5074 O   0  0  0  0  0  0  0  0  0  0  0  0
    0.1447    1.5809    2.5813 C   0  0  0  0  0  0  0  0  0  0  0  0
   -1.1735    1.3217    2.1888 C   0  0  0  0  0  0  0  0  0  0  0  0
   -1.4227    1.0193    0.8602 C   0  0  0  0  0  0  0  0  0  0  0  0
   -5.3698   -1.6404    0.8304 H   0  0  0  0  0  0  0  0  0  0  0  0
   -7.3766   -2.0359   -0.6162 H   0  0  0  0  0  0  0  0  0  0  0  0
   -8.1038   -0.2157   -2.1670 H   0  0  0  0  0  0  0  0  0  0  0  0
   -5.0830    2.2883   -0.9014 H   0  0  0  0  0  0  0  0  0  0  0  0
   -2.8941    1.3014   -1.7778 H   0  0  0  0  0  0  0  0  0  0  0  0
   -2.7994   -0.4533   -1.5167 H   0  0  0  0  0  0  0  0  0  0  0  0
   -0.6114    1.3313   -2.1783 H   0  0  0  0  0  0  0  0  0  0  0  0
   -0.4735   -0.3923   -1.7179 H   0  0  0  0  0  0  0  0  0  0  0  0
    1.7319    1.1839   -0.4212 H   0  0  0  0  0  0  0  0  0  0  0  0
    2.6910    2.5627    2.6799 H   0  0  0  0  0  0  0  0  0  0  0  0
    2.5483   -1.9653    1.1908 H   0  0  0  0  0  0  0  0  0  0  0  0
    3.2778   -2.9933   -0.9656 H   0  0  0  0  0  0  0  0  0  0  0  0
    5.4451    1.2228    0.6441 H   0  0  0  0  0  0  0  0  0  0  0  0
    6.0275   -0.3824   -3.7141 H   0  0  0  0  0  0  0  0  0  0  0  0
    7.2233   -1.3447   -2.8092 H   0  0  0  0  0  0  0  0  0  0  0  0
    0.3511    1.7968    3.6265 H   0  0  0  0  0  0  0  0  0  0  0  0
   -1.9671    1.3562    2.9278 H   0  0  0  0  0  0  0  0  0  0  0  0
  1  2  2  0
  2  3  1  0
  3  4  2  0
  4  5  1  0
  5  6  2  0
  6  7  1  0
  7  8  2  0
  2  9  1  0
  9 10  1  0
 10 11  1  0
 11 12  1  0
 12 13  2  0
 13 14  1  0
 14 15  1  0
 15 16  1  0
 16 17  2  0
 16 18  2  0
 16 19  1  0
 19 20  2  0
 20 21  1  0
 21 22  2  0
 22 23  1  0
 23 24  2  0
 23 25  1  0
 25 26  1  0
 26 27  1  0
 14 28  2  0
 28 29  1  0
 29 30  2  0
  8  3  1  0
 30  9  1  0
 30 12  1  0
 24 19  1  0
 27 22  1  0
  4 31  1  0
  5 32  1  0
  6 33  1  0
  8 34  1  0
 10 35  1  0
 10 36  1  0
 11 37  1  0
 11 38  1  0
 13 39  1  0
 15 40  1  0
 20 41  1  0
 21 42  1  0
 24 43  1  0
 26 44  1  0
 26 45  1  0
 28 46  1  0
 29 47  1  0
M  END
$$$$
