
     RDKit          3D

 34 35  0  0  0  0  0  0  0  0999 V2000
   -0.5925   -1.9162    0.3814 C   0  0  0  0  0  0  0  0  0  0  0  0
   -0.2656   -0.5172    0.0126 N   0  0  0  0  0  0  0  0  0  0  0  0
    1.1373   -0.1929    0.0713 C   0  0  0  0  0  0  0  0  0  0  0  0
    1.7273    0.3691   -1.0625 C   0  0  0  0  0  0  0  0  0  0  0  0
    3.0782    0.7320   -1.0485 C   0  0  0  0  0  0  0  0  0  0  0  0
    3.8452    0.5346    0.1068 C   0  0  0  0  0  0  0  0  0  0  0  0
    5.2866    0.9002    0.1793 C   0  0  0  0  0  0  0  0  0  0  0  0
    5.9674    1.0439   -0.9979 N   0  0  0  0  0  0  0  0  0  0  0  0
    5.8631    1.0335    1.2513 O   0  0  0  0  0  0  0  0  0  0  0  0
    3.2394    0.0009    1.2525 C   0  0  0  0  0  0  0  0  0  0  0  0
    1.8887   -0.3584    1.2372 C   0  0  0  0  0  0  0  0  0  0  0  0
   -1.2501    0.6781    0.7674 S   0  0  0  0  0  6  0  0  0  0  0  0
   -0.9054    1.9837    0.2443 O   0  0  0  0  0  0  0  0  0  0  0  0
   -1.2622    0.4142    2.1926 O   0  0  0  0  0  0  0  0  0  0  0  0
   -2.8665    0.2900    0.1273 C   0  0  0  0  0  0  0  0  0  0  0  0
   -3.8605   -0.2048    0.9774 C   0  0  0  0  0  0  0  0  0  0  0  0
   -5.1228   -0.4978    0.4565 C   0  0  0  0  0  0  0  0  0  0  0  0
   -5.3816   -0.2885   -0.8995 C   0  0  0  0  0  0  0  0  0  0  0  0
   -6.9376   -0.6538   -1.5361 Cl  0  0  0  0  0  0  0  0  0  0  0  0
   -4.3906    0.2161   -1.7434 C   0  0  0  0  0  0  0  0  0  0  0  0
   -3.1265    0.5111   -1.2299 C   0  0  0  0  0  0  0  0  0  0  0  0
   -1.5882   -2.1829    0.0169 H   0  0  0  0  0  0  0  0  0  0  0  0
   -0.5483   -2.0744    1.4629 H   0  0  0  0  0  0  0  0  0  0  0  0
    0.1120   -2.6062   -0.0965 H   0  0  0  0  0  0  0  0  0  0  0  0
    1.1325    0.5408   -1.9559 H   0  0  0  0  0  0  0  0  0  0  0  0
    3.5004    1.1956   -1.9345 H   0  0  0  0  0  0  0  0  0  0  0  0
    5.6205    0.6890   -1.8762 H   0  0  0  0  0  0  0  0  0  0  0  0
    6.9675    1.1773   -0.9132 H   0  0  0  0  0  0  0  0  0  0  0  0
    3.8177   -0.1276    2.1661 H   0  0  0  0  0  0  0  0  0  0  0  0
    1.4346   -0.7480    2.1445 H   0  0  0  0  0  0  0  0  0  0  0  0
   -3.6657   -0.3594    2.0366 H   0  0  0  0  0  0  0  0  0  0  0  0
   -5.9008   -0.8825    1.1115 H   0  0  0  0  0  0  0  0  0  0  0  0
   -4.5991    0.3860   -2.7968 H   0  0  0  0  0  0  0  0  0  0  0  0
   -2.3545    0.9143   -1.8822 H   0  0  0  0  0  0  0  0  0  0  0  0
  1  2  1  0
  2  3  1  0
  3  4  2  0
  4  5  1  0
  5  6  2  0
  6  7  1  0
  7  8  1  0
  7  9  2  0
  6 10  1  0
 10 11  2  0
  2 12  1  0
 12 13  2  0
 12 14  2  0
 12 15  1  0
 15 16  2  0
 16 17  1  0
 17 18  2  0
 18 19  1  0
 18 20  1  0
 20 21  2  0
 11  3  1  0
 21 15  1  0
  1 22  1  0
  1 23  1  0
  1 24  1  0
  4 25  1  0
  5 26  1  0
  8 27  1  0
  8 28  1  0
 10 29  1  0
 11 30  1  0
 16 31  1  0
 17 32  1  0
 20 33  1  0
 21 34  1  0
M  END
$$$$
