
     RDKit          3D

 36 38  0  0  0  0  0  0  0  0999 V2000
    6.2488   -0.0026   -1.2701 N   0  0  0  0  0  0  0  0  0  0  0  0
    5.7190   -0.9203    0.0396 S   0  0  0  0  0  6  0  0  0  0  0  0
    6.3768   -0.3523    1.1944 O   0  0  0  0  0  0  0  0  0  0  0  0
    5.8309   -2.3142   -0.3144 O   0  0  0  0  0  0  0  0  0  0  0  0
    4.0005   -0.4912    0.1016 C   0  0  0  0  0  0  0  0  0  0  0  0
    3.1181   -1.0757   -0.8080 C   0  0  0  0  0  0  0  0  0  0  0  0
    1.7610   -0.7381   -0.7705 C   0  0  0  0  0  0  0  0  0  0  0  0
    1.2802    0.1707    0.1766 C   0  0  0  0  0  0  0  0  0  0  0  0
   -0.0715    0.5594    0.2756 N   0  0  0  0  0  0  0  0  0  0  0  0
   -1.1131    0.1475   -0.5297 C   0  0  0  0  0  0  0  0  0  0  0  0
   -1.0876   -0.5822   -1.5105 O   0  0  0  0  0  0  0  0  0  0  0  0
   -2.4200    0.7358   -0.1690 C   0  0  0  0  0  0  0  0  0  0  0  0
   -2.6015    2.0802   -0.5259 C   0  0  0  0  0  0  0  0  0  0  0  0
   -3.8482    2.6661   -0.3671 C   0  0  0  0  0  0  0  0  0  0  0  0
   -4.0222    3.9489   -0.7067 F   0  0  0  0  0  0  0  0  0  0  0  0
   -4.9231    1.9364    0.1241 C   0  0  0  0  0  0  0  0  0  0  0  0
   -4.7526    0.5939    0.4767 C   0  0  0  0  0  0  0  0  0  0  0  0
   -3.4917   -0.0199    0.3464 C   0  0  0  0  0  0  0  0  0  0  0  0
   -3.3236   -1.3601    0.7785 N   0  0  0  0  0  0  0  0  0  0  0  0
   -4.2825   -2.2943    1.0904 C   0  0  0  0  0  0  0  0  0  0  0  0
   -3.7062   -3.3723    1.5682 N   0  0  0  0  0  0  0  0  0  0  0  0
   -2.3638   -3.1096    1.5526 N   0  0  0  0  0  0  0  0  0  0  0  0
   -2.1226   -1.8934    1.0853 N   0  0  0  0  0  0  0  0  0  0  0  0
    2.1773    0.7342    1.0959 C   0  0  0  0  0  0  0  0  0  0  0  0
    3.5361    0.4068    1.0626 C   0  0  0  0  0  0  0  0  0  0  0  0
    5.4888    0.4215   -1.8003 H   0  0  0  0  0  0  0  0  0  0  0  0
    6.9199    0.6911   -0.9367 H   0  0  0  0  0  0  0  0  0  0  0  0
    3.4706   -1.8003   -1.5400 H   0  0  0  0  0  0  0  0  0  0  0  0
    1.0995   -1.2184   -1.4860 H   0  0  0  0  0  0  0  0  0  0  0  0
   -0.3000    1.1743    1.0466 H   0  0  0  0  0  0  0  0  0  0  0  0
   -1.7935    2.6612   -0.9625 H   0  0  0  0  0  0  0  0  0  0  0  0
   -5.8907    2.4199    0.2321 H   0  0  0  0  0  0  0  0  0  0  0  0
   -5.6169    0.0701    0.8784 H   0  0  0  0  0  0  0  0  0  0  0  0
   -5.3419   -2.1555    0.9474 H   0  0  0  0  0  0  0  0  0  0  0  0
    1.8315    1.4331    1.8537 H   0  0  0  0  0  0  0  0  0  0  0  0
    4.2145    0.8492    1.7890 H   0  0  0  0  0  0  0  0  0  0  0  0
  1  2  1  0
  2  3  2  0
  2  4  2  0
  2  5  1  0
  5  6  2  0
  6  7  1  0
  7  8  2  0
  8  9  1  0
  9 10  1  0
 10 11  2  0
 10 12  1  0
 12 13  2  0
 13 14  1  0
 14 15  1  0
 14 16  2  0
 16 17  1  0
 17 18  2  0
 18 19  1  0
 19 20  1  0
 20 21  2  0
 21 22  1  0
 22 23  2  0
  8 24  1  0
 24 25  2  0
 25  5  1  0
 18 12  1  0
 23 19  1  0
  1 26  1  0
  1 27  1  0
  6 28  1  0
  7 29  1  0
  9 30  1  0
 13 31  1  0
 16 32  1  0
 17 33  1  0
 20 34  1  0
 24 35  1  0
 25 36  1  0
M  END
$$$$
