
     RDKit          3D

 34 35  0  0  0  0  0  0  0  0999 V2000
    0.7204    1.6694    0.7407 O   0  0  0  0  0  0  0  0  0  0  0  0
    0.3334    0.5706    1.1374 C   0  0  0  0  0  0  0  0  0  0  0  0
    1.2449   -0.3769    1.9204 C   0  0  0  0  0  0  0  0  0  0  0  0
    2.6158   -0.1650    1.4938 N   0  0  0  0  0  0  0  0  0  0  0  0
    3.1585   -0.9511    0.4920 C   0  0  0  0  0  0  0  0  0  0  0  0
    2.5871   -1.9670    0.1018 O   0  0  0  0  0  0  0  0  0  0  0  0
    4.4202   -0.4762   -0.0472 C   0  0  0  0  0  0  0  0  0  0  0  0
    5.2526    0.5842    0.2733 C   0  0  0  0  0  0  0  0  0  0  0  0
    6.3527    0.5302   -0.6194 C   0  0  0  0  0  0  0  0  0  0  0  0
    6.1336   -0.5574   -1.4305 C   0  0  0  0  0  0  0  0  0  0  0  0
    7.2845   -1.1339   -2.8304 Br  0  0  0  0  0  0  0  0  0  0  0  0
    4.9720   -1.1721   -1.0922 O   0  0  0  0  0  0  0  0  0  0  0  0
   -0.9577    0.1186    0.9812 N   0  0  0  0  0  0  0  0  0  0  0  0
   -1.8956    0.8341    0.1323 C   0  0  0  0  0  0  0  0  0  0  0  0
   -3.3250    0.3512    0.3689 C   0  0  0  0  0  0  0  0  0  0  0  0
   -4.3457    1.0249   -0.5315 C   0  0  0  0  0  0  0  0  0  0  0  0
   -5.4349   -0.0167   -0.5867 C   0  0  0  0  0  0  0  0  0  0  0  0
   -4.6376   -1.3030   -0.6287 C   0  0  0  0  0  0  0  0  0  0  0  0
   -3.4204   -1.0644    0.0948 O   0  0  0  0  0  0  0  0  0  0  0  0
    1.1800   -0.1161    2.9808 H   0  0  0  0  0  0  0  0  0  0  0  0
    0.9436   -1.4186    1.7805 H   0  0  0  0  0  0  0  0  0  0  0  0
    2.9402    0.7910    1.5550 H   0  0  0  0  0  0  0  0  0  0  0  0
    5.0951    1.3113    1.0572 H   0  0  0  0  0  0  0  0  0  0  0  0
    7.1993    1.2010   -0.6628 H   0  0  0  0  0  0  0  0  0  0  0  0
   -1.1163   -0.8831    1.0400 H   0  0  0  0  0  0  0  0  0  0  0  0
   -1.5858    0.6401   -0.9011 H   0  0  0  0  0  0  0  0  0  0  0  0
   -1.8093    1.9093    0.3227 H   0  0  0  0  0  0  0  0  0  0  0  0
   -3.5989    0.4857    1.4230 H   0  0  0  0  0  0  0  0  0  0  0  0
   -3.9388    1.1851   -1.5373 H   0  0  0  0  0  0  0  0  0  0  0  0
   -4.6852    1.9885   -0.1418 H   0  0  0  0  0  0  0  0  0  0  0  0
   -6.1088    0.0956   -1.4398 H   0  0  0  0  0  0  0  0  0  0  0  0
   -6.0334    0.0228    0.3312 H   0  0  0  0  0  0  0  0  0  0  0  0
   -5.1735   -2.1444   -0.1807 H   0  0  0  0  0  0  0  0  0  0  0  0
   -4.3667   -1.5679   -1.6562 H   0  0  0  0  0  0  0  0  0  0  0  0
  1  2  2  0
  2  3  1  0
  3  4  1  0
  4  5  1  0
  5  6  2  0
  5  7  1  0
  7  8  2  0
  8  9  1  0
  9 10  2  0
 10 11  1  0
 10 12  1  0
  2 13  1  0
 13 14  1  0
 14 15  1  0
 15 16  1  0
 16 17  1  0
 17 18  1  0
 18 19  1  0
 12  7  1  0
 19 15  1  0
  3 20  1  0
  3 21  1  0
  4 22  1  0
  8 23  1  0
  9 24  1  0
 13 25  1  0
 14 26  1  0
 14 27  1  0
 15 28  1  0
 16 29  1  0
 16 30  1  0
 17 31  1  0
 17 32  1  0
 18 33  1  0
 18 34  1  0
M  END
$$$$
