
     RDKit          3D

 35 38  0  0  0  0  0  0  0  0999 V2000
   -1.7458   -3.1006   -0.1633 C   0  0  0  0  0  0  0  0  0  0  0  0
   -0.9219   -1.8661   -0.0971 C   0  0  0  0  0  0  0  0  0  0  0  0
    0.4078   -1.9672   -0.0055 N   0  0  0  0  0  0  0  0  0  0  0  0
    0.8558   -0.6854    0.0600 N   0  0  0  0  0  0  0  0  0  0  0  0
   -0.2013    0.2342    0.0097 C   0  0  0  0  0  0  0  0  0  0  0  0
    0.0156    1.5879    0.0618 N   0  0  0  0  0  0  0  0  0  0  0  0
    1.2552    1.9665    0.1564 C   0  0  0  0  0  0  0  0  0  0  0  0
    2.4377    1.0738    0.2157 C   0  0  0  0  0  0  0  0  0  0  0  0
    3.8251    1.5886    0.3262 C   0  0  0  0  0  0  0  0  0  0  0  0
    4.0547    2.7955    0.3753 O   0  0  0  0  0  0  0  0  0  0  0  0
    4.8185    0.6002    0.3690 N   0  0  0  0  0  0  0  0  0  0  0  0
    6.1675    0.9812    0.4733 N   0  0  0  0  0  0  0  0  0  0  0  0
    4.5550   -0.7467    0.3167 C   0  0  0  0  0  0  0  0  0  0  0  0
    3.2954   -1.1906    0.2181 C   0  0  0  0  0  0  0  0  0  0  0  0
    2.1877   -0.2492    0.1647 C   0  0  0  0  0  0  0  0  0  0  0  0
   -1.3581   -0.5163   -0.1061 C   0  0  0  0  0  0  0  0  0  0  0  0
   -2.6963    0.0415   -0.2107 C   0  0  0  0  0  0  0  0  0  0  0  0
   -3.5715   -0.4061   -1.2093 C   0  0  0  0  0  0  0  0  0  0  0  0
   -4.8652    0.1134   -1.3028 C   0  0  0  0  0  0  0  0  0  0  0  0
   -5.2945    1.0846   -0.4004 C   0  0  0  0  0  0  0  0  0  0  0  0
   -4.4307    1.5402    0.5937 C   0  0  0  0  0  0  0  0  0  0  0  0
   -3.1370    1.0214    0.6881 C   0  0  0  0  0  0  0  0  0  0  0  0
   -2.0215   -3.3178   -1.1999 H   0  0  0  0  0  0  0  0  0  0  0  0
   -1.2003   -3.9645    0.2313 H   0  0  0  0  0  0  0  0  0  0  0  0
   -2.6619   -2.9915    0.4257 H   0  0  0  0  0  0  0  0  0  0  0  0
    1.4696    3.0478    0.1990 H   0  0  0  0  0  0  0  0  0  0  0  0
    6.2338    1.6080    1.2812 H   0  0  0  0  0  0  0  0  0  0  0  0
    6.3610    1.5976   -0.3217 H   0  0  0  0  0  0  0  0  0  0  0  0
    5.4037   -1.4229    0.3590 H   0  0  0  0  0  0  0  0  0  0  0  0
    3.0821   -2.2558    0.1766 H   0  0  0  0  0  0  0  0  0  0  0  0
   -3.2512   -1.1503   -1.9340 H   0  0  0  0  0  0  0  0  0  0  0  0
   -5.5351   -0.2359   -2.0842 H   0  0  0  0  0  0  0  0  0  0  0  0
   -6.2996    1.4914   -0.4752 H   0  0  0  0  0  0  0  0  0  0  0  0
   -4.7599    2.3025    1.2948 H   0  0  0  0  0  0  0  0  0  0  0  0
   -2.4744    1.3905    1.4678 H   0  0  0  0  0  0  0  0  0  0  0  0
  1  2  1  0
  2  3  2  0
  3  4  1  0
  4  5  1  0
  5  6  1  0
  6  7  2  0
  7  8  1  0
  8  9  1  0
  9 10  2  0
  9 11  1  0
 11 12  1  0
 11 13  1  0
 13 14  2  0
 14 15  1  0
  5 16  2  0
 16 17  1  0
 17 18  2  0
 18 19  1  0
 19 20  2  0
 20 21  1  0
 21 22  2  0
 16  2  1  0
 22 17  1  0
 15  4  1  0
 15  8  2  0
  1 23  1  0
  1 24  1  0
  1 25  1  0
  7 26  1  0
 12 27  1  0
 12 28  1  0
 13 29  1  0
 14 30  1  0
 18 31  1  0
 19 32  1  0
 20 33  1  0
 21 34  1  0
 22 35  1  0
M  END
$$$$
