
     RDKit          3D

 30 32  0  0  0  0  0  0  0  0999 V2000
    3.5201    2.7928   -0.7361 N   0  0  0  0  0  0  0  0  0  0  0  0
    4.0709    1.5416   -0.7520 C   0  0  0  0  0  0  0  0  0  0  0  0
    5.2851    1.3876   -0.7375 O   0  0  0  0  0  0  0  0  0  0  0  0
    3.1418    0.3832   -0.8306 C   0  0  0  0  0  0  0  0  0  0  0  0
    3.6323   -0.8311   -1.3140 C   0  0  0  0  0  0  0  0  0  0  0  0
    2.7804   -1.9292   -1.4291 C   0  0  0  0  0  0  0  0  0  0  0  0
    1.4376   -1.8309   -1.0402 C   0  0  0  0  0  0  0  0  0  0  0  0
    0.4291   -3.1775   -1.4518 Cl  0  0  0  0  0  0  0  0  0  0  0  0
    0.9374   -0.6319   -0.4932 C   0  0  0  0  0  0  0  0  0  0  0  0
   -0.3989   -0.4870   -0.0298 N   0  0  0  0  0  0  0  0  0  0  0  0
   -1.0590   -1.4149    0.7470 C   0  0  0  0  0  0  0  0  0  0  0  0
   -0.6761   -2.4546    1.2513 O   0  0  0  0  0  0  0  0  0  0  0  0
   -2.3791   -0.8591    1.0333 C   0  0  0  0  0  0  0  0  0  0  0  0
   -3.4453   -1.3996    1.7264 C   0  0  0  0  0  0  0  0  0  0  0  0
   -4.5874   -0.6049    1.8652 C   0  0  0  0  0  0  0  0  0  0  0  0
   -4.6328    0.6956    1.3221 C   0  0  0  0  0  0  0  0  0  0  0  0
   -3.5363    1.2226    0.6324 C   0  0  0  0  0  0  0  0  0  0  0  0
   -2.4218    0.4153    0.5060 C   0  0  0  0  0  0  0  0  0  0  0  0
   -1.1360    0.6722   -0.1369 C   0  0  0  0  0  0  0  0  0  0  0  0
   -0.8621    1.7420   -0.6524 O   0  0  0  0  0  0  0  0  0  0  0  0
    1.8063    0.4743   -0.4144 C   0  0  0  0  0  0  0  0  0  0  0  0
    4.1719    3.5642   -0.8080 H   0  0  0  0  0  0  0  0  0  0  0  0
    2.5647    2.9716   -1.0151 H   0  0  0  0  0  0  0  0  0  0  0  0
    4.6722   -0.9187   -1.6251 H   0  0  0  0  0  0  0  0  0  0  0  0
    3.1639   -2.8556   -1.8520 H   0  0  0  0  0  0  0  0  0  0  0  0
   -3.3932   -2.3992    2.1466 H   0  0  0  0  0  0  0  0  0  0  0  0
   -5.4519   -0.9923    2.4021 H   0  0  0  0  0  0  0  0  0  0  0  0
   -5.5327    1.2961    1.4451 H   0  0  0  0  0  0  0  0  0  0  0  0
   -3.5570    2.2236    0.2136 H   0  0  0  0  0  0  0  0  0  0  0  0
    1.4558    1.4036    0.0273 H   0  0  0  0  0  0  0  0  0  0  0  0
  1  2  1  0
  2  3  2  0
  2  4  1  0
  4  5  2  0
  5  6  1  0
  6  7  2  0
  7  8  1  0
  7  9  1  0
  9 10  1  0
 10 11  1  0
 11 12  2  0
 11 13  1  0
 13 14  2  0
 14 15  1  0
 15 16  2  0
 16 17  1  0
 17 18  2  0
 18 19  1  0
 19 20  2  0
  9 21  2  0
 21  4  1  0
 19 10  1  0
 18 13  1  0
  1 22  1  0
  1 23  1  0
  5 24  1  0
  6 25  1  0
 14 26  1  0
 15 27  1  0
 16 28  1  0
 17 29  1  0
 21 30  1  0
M  END
$$$$
