
     RDKit          3D

 42 45  0  0  0  0  0  0  0  0999 V2000
   -2.9313   -0.3837    2.6295 O   0  0  0  0  0  0  0  0  0  0  0  0
   -2.8148    0.0057    1.4704 C   0  0  0  0  0  0  0  0  0  0  0  0
   -4.0123    0.5642    0.8034 C   0  0  0  0  0  0  0  0  0  0  0  0
   -5.1844   -0.1976    0.7791 C   0  0  0  0  0  0  0  0  0  0  0  0
   -6.3293    0.3144    0.1682 C   0  0  0  0  0  0  0  0  0  0  0  0
   -6.3055    1.5885   -0.4018 C   0  0  0  0  0  0  0  0  0  0  0  0
   -5.1421    2.3588   -0.3544 C   0  0  0  0  0  0  0  0  0  0  0  0
   -3.9939    1.8514    0.2550 C   0  0  0  0  0  0  0  0  0  0  0  0
   -1.6180   -0.0542    0.7643 N   0  0  0  0  0  0  0  0  0  0  0  0
   -0.4280   -0.5493    1.4585 C   0  0  0  0  0  0  0  0  0  0  0  0
    0.8623   -0.0365    0.8125 C   0  0  0  0  0  0  0  0  0  0  0  0
    0.9704   -0.3981   -0.6472 N   0  0  0  0  0  0  0  0  0  0  0  0
    2.1688   -1.5787   -1.0098 S   0  0  0  0  0  6  0  0  0  0  0  0
    2.1124   -1.8209   -2.4352 O   0  0  0  0  0  0  0  0  0  0  0  0
    1.9726   -2.6318   -0.0382 O   0  0  0  0  0  0  0  0  0  0  0  0
    3.6792   -0.7450   -0.6936 C   0  0  0  0  0  0  0  0  0  0  0  0
    3.7882    0.6532   -0.8758 C   0  0  0  0  0  0  0  0  0  0  0  0
    4.9831    1.3701   -0.6375 C   0  0  0  0  0  0  0  0  0  0  0  0
    6.1693    0.7529   -0.2080 C   0  0  0  0  0  0  0  0  0  0  0  0
    6.1202   -0.6515   -0.0319 C   0  0  0  0  0  0  0  0  0  0  0  0
    7.1462   -1.4211    0.3597 N   0  0  0  0  0  0  0  0  0  0  0  0
    6.5786   -2.9800    0.3936 S   0  0  0  0  0  0  0  0  0  0  0  0
    5.0086   -2.7447   -0.0811 N   0  0  0  0  0  0  0  0  0  0  0  0
    4.8464   -1.4279   -0.2844 C   0  0  0  0  0  0  0  0  0  0  0  0
   -0.3535   -0.7311   -1.2768 C   0  0  0  0  0  0  0  0  0  0  0  0
   -1.4932    0.1117   -0.6896 C   0  0  0  0  0  0  0  0  0  0  0  0
   -5.2047   -1.1835    1.2380 H   0  0  0  0  0  0  0  0  0  0  0  0
   -7.2421   -0.2759    0.1446 H   0  0  0  0  0  0  0  0  0  0  0  0
   -7.2016    1.9876   -0.8717 H   0  0  0  0  0  0  0  0  0  0  0  0
   -5.1360    3.3585   -0.7819 H   0  0  0  0  0  0  0  0  0  0  0  0
   -3.0990    2.4641    0.3161 H   0  0  0  0  0  0  0  0  0  0  0  0
   -0.4633   -0.2441    2.5102 H   0  0  0  0  0  0  0  0  0  0  0  0
   -0.4662   -1.6448    1.4303 H   0  0  0  0  0  0  0  0  0  0  0  0
    1.7251   -0.4014    1.3790 H   0  0  0  0  0  0  0  0  0  0  0  0
    0.8946    1.0588    0.8683 H   0  0  0  0  0  0  0  0  0  0  0  0
    2.9210    1.2134   -1.2292 H   0  0  0  0  0  0  0  0  0  0  0  0
    4.9873    2.4487   -0.8011 H   0  0  0  0  0  0  0  0  0  0  0  0
    7.0808    1.3121   -0.0309 H   0  0  0  0  0  0  0  0  0  0  0  0
   -0.5783   -1.7943   -1.1278 H   0  0  0  0  0  0  0  0  0  0  0  0
   -0.2863   -0.5364   -2.3526 H   0  0  0  0  0  0  0  0  0  0  0  0
   -1.2976    1.1745   -0.8726 H   0  0  0  0  0  0  0  0  0  0  0  0
   -2.4339   -0.1558   -1.1803 H   0  0  0  0  0  0  0  0  0  0  0  0
  1  2  2  0
  2  3  1  0
  3  4  2  0
  4  5  1  0
  5  6  2  0
  6  7  1  0
  7  8  2  0
  2  9  1  0
  9 10  1  0
 10 11  1  0
 11 12  1  0
 12 13  1  0
 13 14  2  0
 13 15  2  0
 13 16  1  0
 16 17  2  0
 17 18  1  0
 18 19  2  0
 19 20  1  0
 20 21  2  0
 21 22  1  0
 22 23  1  0
 23 24  2  0
 12 25  1  0
 25 26  1  0
  8  3  1  0
 26  9  1  0
 24 16  1  0
 24 20  1  0
  4 27  1  0
  5 28  1  0
  6 29  1  0
  7 30  1  0
  8 31  1  0
 10 32  1  0
 10 33  1  0
 11 34  1  0
 11 35  1  0
 17 36  1  0
 18 37  1  0
 19 38  1  0
 25 39  1  0
 25 40  1  0
 26 41  1  0
 26 42  1  0
M  END
$$$$
