
     RDKit          3D

 45 47  0  0  0  0  0  0  0  0999 V2000
   -0.3083   -1.7470   -2.0549 C   0  0  0  0  0  0  0  0  0  0  0  0
   -1.0277   -1.0886   -0.9188 C   0  0  0  0  0  0  0  0  0  0  0  0
   -0.4833   -0.5363    0.1791 C   0  0  0  0  0  0  0  0  0  0  0  0
    0.7962   -0.3084    0.6124 N   0  0  0  0  0  0  0  0  0  0  0  0
    1.9335   -0.1398   -0.1520 C   0  0  0  0  0  0  0  0  0  0  0  0
    1.8933   -0.0410   -1.3753 O   0  0  0  0  0  0  0  0  0  0  0  0
    3.1159   -0.0707    0.6174 N   0  0  0  0  0  0  0  0  0  0  0  0
    3.2062   -0.7842    1.8945 C   0  0  0  0  0  0  0  0  0  0  0  0
    4.3202    0.5578    0.1156 C   0  0  0  0  0  0  0  0  0  0  0  0
    4.3045    1.4004   -1.0072 C   0  0  0  0  0  0  0  0  0  0  0  0
    5.4676    2.0262   -1.4751 C   0  0  0  0  0  0  0  0  0  0  0  0
    6.6778    1.8339   -0.8215 C   0  0  0  0  0  0  0  0  0  0  0  0
    6.7217    1.0218    0.3043 C   0  0  0  0  0  0  0  0  0  0  0  0
    5.5564    0.3978    0.7694 C   0  0  0  0  0  0  0  0  0  0  0  0
   -1.6304   -0.1402    1.0545 C   0  0  0  0  0  0  0  0  0  0  0  0
   -1.4595    0.3974    2.1402 O   0  0  0  0  0  0  0  0  0  0  0  0
   -2.7954   -0.4471    0.3491 N   0  0  0  0  0  0  0  0  0  0  0  0
   -4.0489    0.1981    0.5169 C   0  0  0  0  0  0  0  0  0  0  0  0
   -4.4263    0.7212    1.7614 C   0  0  0  0  0  0  0  0  0  0  0  0
   -5.6619    1.3546    1.9329 C   0  0  0  0  0  0  0  0  0  0  0  0
   -6.5385    1.4800    0.8594 C   0  0  0  0  0  0  0  0  0  0  0  0
   -6.1788    0.9755   -0.3864 C   0  0  0  0  0  0  0  0  0  0  0  0
   -4.9438    0.3412   -0.5551 C   0  0  0  0  0  0  0  0  0  0  0  0
   -2.4395   -1.0854   -0.8764 N   0  0  0  0  0  0  0  0  0  0  0  0
   -3.1541   -2.3530   -1.1093 C   0  0  0  0  0  0  0  0  0  0  0  0
    0.6747   -2.1205   -1.7550 H   0  0  0  0  0  0  0  0  0  0  0  0
   -0.8496   -2.6207   -2.4288 H   0  0  0  0  0  0  0  0  0  0  0  0
   -0.1907   -1.0456   -2.8865 H   0  0  0  0  0  0  0  0  0  0  0  0
    0.8328    0.1466    1.5194 H   0  0  0  0  0  0  0  0  0  0  0  0
    3.4799   -0.0792    2.6855 H   0  0  0  0  0  0  0  0  0  0  0  0
    2.2714   -1.2740    2.1775 H   0  0  0  0  0  0  0  0  0  0  0  0
    3.9509   -1.5827    1.8118 H   0  0  0  0  0  0  0  0  0  0  0  0
    3.3864    1.6169   -1.5455 H   0  0  0  0  0  0  0  0  0  0  0  0
    5.4161    2.6679   -2.3511 H   0  0  0  0  0  0  0  0  0  0  0  0
    7.5794    2.3190   -1.1849 H   0  0  0  0  0  0  0  0  0  0  0  0
    7.6626    0.8698    0.8269 H   0  0  0  0  0  0  0  0  0  0  0  0
    5.6608   -0.2213    1.6543 H   0  0  0  0  0  0  0  0  0  0  0  0
   -3.7759    0.6322    2.6277 H   0  0  0  0  0  0  0  0  0  0  0  0
   -5.9346    1.7498    2.9082 H   0  0  0  0  0  0  0  0  0  0  0  0
   -7.4962    1.9762    0.9922 H   0  0  0  0  0  0  0  0  0  0  0  0
   -6.8524    1.0835   -1.2326 H   0  0  0  0  0  0  0  0  0  0  0  0
   -4.6788   -0.0088   -1.5491 H   0  0  0  0  0  0  0  0  0  0  0  0
   -3.0933   -2.6304   -2.1665 H   0  0  0  0  0  0  0  0  0  0  0  0
   -4.2170   -2.2831   -0.8597 H   0  0  0  0  0  0  0  0  0  0  0  0
   -2.7233   -3.1598   -0.5052 H   0  0  0  0  0  0  0  0  0  0  0  0
  1  2  1  0
  2  3  2  0
  3  4  1  0
  4  5  1  0
  5  6  2  0
  5  7  1  0
  7  8  1  0
  7  9  1  0
  9 10  2  0
 10 11  1  0
 11 12  2  0
 12 13  1  0
 13 14  2  0
  3 15  1  0
 15 16  2  0
 15 17  1  0
 17 18  1  0
 18 19  2  0
 19 20  1  0
 20 21  2  0
 21 22  1  0
 22 23  2  0
 17 24  1  0
 24 25  1  0
 24  2  1  0
 14  9  1  0
 23 18  1  0
  1 26  1  0
  1 27  1  0
  1 28  1  0
  4 29  1  0
  8 30  1  0
  8 31  1  0
  8 32  1  0
 10 33  1  0
 11 34  1  0
 12 35  1  0
 13 36  1  0
 14 37  1  0
 19 38  1  0
 20 39  1  0
 21 40  1  0
 22 41  1  0
 23 42  1  0
 25 43  1  0
 25 44  1  0
 25 45  1  0
M  END
$$$$
