
     RDKit          3D

 37 39  0  0  0  0  0  0  0  0999 V2000
   -0.5489    2.0843    0.9693 O   0  0  0  0  0  0  0  0  0  0  0  0
   -0.4082    0.9347    1.3790 C   0  0  0  0  0  0  0  0  0  0  0  0
   -0.0374    0.6432    2.8236 C   0  0  0  0  0  0  0  0  0  0  0  0
    1.2800   -0.6168    2.9694 S   0  0  0  0  0  0  0  0  0  0  0  0
    2.5909    0.0854    1.9784 C   0  0  0  0  0  0  0  0  0  0  0  0
    3.3539   -0.7883    1.1923 C   0  0  0  0  0  0  0  0  0  0  0  0
    4.3950   -0.3044    0.3946 C   0  0  0  0  0  0  0  0  0  0  0  0
    4.6832    1.0574    0.3869 C   0  0  0  0  0  0  0  0  0  0  0  0
    5.9625    1.6559   -0.5941 Cl  0  0  0  0  0  0  0  0  0  0  0  0
    3.9438    1.9354    1.1752 C   0  0  0  0  0  0  0  0  0  0  0  0
    2.9036    1.4490    1.9743 C   0  0  0  0  0  0  0  0  0  0  0  0
   -0.6320   -0.1840    0.6002 N   0  0  0  0  0  0  0  0  0  0  0  0
   -0.8705   -0.0685   -0.8225 C   0  0  0  0  0  0  0  0  0  0  0  0
   -0.9207   -1.4349   -1.5374 C   0  0  0  0  0  0  0  0  0  0  0  0
   -2.2739   -1.3949   -2.2710 C   0  0  0  0  0  0  0  0  0  0  0  0
   -3.4008   -1.5525   -1.2373 C   0  0  0  0  0  0  0  0  0  0  0  0
   -3.3912   -0.2009   -0.5100 C   0  0  0  0  0  0  0  0  0  0  0  0
   -2.2379    0.5553   -1.1969 C   0  0  0  0  0  0  0  0  0  0  0  0
   -2.3920    0.0823   -2.6442 C   0  0  0  0  0  0  0  0  0  0  0  0
   -0.9307    0.2744    3.3376 H   0  0  0  0  0  0  0  0  0  0  0  0
    0.2739    1.5676    3.3181 H   0  0  0  0  0  0  0  0  0  0  0  0
    3.1454   -1.8562    1.1916 H   0  0  0  0  0  0  0  0  0  0  0  0
    4.9749   -0.9941   -0.2127 H   0  0  0  0  0  0  0  0  0  0  0  0
    4.1701    2.9986    1.1761 H   0  0  0  0  0  0  0  0  0  0  0  0
    2.3556    2.1570    2.5897 H   0  0  0  0  0  0  0  0  0  0  0  0
   -0.2160   -1.0425    0.9457 H   0  0  0  0  0  0  0  0  0  0  0  0
   -0.0575    0.5348   -1.2472 H   0  0  0  0  0  0  0  0  0  0  0  0
   -0.8426   -2.2911   -0.8591 H   0  0  0  0  0  0  0  0  0  0  0  0
   -0.1005   -1.5017   -2.2619 H   0  0  0  0  0  0  0  0  0  0  0  0
   -2.3410   -2.0994   -3.1023 H   0  0  0  0  0  0  0  0  0  0  0  0
   -4.3663   -1.7070   -1.7319 H   0  0  0  0  0  0  0  0  0  0  0  0
   -3.2297   -2.3896   -0.5530 H   0  0  0  0  0  0  0  0  0  0  0  0
   -4.3424    0.3183   -0.6757 H   0  0  0  0  0  0  0  0  0  0  0  0
   -3.2575   -0.3132    0.5697 H   0  0  0  0  0  0  0  0  0  0  0  0
   -2.2863    1.6370   -1.0555 H   0  0  0  0  0  0  0  0  0  0  0  0
   -3.3615    0.3409   -3.0831 H   0  0  0  0  0  0  0  0  0  0  0  0
   -1.5872    0.4286   -3.3012 H   0  0  0  0  0  0  0  0  0  0  0  0
  1  2  2  0
  2  3  1  0
  3  4  1  0
  4  5  1  0
  5  6  2  0
  6  7  1  0
  7  8  2  0
  8  9  1  0
  8 10  1  0
 10 11  2  0
  2 12  1  0
 12 13  1  0
 13 14  1  0
 14 15  1  0
 15 16  1  0
 16 17  1  0
 17 18  1  0
 18 19  1  0
 11  5  1  0
 18 13  1  0
 19 15  1  0
  3 20  1  0
  3 21  1  0
  6 22  1  0
  7 23  1  0
 10 24  1  0
 11 25  1  0
 12 26  1  0
 13 27  1  0
 14 28  1  0
 14 29  1  0
 15 30  1  0
 16 31  1  0
 16 32  1  0
 17 33  1  0
 17 34  1  0
 18 35  1  0
 19 36  1  0
 19 37  1  0
M  END
$$$$
