
     RDKit          3D

 33 34  0  0  0  0  0  0  0  0999 V2000
   -2.8040    4.4900    5.7863 N   0  0  0  0  0  0  0  0  0  0  0  0
   -2.4939    3.6407    5.0586 C   0  0  0  0  0  0  0  0  0  0  0  0
   -2.1135    2.5934    4.1566 C   0  0  0  0  0  0  0  0  0  0  0  0
   -1.4310    1.4707    4.6298 C   0  0  0  0  0  0  0  0  0  0  0  0
   -1.0643    0.4541    3.7439 C   0  0  0  0  0  0  0  0  0  0  0  0
   -1.3721    0.5461    2.3835 C   0  0  0  0  0  0  0  0  0  0  0  0
   -0.9561   -0.5180    1.6343 O   0  0  0  0  0  0  0  0  0  0  0  0
   -1.2092   -0.4699    0.2270 C   0  0  0  0  0  0  0  0  0  0  0  0
   -0.6527   -1.7453   -0.4157 C   0  0  0  0  0  0  0  0  0  0  0  0
    0.7799   -1.7832   -0.3823 O   0  0  0  0  0  0  0  0  0  0  0  0
    1.4060   -1.0786   -1.4568 C   0  0  0  0  0  0  0  0  0  0  0  0
    1.6228   -2.0066   -2.6447 C   0  0  0  0  0  0  0  0  0  0  0  0
    2.2957   -1.3397   -3.7313 N   0  0  0  0  0  0  0  0  0  0  0  0
    3.5858   -1.4846   -4.1316 C   0  0  0  0  0  0  0  0  0  0  0  0
    3.8139   -0.6999   -5.1594 N   0  0  0  0  0  0  0  0  0  0  0  0
    2.6076   -0.0890   -5.3539 C   0  0  0  0  0  0  0  0  0  0  0  0
    1.6444   -0.4472   -4.4997 N   0  0  0  0  0  0  0  0  0  0  0  0
   -2.0546    1.6680    1.9119 C   0  0  0  0  0  0  0  0  0  0  0  0
   -2.4241    2.6892    2.7962 C   0  0  0  0  0  0  0  0  0  0  0  0
   -1.1792    1.3765    5.6842 H   0  0  0  0  0  0  0  0  0  0  0  0
   -0.5313   -0.4186    4.1158 H   0  0  0  0  0  0  0  0  0  0  0  0
   -0.7249    0.4131   -0.2029 H   0  0  0  0  0  0  0  0  0  0  0  0
   -2.2907   -0.4348    0.0520 H   0  0  0  0  0  0  0  0  0  0  0  0
   -1.0107   -1.8489   -1.4456 H   0  0  0  0  0  0  0  0  0  0  0  0
   -0.9976   -2.6165    0.1514 H   0  0  0  0  0  0  0  0  0  0  0  0
    2.3764   -0.7296   -1.0855 H   0  0  0  0  0  0  0  0  0  0  0  0
    0.8336   -0.1864   -1.7349 H   0  0  0  0  0  0  0  0  0  0  0  0
    2.2196   -2.8766   -2.3471 H   0  0  0  0  0  0  0  0  0  0  0  0
    0.6730   -2.3952   -3.0283 H   0  0  0  0  0  0  0  0  0  0  0  0
    4.2945   -2.1500   -3.6584 H   0  0  0  0  0  0  0  0  0  0  0  0
    2.4282    0.6360   -6.1377 H   0  0  0  0  0  0  0  0  0  0  0  0
   -2.3156    1.7820    0.8648 H   0  0  0  0  0  0  0  0  0  0  0  0
   -2.9558    3.5587    2.4133 H   0  0  0  0  0  0  0  0  0  0  0  0
  1  2  3  0
  2  3  1  0
  3  4  2  0
  4  5  1  0
  5  6  2  0
  6  7  1  0
  7  8  1  0
  8  9  1  0
  9 10  1  0
 10 11  1  0
 11 12  1  0
 12 13  1  0
 13 14  1  0
 14 15  2  0
 15 16  1  0
 16 17  2  0
  6 18  1  0
 18 19  2  0
 19  3  1  0
 17 13  1  0
  4 20  1  0
  5 21  1  0
  8 22  1  0
  8 23  1  0
  9 24  1  0
  9 25  1  0
 11 26  1  0
 11 27  1  0
 12 28  1  0
 12 29  1  0
 14 30  1  0
 16 31  1  0
 18 32  1  0
 19 33  1  0
M  END
$$$$
