
     RDKit          3D

 30 32  0  0  0  0  0  0  0  0999 V2000
    3.5467    1.6707    3.0721 N   0  0  0  0  0  0  0  0  0  0  0  0
    2.5734    1.4076    2.4956 C   0  0  0  0  0  0  0  0  0  0  0  0
    1.4055    1.0482    1.7519 C   0  0  0  0  0  0  0  0  0  0  0  0
    0.1787    1.6016    2.0704 C   0  0  0  0  0  0  0  0  0  0  0  0
    0.0365    2.5055    3.0732 O   0  0  0  0  0  0  0  0  0  0  0  0
   -0.9886    1.3176    1.4682 N   0  0  0  0  0  0  0  0  0  0  0  0
   -0.9600    0.4030    0.4637 C   0  0  0  0  0  0  0  0  0  0  0  0
   -2.2913    0.1065   -0.0537 C   0  0  0  0  0  0  0  0  0  0  0  0
   -3.4458    0.8556   -0.1853 C   0  0  0  0  0  0  0  0  0  0  0  0
   -4.4363   -0.0083   -0.7111 C   0  0  0  0  0  0  0  0  0  0  0  0
   -3.8349   -1.2361   -0.8498 C   0  0  0  0  0  0  0  0  0  0  0  0
   -2.5396   -1.1799   -0.4459 O   0  0  0  0  0  0  0  0  0  0  0  0
    0.2303   -0.1814    0.0119 C   0  0  0  0  0  0  0  0  0  0  0  0
    1.4343    0.1372    0.6875 C   0  0  0  0  0  0  0  0  0  0  0  0
    2.6869   -0.5925    0.2601 C   0  0  0  0  0  0  0  0  0  0  0  0
    2.8334   -0.6197   -1.2596 C   0  0  0  0  0  0  0  0  0  0  0  0
    1.5309   -0.8804   -2.0196 C   0  0  0  0  0  0  0  0  0  0  0  0
    0.3157   -1.1613   -1.1331 C   0  0  0  0  0  0  0  0  0  0  0  0
   -0.9255    2.6600    3.0401 H   0  0  0  0  0  0  0  0  0  0  0  0
   -3.5493    1.8999    0.0748 H   0  0  0  0  0  0  0  0  0  0  0  0
   -5.4635    0.2309   -0.9478 H   0  0  0  0  0  0  0  0  0  0  0  0
   -4.1747   -2.2021   -1.1968 H   0  0  0  0  0  0  0  0  0  0  0  0
    2.6333   -1.6173    0.6492 H   0  0  0  0  0  0  0  0  0  0  0  0
    3.5915   -0.1436    0.6826 H   0  0  0  0  0  0  0  0  0  0  0  0
    3.2383    0.3443   -1.5956 H   0  0  0  0  0  0  0  0  0  0  0  0
    3.5838   -1.3700   -1.5367 H   0  0  0  0  0  0  0  0  0  0  0  0
    1.3163    0.0019   -2.6381 H   0  0  0  0  0  0  0  0  0  0  0  0
    1.6697   -1.7098   -2.7234 H   0  0  0  0  0  0  0  0  0  0  0  0
   -0.5640   -1.1111   -1.7808 H   0  0  0  0  0  0  0  0  0  0  0  0
    0.3684   -2.1774   -0.7239 H   0  0  0  0  0  0  0  0  0  0  0  0
  1  2  3  0
  2  3  1  0
  3  4  2  0
  4  5  1  0
  4  6  1  0
  6  7  2  0
  7  8  1  0
  8  9  2  0
  9 10  1  0
 10 11  2  0
 11 12  1  0
  7 13  1  0
 13 14  2  0
 14 15  1  0
 15 16  1  0
 16 17  1  0
 17 18  1  0
 14  3  1  0
 12  8  1  0
 18 13  1  0
  5 19  1  0
  9 20  1  0
 10 21  1  0
 11 22  1  0
 15 23  1  0
 15 24  1  0
 16 25  1  0
 16 26  1  0
 17 27  1  0
 17 28  1  0
 18 29  1  0
 18 30  1  0
M  END
$$$$
