
     RDKit          3D

 32 33  0  0  0  0  0  0  0  0999 V2000
    0.0501    3.3785   -0.1017 C   0  0  0  0  0  0  0  0  0  0  0  0
   -0.6400    2.1422    0.0301 O   0  0  0  0  0  0  0  0  0  0  0  0
    0.1208    1.0083    0.1359 C   0  0  0  0  0  0  0  0  0  0  0  0
    1.4770    0.9319   -0.2012 C   0  0  0  0  0  0  0  0  0  0  0  0
    2.1963   -0.2716   -0.0625 C   0  0  0  0  0  0  0  0  0  0  0  0
    3.5581   -0.3517   -0.3975 C   0  0  0  0  0  0  0  0  0  0  0  0
    4.2625   -1.5478   -0.2491 C   0  0  0  0  0  0  0  0  0  0  0  0
    3.6164   -2.6802    0.2370 C   0  0  0  0  0  0  0  0  0  0  0  0
    2.2638   -2.6200    0.5740 C   0  0  0  0  0  0  0  0  0  0  0  0
    1.5417   -1.4250    0.4273 C   0  0  0  0  0  0  0  0  0  0  0  0
    0.1831   -1.3515    0.7566 C   0  0  0  0  0  0  0  0  0  0  0  0
   -0.5207   -0.1515    0.5916 C   0  0  0  0  0  0  0  0  0  0  0  0
   -1.9467   -0.1504    0.9790 C   0  0  0  0  0  0  0  0  0  0  0  0
   -2.2001   -0.2725    2.1762 O   0  0  0  0  0  0  0  0  0  0  0  0
   -2.9189   -0.0661   -0.0171 N   0  0  0  0  0  0  0  0  0  0  0  0
   -2.6362    0.0627   -1.4387 C   0  0  0  0  0  0  0  0  0  0  0  0
   -4.3055    0.0989    0.3803 C   0  0  0  0  0  0  0  0  0  0  0  0
   -0.6855    4.1830   -0.0071 H   0  0  0  0  0  0  0  0  0  0  0  0
    0.5099    3.4637   -1.0914 H   0  0  0  0  0  0  0  0  0  0  0  0
    0.7925    3.5103    0.6927 H   0  0  0  0  0  0  0  0  0  0  0  0
    2.0024    1.8025   -0.5818 H   0  0  0  0  0  0  0  0  0  0  0  0
    4.0853    0.5216   -0.7756 H   0  0  0  0  0  0  0  0  0  0  0  0
    5.3167   -1.5935   -0.5105 H   0  0  0  0  0  0  0  0  0  0  0  0
    4.1644   -3.6114    0.3561 H   0  0  0  0  0  0  0  0  0  0  0  0
    1.7761   -3.5153    0.9541 H   0  0  0  0  0  0  0  0  0  0  0  0
   -0.3407   -2.2219    1.1469 H   0  0  0  0  0  0  0  0  0  0  0  0
   -2.7128    1.1178   -1.7165 H   0  0  0  0  0  0  0  0  0  0  0  0
   -1.6431   -0.3102   -1.6962 H   0  0  0  0  0  0  0  0  0  0  0  0
   -3.3737   -0.5156   -2.0036 H   0  0  0  0  0  0  0  0  0  0  0  0
   -4.6259    1.1116    0.1174 H   0  0  0  0  0  0  0  0  0  0  0  0
   -4.4486   -0.0476    1.4539 H   0  0  0  0  0  0  0  0  0  0  0  0
   -4.9187   -0.6292   -0.1587 H   0  0  0  0  0  0  0  0  0  0  0  0
  1  2  1  0
  2  3  1  0
  3  4  2  0
  4  5  1  0
  5  6  2  0
  6  7  1  0
  7  8  2  0
  8  9  1  0
  9 10  2  0
 10 11  1  0
 11 12  2  0
 12 13  1  0
 13 14  2  0
 13 15  1  0
 15 16  1  0
 15 17  1  0
 12  3  1  0
 10  5  1  0
  1 18  1  0
  1 19  1  0
  1 20  1  0
  4 21  1  0
  6 22  1  0
  7 23  1  0
  8 24  1  0
  9 25  1  0
 11 26  1  0
 16 27  1  0
 16 28  1  0
 16 29  1  0
 17 30  1  0
 17 31  1  0
 17 32  1  0
M  END
$$$$
