
     RDKit          3D

 37 40  0  0  0  0  0  0  0  0999 V2000
   -0.5442   -0.2213   -0.9669 O   0  0  0  0  0  0  0  0  0  0  0  0
   -0.1235   -0.0802    0.1777 C   0  0  0  0  0  0  0  0  0  0  0  0
   -1.0716    0.0334    1.3799 C   0  0  0  0  0  0  0  0  0  0  0  0
   -2.4407    0.1021    0.9234 N   0  0  0  0  0  0  0  0  0  0  0  0
   -3.2206   -0.9914    0.6801 C   0  0  0  0  0  0  0  0  0  0  0  0
   -2.9799   -2.1649    0.8880 O   0  0  0  0  0  0  0  0  0  0  0  0
   -4.4708   -0.4949    0.1223 C   0  0  0  0  0  0  0  0  0  0  0  0
   -5.6131   -1.1383   -0.3006 C   0  0  0  0  0  0  0  0  0  0  0  0
   -6.6445   -0.3277   -0.7812 C   0  0  0  0  0  0  0  0  0  0  0  0
   -6.4708    1.0638   -0.8043 C   0  0  0  0  0  0  0  0  0  0  0  0
   -5.3506    1.7024   -0.3858 N   0  0  0  0  0  0  0  0  0  0  0  0
   -4.3869    0.8759    0.0584 C   0  0  0  0  0  0  0  0  0  0  0  0
   -3.0675    1.2700    0.5755 C   0  0  0  0  0  0  0  0  0  0  0  0
   -2.6329    2.4015    0.6837 O   0  0  0  0  0  0  0  0  0  0  0  0
    1.2102   -0.0216    0.5676 N   0  0  0  0  0  0  0  0  0  0  0  0
    2.3703   -0.1105   -0.2507 C   0  0  0  0  0  0  0  0  0  0  0  0
    2.2746   -0.2999   -1.6332 C   0  0  0  0  0  0  0  0  0  0  0  0
    3.4188   -0.3886   -2.4186 C   0  0  0  0  0  0  0  0  0  0  0  0
    4.6733   -0.2892   -1.8275 C   0  0  0  0  0  0  0  0  0  0  0  0
    4.8218   -0.1016   -0.4652 C   0  0  0  0  0  0  0  0  0  0  0  0
    6.0779   -0.0185    0.0071 N   0  0  0  0  0  0  0  0  0  0  0  0
    6.2571    0.1660    1.3288 C   0  0  0  0  0  0  0  0  0  0  0  0
    5.2198    0.2740    2.2268 C   0  0  0  0  0  0  0  0  0  0  0  0
    3.9204    0.1865    1.7349 C   0  0  0  0  0  0  0  0  0  0  0  0
    3.6682   -0.0076    0.3530 C   0  0  0  0  0  0  0  0  0  0  0  0
   -0.9407   -0.8503    2.0128 H   0  0  0  0  0  0  0  0  0  0  0  0
   -0.8298    0.9413    1.9420 H   0  0  0  0  0  0  0  0  0  0  0  0
   -5.7014   -2.2186   -0.2628 H   0  0  0  0  0  0  0  0  0  0  0  0
   -7.5735   -0.7653   -1.1354 H   0  0  0  0  0  0  0  0  0  0  0  0
   -7.2605    1.7142   -1.1746 H   0  0  0  0  0  0  0  0  0  0  0  0
    1.3730    0.1137    1.5537 H   0  0  0  0  0  0  0  0  0  0  0  0
    1.3203   -0.3848   -2.1423 H   0  0  0  0  0  0  0  0  0  0  0  0
    3.3321   -0.5353   -3.4922 H   0  0  0  0  0  0  0  0  0  0  0  0
    5.5629   -0.3597   -2.4497 H   0  0  0  0  0  0  0  0  0  0  0  0
    7.2921    0.2266    1.6524 H   0  0  0  0  0  0  0  0  0  0  0  0
    5.4138    0.4232    3.2829 H   0  0  0  0  0  0  0  0  0  0  0  0
    3.1168    0.2754    2.4568 H   0  0  0  0  0  0  0  0  0  0  0  0
  1  2  2  0
  2  3  1  0
  3  4  1  0
  4  5  1  0
  5  6  2  0
  5  7  1  0
  7  8  2  0
  8  9  1  0
  9 10  2  0
 10 11  1  0
 11 12  2  0
 12 13  1  0
 13 14  2  0
  2 15  1  0
 15 16  1  0
 16 17  2  0
 17 18  1  0
 18 19  2  0
 19 20  1  0
 20 21  2  0
 21 22  1  0
 22 23  2  0
 23 24  1  0
 24 25  2  0
 13  4  1  0
 25 16  1  0
 12  7  1  0
 25 20  1  0
  3 26  1  0
  3 27  1  0
  8 28  1  0
  9 29  1  0
 10 30  1  0
 15 31  1  0
 17 32  1  0
 18 33  1  0
 19 34  1  0
 22 35  1  0
 23 36  1  0
 24 37  1  0
M  END
$$$$
