
     RDKit          3D

 48 51  0  0  0  0  0  0  0  0999 V2000
    8.9468   -2.8951    0.4788 C   0  0  0  0  0  0  0  0  0  0  0  0
    7.6392   -2.4262   -0.0097 C   0  0  0  0  0  0  0  0  0  0  0  0
    6.7598   -1.4497    0.3869 C   0  0  0  0  0  0  0  0  0  0  0  0
    5.6922   -1.5371   -0.5330 C   0  0  0  0  0  0  0  0  0  0  0  0
    4.5314   -0.8002   -0.6143 N   0  0  0  0  0  0  0  0  0  0  0  0
    4.1846    0.2421    0.2196 C   0  0  0  0  0  0  0  0  0  0  0  0
    4.9042    0.6415    1.1323 O   0  0  0  0  0  0  0  0  0  0  0  0
    2.8809    0.8374   -0.0811 C   0  0  0  0  0  0  0  0  0  0  0  0
    1.8309    0.3643   -0.8509 C   0  0  0  0  0  0  0  0  0  0  0  0
    0.7295    1.2754   -0.8913 C   0  0  0  0  0  0  0  0  0  0  0  0
   -0.7362    0.9531   -1.7584 S   0  0  0  0  0  6  0  0  0  0  0  0
   -1.5185    2.1643   -1.6610 O   0  0  0  0  0  0  0  0  0  0  0  0
   -0.2788    0.4414   -3.0318 O   0  0  0  0  0  0  0  0  0  0  0  0
   -1.5560   -0.2959   -0.9491 N   0  0  0  0  0  0  0  0  0  0  0  0
   -1.8635   -0.0124    0.5017 C   0  0  0  0  0  0  0  0  0  0  0  0
   -3.0899   -0.8017    0.9874 C   0  0  0  0  0  0  0  0  0  0  0  0
   -4.3037   -0.4342    0.2263 N   0  0  0  0  0  0  0  0  0  0  0  0
   -5.0632    0.5936    0.8232 C   0  0  0  0  0  0  0  0  0  0  0  0
   -6.3484    0.8637    0.3458 C   0  0  0  0  0  0  0  0  0  0  0  0
   -7.1067    1.8809    0.9228 C   0  0  0  0  0  0  0  0  0  0  0  0
   -6.5703    2.6107    1.9713 C   0  0  0  0  0  0  0  0  0  0  0  0
   -5.2977    2.2828    2.3984 C   0  0  0  0  0  0  0  0  0  0  0  0
   -4.5461    1.2989    1.8533 N   0  0  0  0  0  0  0  0  0  0  0  0
   -4.0659   -0.1718   -1.2153 C   0  0  0  0  0  0  0  0  0  0  0  0
   -2.7527   -0.8120   -1.7023 C   0  0  0  0  0  0  0  0  0  0  0  0
    0.9604    2.4099   -0.1489 C   0  0  0  0  0  0  0  0  0  0  0  0
    2.4938    2.3698    0.6020 S   0  0  0  0  0  0  0  0  0  0  0  0
    5.9118   -2.5080   -1.4272 N   0  0  0  0  0  0  0  0  0  0  0  0
    7.1340   -3.0635   -1.0978 O   0  0  0  0  0  0  0  0  0  0  0  0
    9.2563   -2.3385    1.3690 H   0  0  0  0  0  0  0  0  0  0  0  0
    8.9007   -3.9569    0.7404 H   0  0  0  0  0  0  0  0  0  0  0  0
    9.7139   -2.7615   -0.2903 H   0  0  0  0  0  0  0  0  0  0  0  0
    6.8812   -0.7746    1.2208 H   0  0  0  0  0  0  0  0  0  0  0  0
    3.9480   -1.0635   -1.3934 H   0  0  0  0  0  0  0  0  0  0  0  0
    1.8232   -0.5890   -1.3670 H   0  0  0  0  0  0  0  0  0  0  0  0
   -2.0313    1.0589    0.6549 H   0  0  0  0  0  0  0  0  0  0  0  0
   -0.9894   -0.3094    1.0915 H   0  0  0  0  0  0  0  0  0  0  0  0
   -2.9116   -1.8735    0.8287 H   0  0  0  0  0  0  0  0  0  0  0  0
   -3.2203   -0.6953    2.0714 H   0  0  0  0  0  0  0  0  0  0  0  0
   -6.7693    0.2736   -0.4611 H   0  0  0  0  0  0  0  0  0  0  0  0
   -8.1067    2.0931    0.5567 H   0  0  0  0  0  0  0  0  0  0  0  0
   -7.1287    3.4089    2.4463 H   0  0  0  0  0  0  0  0  0  0  0  0
   -4.8291    2.8188    3.2186 H   0  0  0  0  0  0  0  0  0  0  0  0
   -4.0199    0.9068   -1.4174 H   0  0  0  0  0  0  0  0  0  0  0  0
   -4.8979   -0.5875   -1.7955 H   0  0  0  0  0  0  0  0  0  0  0  0
   -2.6382   -0.6443   -2.7787 H   0  0  0  0  0  0  0  0  0  0  0  0
   -2.7840   -1.9004   -1.5677 H   0  0  0  0  0  0  0  0  0  0  0  0
    0.3013    3.2571   -0.0049 H   0  0  0  0  0  0  0  0  0  0  0  0
  1  2  1  0
  2  3  2  0
  3  4  1  0
  4  5  1  0
  5  6  1  0
  6  7  2  0
  6  8  1  0
  8  9  2  0
  9 10  1  0
 10 11  1  0
 11 12  2  0
 11 13  2  0
 11 14  1  0
 14 15  1  0
 15 16  1  0
 16 17  1  0
 17 18  1  0
 18 19  2  0
 19 20  1  0
 20 21  2  0
 21 22  1  0
 22 23  2  0
 17 24  1  0
 24 25  1  0
 10 26  2  0
 26 27  1  0
  4 28  2  0
 28 29  1  0
 29  2  1  0
 27  8  1  0
 25 14  1  0
 23 18  1  0
  1 30  1  0
  1 31  1  0
  1 32  1  0
  3 33  1  0
  5 34  1  0
  9 35  1  0
 15 36  1  0
 15 37  1  0
 16 38  1  0
 16 39  1  0
 19 40  1  0
 20 41  1  0
 21 42  1  0
 22 43  1  0
 24 44  1  0
 24 45  1  0
 25 46  1  0
 25 47  1  0
 26 48  1  0
M  END
$$$$
