
     RDKit          3D

 37 39  0  0  0  0  0  0  0  0999 V2000
   -3.4936    2.2431    1.6772 C   0  0  0  0  0  0  0  0  0  0  0  0
   -2.7858    1.2515    0.9424 O   0  0  0  0  0  0  0  0  0  0  0  0
   -3.5300    0.2265    0.4013 C   0  0  0  0  0  0  0  0  0  0  0  0
   -4.9191    0.1057    0.5016 C   0  0  0  0  0  0  0  0  0  0  0  0
   -5.5710   -0.9801   -0.0863 C   0  0  0  0  0  0  0  0  0  0  0  0
   -4.8404   -1.9463   -0.7733 C   0  0  0  0  0  0  0  0  0  0  0  0
   -3.4526   -1.8341   -0.8795 C   0  0  0  0  0  0  0  0  0  0  0  0
   -2.7894   -0.7516   -0.2991 C   0  0  0  0  0  0  0  0  0  0  0  0
   -1.3887   -0.5666   -0.3573 N   0  0  0  0  0  0  0  0  0  0  0  0
   -0.4547   -1.3392   -1.0126 C   0  0  0  0  0  0  0  0  0  0  0  0
   -0.6736   -2.3142   -1.7213 O   0  0  0  0  0  0  0  0  0  0  0  0
    0.9623   -0.8989   -0.8484 C   0  0  0  0  0  0  0  0  0  0  0  0
    1.8648   -1.1508   -1.9139 C   0  0  0  0  0  0  0  0  0  0  0  0
    3.2114   -0.7764   -1.8296 C   0  0  0  0  0  0  0  0  0  0  0  0
    3.6204   -0.1630   -0.6633 C   0  0  0  0  0  0  0  0  0  0  0  0
    2.7466    0.0732    0.3834 C   0  0  0  0  0  0  0  0  0  0  0  0
    1.4118   -0.2843    0.3303 C   0  0  0  0  0  0  0  0  0  0  0  0
    3.5032    0.7256    1.4503 C   0  0  0  0  0  0  0  0  0  0  0  0
    3.0129    1.0960    2.4993 O   0  0  0  0  0  0  0  0  0  0  0  0
    4.7917    0.8281    1.0054 N   0  0  0  0  0  0  0  0  0  0  0  0
    5.8563    1.4532    1.7502 C   0  0  0  0  0  0  0  0  0  0  0  0
    4.9348    0.3395   -0.2642 C   0  0  0  0  0  0  0  0  0  0  0  0
    5.9215    0.3117   -0.9735 O   0  0  0  0  0  0  0  0  0  0  0  0
   -2.7628    2.9696    2.0455 H   0  0  0  0  0  0  0  0  0  0  0  0
   -4.2008    2.7792    1.0359 H   0  0  0  0  0  0  0  0  0  0  0  0
   -3.9961    1.8071    2.5469 H   0  0  0  0  0  0  0  0  0  0  0  0
   -5.5243    0.8355    1.0279 H   0  0  0  0  0  0  0  0  0  0  0  0
   -6.6514   -1.0733   -0.0077 H   0  0  0  0  0  0  0  0  0  0  0  0
   -5.3483   -2.7926   -1.2296 H   0  0  0  0  0  0  0  0  0  0  0  0
   -2.9169   -2.6082   -1.4192 H   0  0  0  0  0  0  0  0  0  0  0  0
   -1.0906    0.2837    0.1090 H   0  0  0  0  0  0  0  0  0  0  0  0
    1.5048   -1.6454   -2.8168 H   0  0  0  0  0  0  0  0  0  0  0  0
    3.9057   -0.9639   -2.6427 H   0  0  0  0  0  0  0  0  0  0  0  0
    0.7692   -0.1112    1.1871 H   0  0  0  0  0  0  0  0  0  0  0  0
    5.8911    2.5115    1.4750 H   0  0  0  0  0  0  0  0  0  0  0  0
    5.6678    1.3695    2.8238 H   0  0  0  0  0  0  0  0  0  0  0  0
    6.8137    0.9900    1.4963 H   0  0  0  0  0  0  0  0  0  0  0  0
  1  2  1  0
  2  3  1  0
  3  4  2  0
  4  5  1  0
  5  6  2  0
  6  7  1  0
  7  8  2  0
  8  9  1  0
  9 10  1  0
 10 11  2  0
 10 12  1  0
 12 13  2  0
 13 14  1  0
 14 15  2  0
 15 16  1  0
 16 17  2  0
 16 18  1  0
 18 19  2  0
 18 20  1  0
 20 21  1  0
 20 22  1  0
 22 23  2  0
  8  3  1  0
 17 12  1  0
 22 15  1  0
  1 24  1  0
  1 25  1  0
  1 26  1  0
  4 27  1  0
  5 28  1  0
  6 29  1  0
  7 30  1  0
  9 31  1  0
 13 32  1  0
 14 33  1  0
 17 34  1  0
 21 35  1  0
 21 36  1  0
 21 37  1  0
M  END
$$$$
