
     RDKit          3D

 55 55  0  0  0  0  0  0  0  0999 V2000
    5.8929   -0.9208   -1.6313 C   0  0  0  0  0  0  0  0  0  0  0  0
    4.9502   -0.1933   -0.8903 O   0  0  0  0  0  0  0  0  0  0  0  0
    4.3635   -0.6933    0.2572 C   0  0  0  0  0  0  0  0  0  0  0  0
    4.6747   -1.9262    0.7288 C   0  0  0  0  0  0  0  0  0  0  0  0
    4.1019   -2.4418    1.8692 C   0  0  0  0  0  0  0  0  0  0  0  0
    3.1835   -1.6779    2.5518 C   0  0  0  0  0  0  0  0  0  0  0  0
    2.8749   -0.4410    2.0743 C   0  0  0  0  0  0  0  0  0  0  0  0
    3.4260    0.1280    0.9229 C   0  0  0  0  0  0  0  0  0  0  0  0
    3.1786    1.3127    0.3964 O   0  0  0  0  0  0  0  0  0  0  0  0
    2.4957    2.4264    0.4581 C   0  0  0  0  0  0  0  0  0  0  0  0
    0.9990    2.4301    0.2599 C   0  0  0  0  0  0  0  0  0  0  0  0
    0.5913    3.7978    0.3984 O   0  0  0  0  0  0  0  0  0  0  0  0
    0.2131    1.5683    1.1883 C   0  0  0  0  0  0  0  0  0  0  0  0
   -1.1710    1.7044    0.9620 N   0  0  0  0  0  0  0  0  0  0  0  0
   -2.0221    0.9232    1.7843 C   0  0  0  0  0  0  0  0  0  0  0  0
   -3.1735    0.3645    1.0293 C   0  0  0  0  0  0  0  0  0  0  0  0
   -2.9143    0.0538   -0.3586 N   0  0  0  0  0  0  0  0  0  0  0  0
   -3.7216   -0.9052   -1.0454 C   0  0  0  0  0  0  0  0  0  0  0  0
   -3.1858   -2.0412   -1.6345 C   0  0  0  0  0  0  0  0  0  0  0  0
   -3.9959   -2.9334   -2.2833 C   0  0  0  0  0  0  0  0  0  0  0  0
   -5.3697   -2.6874   -2.3461 C   0  0  0  0  0  0  0  0  0  0  0  0
   -5.9255   -1.5507   -1.7599 C   0  0  0  0  0  0  0  0  0  0  0  0
   -5.0899   -0.6739   -1.1164 C   0  0  0  0  0  0  0  0  0  0  0  0
   -5.5674    0.4441   -0.5283 F   0  0  0  0  0  0  0  0  0  0  0  0
   -1.8165    0.7294   -1.0724 C   0  0  0  0  0  0  0  0  0  0  0  0
   -1.6640    2.0566   -0.3074 C   0  0  0  0  0  0  0  0  0  0  0  0
    0.6892    0.0000    0.0000 Cl  0  0  0  0  0  0  0  0  0  0  0  0
    0.6867    0.0000    0.0000 Cl  0  0  0  0  0  0  0  0  0  0  0  0
    6.8577   -0.9183   -1.1133 H   0  0  0  0  0  0  0  0  0  0  0  0
    6.0014   -0.5018   -2.6663 H   0  0  0  0  0  0  0  0  0  0  0  0
    5.5664   -1.9892   -1.7094 H   0  0  0  0  0  0  0  0  0  0  0  0
    5.4042   -2.5858    0.2280 H   0  0  0  0  0  0  0  0  0  0  0  0
    4.3759   -3.4298    2.2151 H   0  0  0  0  0  0  0  0  0  0  0  0
    2.7224   -2.0715    3.4548 H   0  0  0  0  0  0  0  0  0  0  0  0
    2.1585    0.1591    2.6343 H   0  0  0  0  0  0  0  0  0  0  0  0
    2.8669    3.1478   -0.3543 H   0  0  0  0  0  0  0  0  0  0  0  0
    2.6390    2.9988    1.4339 H   0  0  0  0  0  0  0  0  0  0  0  0
    0.7510    2.1540   -0.7783 H   0  0  0  0  0  0  0  0  0  0  0  0
    1.2854    4.3289   -0.0863 H   0  0  0  0  0  0  0  0  0  0  0  0
    0.5004    1.8274    2.2362 H   0  0  0  0  0  0  0  0  0  0  0  0
    0.5012    0.5055    0.9545 H   0  0  0  0  0  0  0  0  0  0  0  0
   -1.4604    0.0640    2.2447 H   0  0  0  0  0  0  0  0  0  0  0  0
   -2.4251    1.4864    2.6661 H   0  0  0  0  0  0  0  0  0  0  0  0
   -4.0106    1.1187    1.1031 H   0  0  0  0  0  0  0  0  0  0  0  0
   -3.5211   -0.5771    1.5257 H   0  0  0  0  0  0  0  0  0  0  0  0
   -2.1253   -2.2311   -1.5869 H   0  0  0  0  0  0  0  0  0  0  0  0
   -3.6195   -3.8389   -2.7609 H   0  0  0  0  0  0  0  0  0  0  0  0
   -6.0420   -3.3750   -2.8526 H   0  0  0  0  0  0  0  0  0  0  0  0
   -6.9915   -1.3445   -1.7992 H   0  0  0  0  0  0  0  0  0  0  0  0
   -2.0166    0.8647   -2.1286 H   0  0  0  0  0  0  0  0  0  0  0  0
   -0.9167    0.1429   -0.8276 H   0  0  0  0  0  0  0  0  0  0  0  0
   -2.7467    2.4143   -0.2249 H   0  0  0  0  0  0  0  0  0  0  0  0
   -1.0830    2.7971   -0.8419 H   0  0  0  0  0  0  0  0  0  0  0  0
   -0.6892    0.0000    0.0000 H   0  0  0  0  0  0  0  0  0  0  0  0
   -0.6867    0.0000    0.0000 H   0  0  0  0  0  0  0  0  0  0  0  0
  1  2  1  0
  2  3  1  0
  3  4  2  0
  4  5  1  0
  5  6  2  0
  6  7  1  0
  7  8  2  0
  8  9  1  0
  9 10  1  0
 10 11  1  0
 11 12  1  0
 11 13  1  0
 13 14  1  0
 14 15  1  0
 15 16  1  0
 16 17  1  0
 17 18  1  0
 18 19  2  0
 19 20  1  0
 20 21  2  0
 21 22  1  0
 22 23  2  0
 23 24  1  0
 17 25  1  0
 25 26  1  0
  8  3  1  0
 26 14  1  0
 23 18  1  0
  1 29  1  0
  1 30  1  0
  1 31  1  0
  4 32  1  0
  5 33  1  0
  6 34  1  0
  7 35  1  0
 10 36  1  0
 10 37  1  0
 11 38  1  0
 12 39  1  0
 13 40  1  0
 13 41  1  0
 15 42  1  0
 15 43  1  0
 16 44  1  0
 16 45  1  0
 19 46  1  0
 20 47  1  0
 21 48  1  0
 22 49  1  0
 25 50  1  0
 25 51  1  0
 26 52  1  0
 26 53  1  0
 27 54  1  0
 28 55  1  0
M  END
$$$$
