
     RDKit          3D

 42 44  0  0  0  0  0  0  0  0999 V2000
   -4.4139    2.5196   -2.1385 C   0  0  0  0  0  0  0  0  0  0  0  0
   -4.6634    1.8217   -0.8098 C   0  0  0  0  0  0  0  0  0  0  0  0
   -3.8070    0.5898   -0.6484 C   0  0  0  0  0  0  0  0  0  0  0  0
   -2.6150    0.6911    0.0906 C   0  0  0  0  0  0  0  0  0  0  0  0
   -1.7830   -0.4232    0.2610 C   0  0  0  0  0  0  0  0  0  0  0  0
   -0.5387   -0.3204    1.0383 C   0  0  0  0  0  0  0  0  0  0  0  0
   -0.2424    0.7238    1.6068 O   0  0  0  0  0  0  0  0  0  0  0  0
    0.3054   -1.5478    1.0958 C   0  0  0  0  0  0  0  0  0  0  0  0
    1.5049   -1.5220    1.7937 O   0  0  0  0  0  0  0  0  0  0  0  0
    2.4777   -0.6448    1.3731 C   0  0  0  0  0  0  0  0  0  0  0  0
    3.2578   -0.0550    2.3651 C   0  0  0  0  0  0  0  0  0  0  0  0
    4.2907    0.8157    2.0123 C   0  0  0  0  0  0  0  0  0  0  0  0
    4.5594    1.0949    0.6697 C   0  0  0  0  0  0  0  0  0  0  0  0
    5.5969    1.9618    0.4630 O   0  0  0  0  0  0  0  0  0  0  0  0
    5.8717    2.3255   -0.8836 C   0  0  0  0  0  0  0  0  0  0  0  0
    3.7875    0.4866   -0.3220 C   0  0  0  0  0  0  0  0  0  0  0  0
    2.7513   -0.3876    0.0280 C   0  0  0  0  0  0  0  0  0  0  0  0
   -0.1602   -2.6790    0.5329 C   0  0  0  0  0  0  0  0  0  0  0  0
    0.5791   -3.9837    0.5764 C   0  0  0  0  0  0  0  0  0  0  0  0
   -1.3578   -2.7712   -0.1600 O   0  0  0  0  0  0  0  0  0  0  0  0
   -2.1250   -1.6456   -0.2995 C   0  0  0  0  0  0  0  0  0  0  0  0
   -3.2988   -1.7622   -1.0394 C   0  0  0  0  0  0  0  0  0  0  0  0
   -4.1271   -0.6522   -1.2144 C   0  0  0  0  0  0  0  0  0  0  0  0
   -5.2486   -0.8656   -1.9637 O   0  0  0  0  0  0  0  0  0  0  0  0
   -3.3677    2.8305   -2.2310 H   0  0  0  0  0  0  0  0  0  0  0  0
   -5.0414    3.4128   -2.2197 H   0  0  0  0  0  0  0  0  0  0  0  0
   -4.6448    1.8662   -2.9862 H   0  0  0  0  0  0  0  0  0  0  0  0
   -5.7226    1.5580   -0.7097 H   0  0  0  0  0  0  0  0  0  0  0  0
   -4.4616    2.5245    0.0084 H   0  0  0  0  0  0  0  0  0  0  0  0
   -2.3275    1.6416    0.5394 H   0  0  0  0  0  0  0  0  0  0  0  0
    3.0562   -0.2608    3.4124 H   0  0  0  0  0  0  0  0  0  0  0  0
    4.8889    1.2831    2.7904 H   0  0  0  0  0  0  0  0  0  0  0  0
    6.1893    1.4565   -1.4692 H   0  0  0  0  0  0  0  0  0  0  0  0
    6.6998    3.0408   -0.8743 H   0  0  0  0  0  0  0  0  0  0  0  0
    5.0099    2.8199   -1.3441 H   0  0  0  0  0  0  0  0  0  0  0  0
    3.9680    0.6655   -1.3764 H   0  0  0  0  0  0  0  0  0  0  0  0
    2.1776   -0.8640   -0.7609 H   0  0  0  0  0  0  0  0  0  0  0  0
    0.7956   -4.3250   -0.4413 H   0  0  0  0  0  0  0  0  0  0  0  0
    1.5293   -3.9216    1.1148 H   0  0  0  0  0  0  0  0  0  0  0  0
   -0.0340   -4.7445    1.0706 H   0  0  0  0  0  0  0  0  0  0  0  0
   -3.5727   -2.7155   -1.4835 H   0  0  0  0  0  0  0  0  0  0  0  0
   -5.7437   -0.0380   -2.0613 H   0  0  0  0  0  0  0  0  0  0  0  0
  1  2  1  0
  2  3  1  0
  3  4  2  0
  4  5  1  0
  5  6  1  0
  6  7  2  0
  6  8  1  0
  8  9  1  0
  9 10  1  0
 10 11  2  0
 11 12  1  0
 12 13  2  0
 13 14  1  0
 14 15  1  0
 13 16  1  0
 16 17  2  0
  8 18  2  0
 18 19  1  0
 18 20  1  0
 20 21  1  0
 21 22  1  0
 22 23  2  0
 23 24  1  0
 23  3  1  0
 21  5  2  0
 17 10  1  0
  1 25  1  0
  1 26  1  0
  1 27  1  0
  2 28  1  0
  2 29  1  0
  4 30  1  0
 11 31  1  0
 12 32  1  0
 15 33  1  0
 15 34  1  0
 15 35  1  0
 16 36  1  0
 17 37  1  0
 19 38  1  0
 19 39  1  0
 19 40  1  0
 22 41  1  0
 24 42  1  0
M  END
$$$$
