
     RDKit          3D

 40 42  0  0  0  0  0  0  0  0999 V2000
   -4.3472   -0.1607   -1.9680 C   0  0  0  0  0  0  0  0  0  0  0  0
   -3.9689   -0.8554   -0.7324 N   0  0  0  0  0  0  0  0  0  0  0  0
   -3.9049   -2.3108   -0.8894 C   0  0  0  0  0  0  0  0  0  0  0  0
   -2.7320   -0.3259   -0.2622 C   0  0  0  0  0  0  0  0  0  0  0  0
   -1.5866   -0.9169   -0.6533 N   0  0  0  0  0  0  0  0  0  0  0  0
   -0.4271   -0.3921   -0.2365 C   0  0  0  0  0  0  0  0  0  0  0  0
    0.7068   -1.0599   -0.6929 N   0  0  0  0  0  0  0  0  0  0  0  0
    2.0806   -0.9008   -0.4909 C   0  0  0  0  0  0  0  0  0  0  0  0
    2.9609   -1.7642   -1.1633 C   0  0  0  0  0  0  0  0  0  0  0  0
    4.3483   -1.6512   -1.0173 C   0  0  0  0  0  0  0  0  0  0  0  0
    4.8900   -0.6580   -0.1986 C   0  0  0  0  0  0  0  0  0  0  0  0
    6.3696   -0.5715   -0.0746 C   0  0  0  0  0  0  0  0  0  0  0  0
    6.9014    0.6179    0.3419 N   0  0  0  0  0  0  0  0  0  0  0  0
    7.0968   -1.5124   -0.3670 O   0  0  0  0  0  0  0  0  0  0  0  0
    4.0292    0.2028    0.4865 C   0  0  0  0  0  0  0  0  0  0  0  0
    2.6406    0.0809    0.3333 C   0  0  0  0  0  0  0  0  0  0  0  0
   -0.3428    0.6910    0.5426 N   0  0  0  0  0  0  0  0  0  0  0  0
   -1.4762    1.2721    0.9443 C   0  0  0  0  0  0  0  0  0  0  0  0
   -1.3991    2.3897    1.7683 C   0  0  0  0  0  0  0  0  0  0  0  0
   -2.5414    3.0441    2.2390 C   0  0  0  0  0  0  0  0  0  0  0  0
   -3.7982    2.5738    1.8855 C   0  0  0  0  0  0  0  0  0  0  0  0
   -3.8987    1.4574    1.0596 C   0  0  0  0  0  0  0  0  0  0  0  0
   -2.7375    0.8027    0.5742 C   0  0  0  0  0  0  0  0  0  0  0  0
   -3.6142   -0.3234   -2.7676 H   0  0  0  0  0  0  0  0  0  0  0  0
   -4.4603    0.9176   -1.8097 H   0  0  0  0  0  0  0  0  0  0  0  0
   -5.3165   -0.5333   -2.3181 H   0  0  0  0  0  0  0  0  0  0  0  0
   -3.5861   -2.7936    0.0419 H   0  0  0  0  0  0  0  0  0  0  0  0
   -3.2346   -2.6160   -1.7019 H   0  0  0  0  0  0  0  0  0  0  0  0
   -4.9044   -2.6955   -1.1216 H   0  0  0  0  0  0  0  0  0  0  0  0
    0.4128   -1.8412   -1.2605 H   0  0  0  0  0  0  0  0  0  0  0  0
    2.5728   -2.5441   -1.8146 H   0  0  0  0  0  0  0  0  0  0  0  0
    5.0025   -2.3398   -1.5485 H   0  0  0  0  0  0  0  0  0  0  0  0
    7.9099    0.6884    0.2911 H   0  0  0  0  0  0  0  0  0  0  0  0
    6.3757    1.4791    0.3130 H   0  0  0  0  0  0  0  0  0  0  0  0
    4.4095    0.9603    1.1648 H   0  0  0  0  0  0  0  0  0  0  0  0
    2.0080    0.7684    0.8871 H   0  0  0  0  0  0  0  0  0  0  0  0
   -0.4183    2.7612    2.0573 H   0  0  0  0  0  0  0  0  0  0  0  0
   -2.4423    3.9131    2.8842 H   0  0  0  0  0  0  0  0  0  0  0  0
   -4.6946    3.0667    2.2521 H   0  0  0  0  0  0  0  0  0  0  0  0
   -4.8837    1.0794    0.7930 H   0  0  0  0  0  0  0  0  0  0  0  0
  1  2  1  0
  2  3  1  0
  2  4  1  0
  4  5  2  0
  5  6  1  0
  6  7  1  0
  7  8  1  0
  8  9  2  0
  9 10  1  0
 10 11  2  0
 11 12  1  0
 12 13  1  0
 12 14  2  0
 11 15  1  0
 15 16  2  0
  6 17  2  0
 17 18  1  0
 18 19  2  0
 19 20  1  0
 20 21  2  0
 21 22  1  0
 22 23  2  0
 23  4  1  0
 16  8  1  0
 23 18  1  0
  1 24  1  0
  1 25  1  0
  1 26  1  0
  3 27  1  0
  3 28  1  0
  3 29  1  0
  7 30  1  0
  9 31  1  0
 10 32  1  0
 13 33  1  0
 13 34  1  0
 15 35  1  0
 16 36  1  0
 19 37  1  0
 20 38  1  0
 21 39  1  0
 22 40  1  0
M  END
$$$$
