
     RDKit          3D

 35 36  0  0  0  0  0  0  0  0999 V2000
    5.9056    2.0595   -0.3379 C   0  0  0  0  0  0  0  0  0  0  0  0
    5.1330    1.8518    0.8401 O   0  0  0  0  0  0  0  0  0  0  0  0
    4.0511    1.0198    0.6343 C   0  0  0  0  0  0  0  0  0  0  0  0
    3.2531    0.7672    1.7370 C   0  0  0  0  0  0  0  0  0  0  0  0
    2.1473   -0.0671    1.5803 C   0  0  0  0  0  0  0  0  0  0  0  0
    1.8688   -0.6243    0.3310 C   0  0  0  0  0  0  0  0  0  0  0  0
    0.7404   -1.4588    0.2255 N   0  0  0  0  0  0  0  0  0  0  0  0
    0.2583   -2.0734   -0.9170 C   0  0  0  0  0  0  0  0  0  0  0  0
    0.7486   -2.0103   -2.0395 O   0  0  0  0  0  0  0  0  0  0  0  0
   -0.9916   -2.9157   -0.6466 C   0  0  0  0  0  0  0  0  0  0  0  0
   -1.8041   -2.3919    0.3951 O   0  0  0  0  0  0  0  0  0  0  0  0
   -2.5913   -1.2904    0.1336 C   0  0  0  0  0  0  0  0  0  0  0  0
   -2.8263   -0.7202   -1.0593 C   0  0  0  0  0  0  0  0  0  0  0  0
   -3.6214    0.3819   -1.2762 O   0  0  0  0  0  0  0  0  0  0  0  0
   -4.2584    0.9652   -0.1950 C   0  0  0  0  0  0  0  0  0  0  0  0
   -5.1171    2.1368   -0.5504 C   0  0  0  0  0  0  0  0  0  0  0  0
   -4.1115    0.5190    1.0590 C   0  0  0  0  0  0  0  0  0  0  0  0
   -3.2337   -0.6384    1.3154 C   0  0  0  0  0  0  0  0  0  0  0  0
   -3.0323   -1.0220    2.4633 O   0  0  0  0  0  0  0  0  0  0  0  0
    2.7342   -0.3079   -0.7131 C   0  0  0  0  0  0  0  0  0  0  0  0
    3.8178    0.5017   -0.5882 N   0  0  0  0  0  0  0  0  0  0  0  0
    5.3155    2.5525   -1.1184 H   0  0  0  0  0  0  0  0  0  0  0  0
    6.7347    2.7251   -0.0788 H   0  0  0  0  0  0  0  0  0  0  0  0
    6.3355    1.1199   -0.7022 H   0  0  0  0  0  0  0  0  0  0  0  0
    3.4877    1.2110    2.6978 H   0  0  0  0  0  0  0  0  0  0  0  0
    1.5157   -0.2691    2.4410 H   0  0  0  0  0  0  0  0  0  0  0  0
    0.1874   -1.5942    1.0686 H   0  0  0  0  0  0  0  0  0  0  0  0
   -0.6434   -3.9030   -0.3227 H   0  0  0  0  0  0  0  0  0  0  0  0
   -1.5632   -3.0656   -1.5687 H   0  0  0  0  0  0  0  0  0  0  0  0
   -2.4280   -1.0538   -2.0075 H   0  0  0  0  0  0  0  0  0  0  0  0
   -5.6014    2.5733    0.3292 H   0  0  0  0  0  0  0  0  0  0  0  0
   -4.5140    2.9173   -1.0253 H   0  0  0  0  0  0  0  0  0  0  0  0
   -5.9015    1.8318   -1.2505 H   0  0  0  0  0  0  0  0  0  0  0  0
   -4.5961    0.9676    1.9160 H   0  0  0  0  0  0  0  0  0  0  0  0
    2.6006   -0.6954   -1.7175 H   0  0  0  0  0  0  0  0  0  0  0  0
  1  2  1  0
  2  3  1  0
  3  4  2  0
  4  5  1  0
  5  6  2  0
  6  7  1  0
  7  8  1  0
  8  9  2  0
  8 10  1  0
 10 11  1  0
 11 12  1  0
 12 13  2  0
 13 14  1  0
 14 15  1  0
 15 16  1  0
 15 17  2  0
 17 18  1  0
 18 19  2  0
  6 20  1  0
 20 21  2  0
 21  3  1  0
 18 12  1  0
  1 22  1  0
  1 23  1  0
  1 24  1  0
  4 25  1  0
  5 26  1  0
  7 27  1  0
 10 28  1  0
 10 29  1  0
 13 30  1  0
 16 31  1  0
 16 32  1  0
 16 33  1  0
 17 34  1  0
 20 35  1  0
M  END
$$$$
