
     RDKit          3D

 35 37  0  0  0  0  0  0  0  0999 V2000
    6.1319    0.8225   -0.1312 C   0  0  0  0  0  0  0  0  0  0  0  0
    5.2386   -0.2355   -0.4560 O   0  0  0  0  0  0  0  0  0  0  0  0
    3.9359   -0.0877   -0.0671 C   0  0  0  0  0  0  0  0  0  0  0  0
    3.1059   -1.1656   -0.3954 C   0  0  0  0  0  0  0  0  0  0  0  0
    1.7506   -1.1502   -0.0603 C   0  0  0  0  0  0  0  0  0  0  0  0
    1.2187   -0.0368    0.5937 C   0  0  0  0  0  0  0  0  0  0  0  0
   -0.2125    0.0012    0.9761 C   0  0  0  0  0  0  0  0  0  0  0  0
   -0.4335    0.1041    2.1802 O   0  0  0  0  0  0  0  0  0  0  0  0
   -1.1742   -0.0529   -0.0468 N   0  0  0  0  0  0  0  0  0  0  0  0
   -0.7922    0.2285   -1.4380 C   0  0  0  0  0  0  0  0  0  0  0  0
   -1.8743    0.6720   -2.4067 C   0  0  0  0  0  0  0  0  0  0  0  0
   -1.6133    1.1188   -3.5233 O   0  0  0  0  0  0  0  0  0  0  0  0
   -3.1646    0.4600   -2.0316 N   0  0  0  0  0  0  0  0  0  0  0  0
   -3.5279   -0.0470   -0.7826 C   0  0  0  0  0  0  0  0  0  0  0  0
   -4.8916   -0.2692   -0.5508 C   0  0  0  0  0  0  0  0  0  0  0  0
   -5.3197   -0.7644    0.6769 C   0  0  0  0  0  0  0  0  0  0  0  0
   -4.3856   -1.0370    1.6686 C   0  0  0  0  0  0  0  0  0  0  0  0
   -3.0239   -0.8084    1.4375 C   0  0  0  0  0  0  0  0  0  0  0  0
   -2.5658   -0.2992    0.2134 C   0  0  0  0  0  0  0  0  0  0  0  0
    2.0441    1.0336    0.9490 C   0  0  0  0  0  0  0  0  0  0  0  0
    3.4012    1.0104    0.6109 C   0  0  0  0  0  0  0  0  0  0  0  0
    7.1233    0.5495   -0.5054 H   0  0  0  0  0  0  0  0  0  0  0  0
    5.8352    1.7546   -0.6233 H   0  0  0  0  0  0  0  0  0  0  0  0
    6.2099    0.9543    0.9531 H   0  0  0  0  0  0  0  0  0  0  0  0
    3.5253   -2.0284   -0.9083 H   0  0  0  0  0  0  0  0  0  0  0  0
    1.1259   -2.0070   -0.2980 H   0  0  0  0  0  0  0  0  0  0  0  0
   -0.3556   -0.6882   -1.8500 H   0  0  0  0  0  0  0  0  0  0  0  0
   -0.0308    1.0167   -1.4407 H   0  0  0  0  0  0  0  0  0  0  0  0
   -3.8711    0.6993   -2.7145 H   0  0  0  0  0  0  0  0  0  0  0  0
   -5.6296   -0.0612   -1.3209 H   0  0  0  0  0  0  0  0  0  0  0  0
   -6.3768   -0.9392    0.8595 H   0  0  0  0  0  0  0  0  0  0  0  0
   -4.7086   -1.4297    2.6301 H   0  0  0  0  0  0  0  0  0  0  0  0
   -2.3405   -1.0599    2.2432 H   0  0  0  0  0  0  0  0  0  0  0  0
    1.6332    1.8822    1.4918 H   0  0  0  0  0  0  0  0  0  0  0  0
    4.0123    1.8600    0.8976 H   0  0  0  0  0  0  0  0  0  0  0  0
  1  2  1  0
  2  3  1  0
  3  4  2  0
  4  5  1  0
  5  6  2  0
  6  7  1  0
  7  8  2  0
  7  9  1  0
  9 10  1  0
 10 11  1  0
 11 12  2  0
 11 13  1  0
 13 14  1  0
 14 15  2  0
 15 16  1  0
 16 17  2  0
 17 18  1  0
 18 19  2  0
  6 20  1  0
 20 21  2  0
 21  3  1  0
 19  9  1  0
 19 14  1  0
  1 22  1  0
  1 23  1  0
  1 24  1  0
  4 25  1  0
  5 26  1  0
 10 27  1  0
 10 28  1  0
 13 29  1  0
 15 30  1  0
 16 31  1  0
 17 32  1  0
 18 33  1  0
 20 34  1  0
 21 35  1  0
M  END
$$$$
