
     RDKit          3D

 46 48  0  0  0  0  0  0  0  0999 V2000
    5.8279    1.2625   -0.2859 C   0  0  0  0  0  0  0  0  0  0  0  0
    4.7703    0.6974    1.0319 S   0  0  0  0  0  6  0  0  0  0  0  0
    5.0138    1.5344    2.1867 O   0  0  0  0  0  0  0  0  0  0  0  0
    4.8572   -0.7439    1.1228 O   0  0  0  0  0  0  0  0  0  0  0  0
    3.2180    1.0774    0.4387 N   0  0  0  0  0  0  0  0  0  0  0  0
    2.8268    0.3632   -0.8297 C   0  0  0  0  0  0  0  0  0  0  0  0
    1.3021    0.2832   -1.0224 C   0  0  0  0  0  0  0  0  0  0  0  0
    0.6081   -0.3675    0.1167 N   0  0  0  0  0  0  0  0  0  0  0  0
    0.1480   -1.6738   -0.2013 C   0  0  0  0  0  0  0  0  0  0  0  0
    1.0116   -2.7700   -0.3399 C   0  0  0  0  0  0  0  0  0  0  0  0
    0.5119   -4.0270   -0.6849 C   0  0  0  0  0  0  0  0  0  0  0  0
   -0.8534   -4.2012   -0.9008 C   0  0  0  0  0  0  0  0  0  0  0  0
   -1.7298   -3.1223   -0.7706 C   0  0  0  0  0  0  0  0  0  0  0  0
   -1.2396   -1.8644   -0.4204 C   0  0  0  0  0  0  0  0  0  0  0  0
   -2.0453   -0.7177   -0.2571 N   0  0  0  0  0  0  0  0  0  0  0  0
   -3.4136   -0.6112   -0.3563 C   0  0  0  0  0  0  0  0  0  0  0  0
   -4.2060   -1.5177   -0.5835 O   0  0  0  0  0  0  0  0  0  0  0  0
   -3.9560    0.7587   -0.1285 C   0  0  0  0  0  0  0  0  0  0  0  0
   -3.2475    1.9093   -0.5059 C   0  0  0  0  0  0  0  0  0  0  0  0
   -3.7949    3.1739   -0.2780 C   0  0  0  0  0  0  0  0  0  0  0  0
   -5.0508    3.2925    0.3182 C   0  0  0  0  0  0  0  0  0  0  0  0
   -5.7607    2.1470    0.6775 C   0  0  0  0  0  0  0  0  0  0  0  0
   -7.3127    2.3016    1.4041 Cl  0  0  0  0  0  0  0  0  0  0  0  0
   -5.2238    0.8816    0.4536 C   0  0  0  0  0  0  0  0  0  0  0  0
    1.3400   -0.2999    1.4063 C   0  0  0  0  0  0  0  0  0  0  0  0
    2.1433    1.0078    1.4968 C   0  0  0  0  0  0  0  0  0  0  0  0
    5.6269    2.3191   -0.4716 H   0  0  0  0  0  0  0  0  0  0  0  0
    6.8627    1.1354    0.0402 H   0  0  0  0  0  0  0  0  0  0  0  0
    5.6499    0.6615   -1.1785 H   0  0  0  0  0  0  0  0  0  0  0  0
    3.2582    0.9136   -1.6729 H   0  0  0  0  0  0  0  0  0  0  0  0
    3.2420   -0.6495   -0.8395 H   0  0  0  0  0  0  0  0  0  0  0  0
    0.9029    1.3024   -1.1025 H   0  0  0  0  0  0  0  0  0  0  0  0
    1.0729   -0.2088   -1.9766 H   0  0  0  0  0  0  0  0  0  0  0  0
    2.0808   -2.6629   -0.1824 H   0  0  0  0  0  0  0  0  0  0  0  0
    1.1888   -4.8717   -0.7853 H   0  0  0  0  0  0  0  0  0  0  0  0
   -1.2423   -5.1804   -1.1694 H   0  0  0  0  0  0  0  0  0  0  0  0
   -2.7874   -3.2920   -0.9447 H   0  0  0  0  0  0  0  0  0  0  0  0
   -1.4954    0.0819    0.0423 H   0  0  0  0  0  0  0  0  0  0  0  0
   -2.2835    1.8371   -1.0026 H   0  0  0  0  0  0  0  0  0  0  0  0
   -3.2487    4.0667   -0.5734 H   0  0  0  0  0  0  0  0  0  0  0  0
   -5.4752    4.2783    0.4922 H   0  0  0  0  0  0  0  0  0  0  0  0
   -5.7838   -0.0089    0.7310 H   0  0  0  0  0  0  0  0  0  0  0  0
    2.0250   -1.1452    1.5398 H   0  0  0  0  0  0  0  0  0  0  0  0
    0.6091   -0.3318    2.2227 H   0  0  0  0  0  0  0  0  0  0  0  0
    2.5669    1.1076    2.5010 H   0  0  0  0  0  0  0  0  0  0  0  0
    1.4854    1.8739    1.3526 H   0  0  0  0  0  0  0  0  0  0  0  0
  1  2  1  0
  2  3  2  0
  2  4  2  0
  2  5  1  0
  5  6  1  0
  6  7  1  0
  7  8  1  0
  8  9  1  0
  9 10  2  0
 10 11  1  0
 11 12  2  0
 12 13  1  0
 13 14  2  0
 14 15  1  0
 15 16  1  0
 16 17  2  0
 16 18  1  0
 18 19  2  0
 19 20  1  0
 20 21  2  0
 21 22  1  0
 22 23  1  0
 22 24  2  0
  8 25  1  0
 25 26  1  0
 26  5  1  0
 14  9  1  0
 24 18  1  0
  1 27  1  0
  1 28  1  0
  1 29  1  0
  6 30  1  0
  6 31  1  0
  7 32  1  0
  7 33  1  0
 10 34  1  0
 11 35  1  0
 12 36  1  0
 13 37  1  0
 15 38  1  0
 19 39  1  0
 20 40  1  0
 21 41  1  0
 24 42  1  0
 25 43  1  0
 25 44  1  0
 26 45  1  0
 26 46  1  0
M  END
$$$$
