
     RDKit          3D

 27 28  0  0  0  0  0  0  0  0999 V2000
    0.1624    1.6528   -0.6172 C   0  0  0  0  0  0  0  0  0  0  0  0
   -0.1628    0.3871    0.0775 N   0  0  0  0  0  0  0  0  0  0  0  0
   -1.5570    0.2333    0.3995 C   0  0  0  0  0  0  0  0  0  0  0  0
   -2.5152   -0.0820   -0.5682 C   0  0  0  0  0  0  0  0  0  0  0  0
   -3.8645   -0.1495   -0.2163 C   0  0  0  0  0  0  0  0  0  0  0  0
   -4.2589    0.1166    1.0949 C   0  0  0  0  0  0  0  0  0  0  0  0
   -3.3064    0.4561    2.0552 C   0  0  0  0  0  0  0  0  0  0  0  0
   -1.9571    0.5236    1.7053 C   0  0  0  0  0  0  0  0  0  0  0  0
    0.5674   -1.0089   -0.5923 S   0  0  0  0  0  6  0  0  0  0  0  0
    0.3845   -0.9728   -2.0307 O   0  0  0  0  0  0  0  0  0  0  0  0
    0.2081   -2.1769    0.1835 O   0  0  0  0  0  0  0  0  0  0  0  0
    2.3293   -0.8569   -0.3756 C   0  0  0  0  0  0  0  0  0  0  0  0
    3.3879   -0.9686   -1.2599 C   0  0  0  0  0  0  0  0  0  0  0  0
    4.6480   -0.7629   -0.6236 C   0  0  0  0  0  0  0  0  0  0  0  0
    4.4877   -0.5068    0.7147 C   0  0  0  0  0  0  0  0  0  0  0  0
    5.9453   -0.1770    1.9059 Br  0  0  0  0  0  0  0  0  0  0  0  0
    2.8690   -0.5102    1.2132 S   0  0  0  0  0  0  0  0  0  0  0  0
    1.2449    1.7773   -0.7096 H   0  0  0  0  0  0  0  0  0  0  0  0
   -0.2061    2.5044   -0.0348 H   0  0  0  0  0  0  0  0  0  0  0  0
   -0.2900    1.6910   -1.6130 H   0  0  0  0  0  0  0  0  0  0  0  0
   -2.2263   -0.2801   -1.5970 H   0  0  0  0  0  0  0  0  0  0  0  0
   -4.6080   -0.4093   -0.9658 H   0  0  0  0  0  0  0  0  0  0  0  0
   -5.3098    0.0603    1.3680 H   0  0  0  0  0  0  0  0  0  0  0  0
   -3.6136    0.6665    3.0763 H   0  0  0  0  0  0  0  0  0  0  0  0
   -1.2179    0.7902    2.4556 H   0  0  0  0  0  0  0  0  0  0  0  0
    3.2523   -1.1911   -2.3124 H   0  0  0  0  0  0  0  0  0  0  0  0
    5.6068   -0.8062   -1.1261 H   0  0  0  0  0  0  0  0  0  0  0  0
  1  2  1  0
  2  3  1  0
  3  4  2  0
  4  5  1  0
  5  6  2  0
  6  7  1  0
  7  8  2  0
  2  9  1  0
  9 10  2  0
  9 11  2  0
  9 12  1  0
 12 13  2  0
 13 14  1  0
 14 15  2  0
 15 16  1  0
 15 17  1  0
  8  3  1  0
 17 12  1  0
  1 18  1  0
  1 19  1  0
  1 20  1  0
  4 21  1  0
  5 22  1  0
  6 23  1  0
  7 24  1  0
  8 25  1  0
 13 26  1  0
 14 27  1  0
M  END
$$$$
