
     RDKit          3D

 39 40  0  0  0  0  0  0  0  0999 V2000
   -2.1174   -2.0341    0.6124 C   0  0  0  0  0  0  0  0  0  0  0  0
   -1.1430   -1.6079   -0.4868 C   0  0  0  0  0  0  0  0  0  0  0  0
   -0.6972   -2.8219   -1.3115 C   0  0  0  0  0  0  0  0  0  0  0  0
   -1.7502   -0.4842   -1.3217 C   0  0  0  0  0  0  0  0  0  0  0  0
   -2.6201   -0.7712   -2.3902 C   0  0  0  0  0  0  0  0  0  0  0  0
   -3.1891    0.2521   -3.1466 C   0  0  0  0  0  0  0  0  0  0  0  0
   -2.9076    1.5789   -2.8428 C   0  0  0  0  0  0  0  0  0  0  0  0
   -2.0691    1.8872   -1.7722 C   0  0  0  0  0  0  0  0  0  0  0  0
   -1.4890    0.8680   -1.0083 C   0  0  0  0  0  0  0  0  0  0  0  0
   -0.6731    1.0834    0.0699 O   0  0  0  0  0  0  0  0  0  0  0  0
   -0.2786    2.4188    0.3578 C   0  0  0  0  0  0  0  0  0  0  0  0
    0.7005    2.4306    1.5229 C   0  0  0  0  0  0  0  0  0  0  0  0
    0.6253    3.2660    2.4250 O   0  0  0  0  0  0  0  0  0  0  0  0
    1.7618    1.3920    1.5933 C   0  0  0  0  0  0  0  0  0  0  0  0
    2.0660    0.8638    2.8558 C   0  0  0  0  0  0  0  0  0  0  0  0
    3.0244   -0.1423    2.9829 C   0  0  0  0  0  0  0  0  0  0  0  0
    3.6854   -0.6083    1.8519 C   0  0  0  0  0  0  0  0  0  0  0  0
    4.6171   -1.5888    2.0267 O   0  0  0  0  0  0  0  0  0  0  0  0
    3.4105   -0.0827    0.5910 C   0  0  0  0  0  0  0  0  0  0  0  0
    2.4485    0.9241    0.4667 C   0  0  0  0  0  0  0  0  0  0  0  0
    2.2220    1.4813   -0.7613 O   0  0  0  0  0  0  0  0  0  0  0  0
   -1.6718   -2.8111    1.2438 H   0  0  0  0  0  0  0  0  0  0  0  0
   -2.3802   -1.1878    1.2563 H   0  0  0  0  0  0  0  0  0  0  0  0
   -3.0464   -2.4341    0.1912 H   0  0  0  0  0  0  0  0  0  0  0  0
   -0.2306   -1.2376   -0.0058 H   0  0  0  0  0  0  0  0  0  0  0  0
   -0.1321   -3.5197   -0.6844 H   0  0  0  0  0  0  0  0  0  0  0  0
   -1.5450   -3.3761   -1.7271 H   0  0  0  0  0  0  0  0  0  0  0  0
   -0.0486   -2.5169   -2.1403 H   0  0  0  0  0  0  0  0  0  0  0  0
   -2.8765   -1.7981   -2.6379 H   0  0  0  0  0  0  0  0  0  0  0  0
   -3.8622    0.0117   -3.9659 H   0  0  0  0  0  0  0  0  0  0  0  0
   -3.3560    2.3775   -3.4271 H   0  0  0  0  0  0  0  0  0  0  0  0
   -1.8963    2.9360   -1.5542 H   0  0  0  0  0  0  0  0  0  0  0  0
   -1.1604    2.9886    0.6757 H   0  0  0  0  0  0  0  0  0  0  0  0
    0.1889    2.9120   -0.5006 H   0  0  0  0  0  0  0  0  0  0  0  0
    1.5464    1.2266    3.7413 H   0  0  0  0  0  0  0  0  0  0  0  0
    3.2539   -0.5590    3.9598 H   0  0  0  0  0  0  0  0  0  0  0  0
    5.0341   -1.7905    1.1728 H   0  0  0  0  0  0  0  0  0  0  0  0
    3.9499   -0.4396   -0.2791 H   0  0  0  0  0  0  0  0  0  0  0  0
    2.6057    0.9135   -1.4502 H   0  0  0  0  0  0  0  0  0  0  0  0
  1  2  1  0
  2  3  1  0
  2  4  1  0
  4  5  2  0
  5  6  1  0
  6  7  2  0
  7  8  1  0
  8  9  2  0
  9 10  1  0
 10 11  1  0
 11 12  1  0
 12 13  2  0
 12 14  1  0
 14 15  2  0
 15 16  1  0
 16 17  2  0
 17 18  1  0
 17 19  1  0
 19 20  2  0
 20 21  1  0
  9  4  1  0
 20 14  1  0
  1 22  1  0
  1 23  1  0
  1 24  1  0
  2 25  1  0
  3 26  1  0
  3 27  1  0
  3 28  1  0
  5 29  1  0
  6 30  1  0
  7 31  1  0
  8 32  1  0
 11 33  1  0
 11 34  1  0
 15 35  1  0
 16 36  1  0
 18 37  1  0
 19 38  1  0
 21 39  1  0
M  END
$$$$
