
     RDKit          3D

 41 44  0  0  0  0  0  0  0  0999 V2000
   -7.5576    0.9125    1.9456 C   0  0  0  0  0  0  0  0  0  0  0  0
   -7.4566    0.2781    0.6144 C   0  0  0  0  0  0  0  0  0  0  0  0
   -8.6258    0.1176   -0.0723 O   0  0  0  0  0  0  0  0  0  0  0  0
   -8.3170   -0.4796   -1.2532 C   0  0  0  0  0  0  0  0  0  0  0  0
   -6.9634   -0.7077   -1.3401 C   0  0  0  0  0  0  0  0  0  0  0  0
   -6.4101   -0.2184   -0.1325 C   0  0  0  0  0  0  0  0  0  0  0  0
   -4.9203   -0.2323    0.2897 C   0  0  0  0  0  0  0  0  0  0  0  0
   -4.4635    0.2389    1.4346 N   0  0  0  0  0  0  0  0  0  0  0  0
   -3.0997    0.0388    1.4315 N   0  0  0  0  0  0  0  0  0  0  0  0
   -2.8094   -0.5434    0.2874 C   0  0  0  0  0  0  0  0  0  0  0  0
   -1.2136   -1.0037   -0.2131 S   0  0  0  0  0  0  0  0  0  0  0  0
   -0.3307   -0.8222    1.3616 C   0  0  0  0  0  0  0  0  0  0  0  0
    1.1173   -1.2434    1.1791 C   0  0  0  0  0  0  0  0  0  0  0  0
    1.4981   -2.3529    1.5411 O   0  0  0  0  0  0  0  0  0  0  0  0
    1.8946   -0.2576    0.5890 N   0  0  0  0  0  0  0  0  0  0  0  0
    3.2755   -0.3051    0.3044 C   0  0  0  0  0  0  0  0  0  0  0  0
    4.1048   -1.3812    0.6319 C   0  0  0  0  0  0  0  0  0  0  0  0
    5.4671   -1.3534    0.3105 C   0  0  0  0  0  0  0  0  0  0  0  0
    6.0077   -0.2500   -0.3422 C   0  0  0  0  0  0  0  0  0  0  0  0
    5.1932    0.8419   -0.6478 C   0  0  0  0  0  0  0  0  0  0  0  0
    3.8324    0.8088   -0.3388 C   0  0  0  0  0  0  0  0  0  0  0  0
    5.6576    1.9785   -1.2606 O   0  0  0  0  0  0  0  0  0  0  0  0
    7.0888    2.0414   -1.2268 C   0  0  0  0  0  0  0  0  0  0  0  0
    7.6962    0.7003   -1.6059 C   0  0  0  0  0  0  0  0  0  0  0  0
    7.3431   -0.3019   -0.6460 O   0  0  0  0  0  0  0  0  0  0  0  0
   -3.9142   -0.7413   -0.4931 O   0  0  0  0  0  0  0  0  0  0  0  0
   -6.9201    1.8005    1.9986 H   0  0  0  0  0  0  0  0  0  0  0  0
   -8.5852    1.2220    2.1624 H   0  0  0  0  0  0  0  0  0  0  0  0
   -7.2434    0.2128    2.7264 H   0  0  0  0  0  0  0  0  0  0  0  0
   -9.1541   -0.6734   -1.9102 H   0  0  0  0  0  0  0  0  0  0  0  0
   -6.4453   -1.1706   -2.1682 H   0  0  0  0  0  0  0  0  0  0  0  0
   -0.7825   -1.4569    2.1314 H   0  0  0  0  0  0  0  0  0  0  0  0
   -0.3674    0.2157    1.7089 H   0  0  0  0  0  0  0  0  0  0  0  0
    1.4108    0.5782    0.2816 H   0  0  0  0  0  0  0  0  0  0  0  0
    3.7246   -2.2660    1.1339 H   0  0  0  0  0  0  0  0  0  0  0  0
    6.0984   -2.2021    0.5611 H   0  0  0  0  0  0  0  0  0  0  0  0
    3.2216    1.6677   -0.6014 H   0  0  0  0  0  0  0  0  0  0  0  0
    7.4028    2.8134   -1.9357 H   0  0  0  0  0  0  0  0  0  0  0  0
    7.3996    2.3532   -0.2219 H   0  0  0  0  0  0  0  0  0  0  0  0
    7.3574    0.3717   -2.5960 H   0  0  0  0  0  0  0  0  0  0  0  0
    8.7884    0.7712   -1.6251 H   0  0  0  0  0  0  0  0  0  0  0  0
  1  2  1  0
  2  3  1  0
  3  4  1  0
  4  5  2  0
  5  6  1  0
  6  7  1  0
  7  8  2  0
  8  9  1  0
  9 10  2  0
 10 11  1  0
 11 12  1  0
 12 13  1  0
 13 14  2  0
 13 15  1  0
 15 16  1  0
 16 17  2  0
 17 18  1  0
 18 19  2  0
 19 20  1  0
 20 21  2  0
 20 22  1  0
 22 23  1  0
 23 24  1  0
 24 25  1  0
 10 26  1  0
  6  2  2  0
 26  7  1  0
 21 16  1  0
 25 19  1  0
  1 27  1  0
  1 28  1  0
  1 29  1  0
  4 30  1  0
  5 31  1  0
 12 32  1  0
 12 33  1  0
 15 34  1  0
 17 35  1  0
 18 36  1  0
 21 37  1  0
 23 38  1  0
 23 39  1  0
 24 40  1  0
 24 41  1  0
M  END
$$$$
