
     RDKit          3D

 42 44  0  0  0  0  0  0  0  0999 V2000
    2.9033    2.3858   -0.0757 O   0  0  0  0  0  0  0  0  0  0  0  0
    2.5608    1.2311    0.1438 C   0  0  0  0  0  0  0  0  0  0  0  0
    3.3646    0.1061    0.0815 N   0  0  0  0  0  0  0  0  0  0  0  0
    4.7540    0.0666   -0.1669 C   0  0  0  0  0  0  0  0  0  0  0  0
    5.3469   -1.2028   -0.2728 C   0  0  0  0  0  0  0  0  0  0  0  0
    6.7182   -1.3335   -0.5128 C   0  0  0  0  0  0  0  0  0  0  0  0
    7.5000   -0.1936   -0.6443 C   0  0  0  0  0  0  0  0  0  0  0  0
    8.8140   -0.3204   -0.8730 F   0  0  0  0  0  0  0  0  0  0  0  0
    6.9235    1.0645   -0.5370 C   0  0  0  0  0  0  0  0  0  0  0  0
    7.6831    2.1620   -0.6600 F   0  0  0  0  0  0  0  0  0  0  0  0
    5.5569    1.2026   -0.2982 C   0  0  0  0  0  0  0  0  0  0  0  0
    1.1283    0.9714    0.4720 C   0  0  0  0  0  0  0  0  0  0  0  0
    0.7419   -0.0501    1.3527 C   0  0  0  0  0  0  0  0  0  0  0  0
   -0.6110   -0.2489    1.6448 C   0  0  0  0  0  0  0  0  0  0  0  0
   -1.5742    0.5760    1.0544 C   0  0  0  0  0  0  0  0  0  0  0  0
   -3.2904    0.3413    1.4638 S   0  0  0  0  0  6  0  0  0  0  0  0
   -4.0150    1.5131    1.0249 O   0  0  0  0  0  0  0  0  0  0  0  0
   -3.3290   -0.0748    2.8523 O   0  0  0  0  0  0  0  0  0  0  0  0
   -3.8099   -1.0526    0.4752 C   0  0  0  0  0  0  0  0  0  0  0  0
   -5.2715   -1.4298    0.7618 C   0  0  0  0  0  0  0  0  0  0  0  0
   -6.1579   -0.4647   -0.0188 C   0  0  0  0  0  0  0  0  0  0  0  0
   -5.2936   -0.2040   -1.5562 S   0  0  0  0  0  6  0  0  0  0  0  0
   -5.1896    1.2095   -1.8366 O   0  0  0  0  0  0  0  0  0  0  0  0
   -5.8073   -1.1455   -2.5302 O   0  0  0  0  0  0  0  0  0  0  0  0
   -3.7017   -0.8039   -1.0226 C   0  0  0  0  0  0  0  0  0  0  0  0
   -1.1980    1.6192    0.2047 C   0  0  0  0  0  0  0  0  0  0  0  0
    0.1543    1.8120   -0.0868 C   0  0  0  0  0  0  0  0  0  0  0  0
    2.9069   -0.7925    0.1531 H   0  0  0  0  0  0  0  0  0  0  0  0
    4.7516   -2.1072   -0.1731 H   0  0  0  0  0  0  0  0  0  0  0  0
    7.1788   -2.3128   -0.5973 H   0  0  0  0  0  0  0  0  0  0  0  0
    5.1622    2.2092   -0.2175 H   0  0  0  0  0  0  0  0  0  0  0  0
    1.4825   -0.6669    1.8558 H   0  0  0  0  0  0  0  0  0  0  0  0
   -0.8986   -1.0223    2.3551 H   0  0  0  0  0  0  0  0  0  0  0  0
   -3.1502   -1.8759    0.7733 H   0  0  0  0  0  0  0  0  0  0  0  0
   -5.4498   -2.4502    0.3994 H   0  0  0  0  0  0  0  0  0  0  0  0
   -5.5169   -1.4138    1.8281 H   0  0  0  0  0  0  0  0  0  0  0  0
   -6.2709    0.4958    0.4877 H   0  0  0  0  0  0  0  0  0  0  0  0
   -7.1450   -0.8859   -0.2230 H   0  0  0  0  0  0  0  0  0  0  0  0
   -3.5300   -1.7492   -1.5480 H   0  0  0  0  0  0  0  0  0  0  0  0
   -2.9339   -0.0891   -1.3194 H   0  0  0  0  0  0  0  0  0  0  0  0
   -1.9382    2.2936   -0.2245 H   0  0  0  0  0  0  0  0  0  0  0  0
    0.4508    2.6303   -0.7426 H   0  0  0  0  0  0  0  0  0  0  0  0
  1  2  2  0
  2  3  1  0
  3  4  1  0
  4  5  2  0
  5  6  1  0
  6  7  2  0
  7  8  1  0
  7  9  1  0
  9 10  1  0
  9 11  2  0
  2 12  1  0
 12 13  2  0
 13 14  1  0
 14 15  2  0
 15 16  1  0
 16 17  2  0
 16 18  2  0
 16 19  1  0
 19 20  1  0
 20 21  1  0
 21 22  1  0
 22 23  2  0
 22 24  2  0
 22 25  1  0
 15 26  1  0
 26 27  2  0
 11  4  1  0
 27 12  1  0
 25 19  1  0
  3 28  1  0
  5 29  1  0
  6 30  1  0
 11 31  1  0
 13 32  1  0
 14 33  1  0
 19 34  1  0
 20 35  1  0
 20 36  1  0
 21 37  1  0
 21 38  1  0
 25 39  1  0
 25 40  1  0
 26 41  1  0
 27 42  1  0
M  END
$$$$
