
     RDKit          3D

 52 55  0  0  0  0  0  0  0  0999 V2000
    2.7551   -2.3062   -0.9610 O   0  0  0  0  0  0  0  0  0  0  0  0
    3.6701   -2.0456   -0.1860 C   0  0  0  0  0  0  0  0  0  0  0  0
    5.1214   -2.3548   -0.5643 C   0  0  0  0  0  0  0  0  0  0  0  0
    6.0801   -1.5291    0.0856 O   0  0  0  0  0  0  0  0  0  0  0  0
    6.2867   -0.2665   -0.4035 C   0  0  0  0  0  0  0  0  0  0  0  0
    5.5942    0.3284   -1.4604 C   0  0  0  0  0  0  0  0  0  0  0  0
    5.8995    1.6382   -1.8515 C   0  0  0  0  0  0  0  0  0  0  0  0
    6.8931    2.3619   -1.1919 C   0  0  0  0  0  0  0  0  0  0  0  0
    7.5843    1.7780   -0.1342 C   0  0  0  0  0  0  0  0  0  0  0  0
    7.2763    0.4761    0.2511 C   0  0  0  0  0  0  0  0  0  0  0  0
    7.9447   -0.0627    1.2826 F   0  0  0  0  0  0  0  0  0  0  0  0
    3.5685   -1.5041    1.0767 N   0  0  0  0  0  0  0  0  0  0  0  0
    2.3781   -1.1391    1.6312 C   0  0  0  0  0  0  0  0  0  0  0  0
    1.1706   -1.2520    1.1483 N   0  0  0  0  0  0  0  0  0  0  0  0
    0.2481   -0.7487    2.0542 C   0  0  0  0  0  0  0  0  0  0  0  0
   -1.1807   -0.7679    1.7467 C   0  0  0  0  0  0  0  0  0  0  0  0
   -2.1124    0.0119    2.4494 C   0  0  0  0  0  0  0  0  0  0  0  0
   -3.4716   -0.0290    2.1190 C   0  0  0  0  0  0  0  0  0  0  0  0
   -3.9063   -0.8404    1.0676 C   0  0  0  0  0  0  0  0  0  0  0  0
   -5.6399   -0.9111    0.6621 S   0  0  0  0  0  6  0  0  0  0  0  0
   -5.8944   -2.2030    0.0613 O   0  0  0  0  0  0  0  0  0  0  0  0
   -6.3733   -0.4696    1.8299 O   0  0  0  0  0  0  0  0  0  0  0  0
   -5.8131    0.2674   -0.5369 N   0  0  0  0  0  0  0  0  0  0  0  0
   -5.6799    1.6995   -0.1525 C   0  0  0  0  0  0  0  0  0  0  0  0
   -4.5315    2.3632   -0.9194 C   0  0  0  0  0  0  0  0  0  0  0  0
   -4.6947    2.3200   -2.3437 O   0  0  0  0  0  0  0  0  0  0  0  0
   -5.4380    1.1804   -2.8014 C   0  0  0  0  0  0  0  0  0  0  0  0
   -5.2820   -0.0430   -1.8920 C   0  0  0  0  0  0  0  0  0  0  0  0
   -2.9995   -1.6435    0.3751 C   0  0  0  0  0  0  0  0  0  0  0  0
   -1.6432   -1.5936    0.7076 C   0  0  0  0  0  0  0  0  0  0  0  0
    0.8042   -0.2681    3.2264 C   0  0  0  0  0  0  0  0  0  0  0  0
    2.5140   -0.4380    3.1793 S   0  0  0  0  0  0  0  0  0  0  0  0
    5.2473   -2.3397   -1.6528 H   0  0  0  0  0  0  0  0  0  0  0  0
    5.3148   -3.3842   -0.2407 H   0  0  0  0  0  0  0  0  0  0  0  0
    4.8074   -0.1854   -2.0047 H   0  0  0  0  0  0  0  0  0  0  0  0
    5.3554    2.0950   -2.6761 H   0  0  0  0  0  0  0  0  0  0  0  0
    7.1248    3.3781   -1.5014 H   0  0  0  0  0  0  0  0  0  0  0  0
    8.3584    2.3251    0.3943 H   0  0  0  0  0  0  0  0  0  0  0  0
    4.4110   -1.3045    1.6001 H   0  0  0  0  0  0  0  0  0  0  0  0
   -1.8018    0.6659    3.2600 H   0  0  0  0  0  0  0  0  0  0  0  0
   -4.1797    0.5690    2.6890 H   0  0  0  0  0  0  0  0  0  0  0  0
   -5.5222    1.8186    0.9227 H   0  0  0  0  0  0  0  0  0  0  0  0
   -6.6286    2.1908   -0.3986 H   0  0  0  0  0  0  0  0  0  0  0  0
   -4.4453    3.4159   -0.6320 H   0  0  0  0  0  0  0  0  0  0  0  0
   -3.5771    1.8808   -0.6787 H   0  0  0  0  0  0  0  0  0  0  0  0
   -6.4912    1.4756   -2.8759 H   0  0  0  0  0  0  0  0  0  0  0  0
   -5.0902    0.9474   -3.8128 H   0  0  0  0  0  0  0  0  0  0  0  0
   -4.2226   -0.3076   -1.8270 H   0  0  0  0  0  0  0  0  0  0  0  0
   -5.8398   -0.8835   -2.3166 H   0  0  0  0  0  0  0  0  0  0  0  0
   -3.3314   -2.3083   -0.4193 H   0  0  0  0  0  0  0  0  0  0  0  0
   -0.9399   -2.2142    0.1511 H   0  0  0  0  0  0  0  0  0  0  0  0
    0.3224    0.1559    4.0946 H   0  0  0  0  0  0  0  0  0  0  0  0
  1  2  2  0
  2  3  1  0
  3  4  1  0
  4  5  1  0
  5  6  2  0
  6  7  1  0
  7  8  2  0
  8  9  1  0
  9 10  2  0
 10 11  1  0
  2 12  1  0
 12 13  1  0
 13 14  2  0
 14 15  1  0
 15 16  1  0
 16 17  2  0
 17 18  1  0
 18 19  2  0
 19 20  1  0
 20 21  2  0
 20 22  2  0
 20 23  1  0
 23 24  1  0
 24 25  1  0
 25 26  1  0
 26 27  1  0
 27 28  1  0
 19 29  1  0
 29 30  2  0
 15 31  2  0
 31 32  1  0
 10  5  1  0
 32 13  1  0
 30 16  1  0
 28 23  1  0
  3 33  1  0
  3 34  1  0
  6 35  1  0
  7 36  1  0
  8 37  1  0
  9 38  1  0
 12 39  1  0
 17 40  1  0
 18 41  1  0
 24 42  1  0
 24 43  1  0
 25 44  1  0
 25 45  1  0
 27 46  1  0
 27 47  1  0
 28 48  1  0
 28 49  1  0
 29 50  1  0
 30 51  1  0
 31 52  1  0
M  END
$$$$
