
     RDKit          3D

 56 57  0  0  0  0  0  0  0  0999 V2000
   -2.8708   -3.0134    1.1417 C   0  0  0  0  0  0  0  0  0  0  0  0
   -2.8742   -1.8976    0.1023 C   0  0  0  0  0  0  0  0  0  0  0  0
   -2.5171   -0.5179    0.6815 C   0  0  0  0  0  0  0  0  0  0  0  0
   -3.3832   -0.1906    1.7663 O   0  0  0  0  0  0  0  0  0  0  0  0
   -4.5336    0.5017    1.5239 C   0  0  0  0  0  0  0  0  0  0  0  0
   -5.1782    0.9673    2.6706 C   0  0  0  0  0  0  0  0  0  0  0  0
   -6.3711    1.6876    2.5745 C   0  0  0  0  0  0  0  0  0  0  0  0
   -6.9413    1.9491    1.3290 C   0  0  0  0  0  0  0  0  0  0  0  0
   -8.1067    2.6622    1.3696 O   0  0  0  0  0  0  0  0  0  0  0  0
   -8.7204    2.9646    0.1234 C   0  0  0  0  0  0  0  0  0  0  0  0
   -6.3049    1.4774    0.1812 C   0  0  0  0  0  0  0  0  0  0  0  0
   -5.1063    0.7545    0.2786 C   0  0  0  0  0  0  0  0  0  0  0  0
   -1.0501   -0.4997    1.1721 C   0  0  0  0  0  0  0  0  0  0  0  0
   -0.7267   -0.3663    2.3493 O   0  0  0  0  0  0  0  0  0  0  0  0
   -0.1170   -0.6443    0.1551 N   0  0  0  0  0  0  0  0  0  0  0  0
    1.3038   -0.5031    0.4274 C   0  0  0  0  0  0  0  0  0  0  0  0
    2.1359   -1.2040   -0.6427 C   0  0  0  0  0  0  0  0  0  0  0  0
    3.6420   -1.1228   -0.3607 C   0  0  0  0  0  0  0  0  0  0  0  0
    4.1363    0.2649   -0.3481 N   0  0  0  0  0  0  0  0  0  0  0  0
    4.3484    0.7882   -1.7209 C   0  0  0  0  0  0  0  0  0  0  0  0
    5.7955    0.6998   -2.2833 C   0  0  0  0  0  0  0  0  0  0  0  0
    6.5397   -0.4420   -1.7390 N   0  0  0  0  0  0  0  0  0  0  0  0
    7.8611   -0.5712   -2.3410 C   0  0  0  0  0  0  0  0  0  0  0  0
    6.6236   -0.3451   -0.2687 C   0  0  0  0  0  0  0  0  0  0  0  0
    5.4088    0.3564    0.3964 C   0  0  0  0  0  0  0  0  0  0  0  0
   -3.5930   -2.8177    1.9403 H   0  0  0  0  0  0  0  0  0  0  0  0
   -3.1437   -3.9632    0.6707 H   0  0  0  0  0  0  0  0  0  0  0  0
   -1.8815   -3.1365    1.5926 H   0  0  0  0  0  0  0  0  0  0  0  0
   -2.1854   -2.1635   -0.7075 H   0  0  0  0  0  0  0  0  0  0  0  0
   -3.8777   -1.8608   -0.3361 H   0  0  0  0  0  0  0  0  0  0  0  0
   -2.5619    0.2509   -0.1007 H   0  0  0  0  0  0  0  0  0  0  0  0
   -4.7452    0.7717    3.6491 H   0  0  0  0  0  0  0  0  0  0  0  0
   -6.8565    2.0458    3.4787 H   0  0  0  0  0  0  0  0  0  0  0  0
   -9.6284    3.5399    0.3286 H   0  0  0  0  0  0  0  0  0  0  0  0
   -9.0169    2.0509   -0.4022 H   0  0  0  0  0  0  0  0  0  0  0  0
   -8.0668    3.5849   -0.4988 H   0  0  0  0  0  0  0  0  0  0  0  0
   -6.7151    1.6494   -0.8082 H   0  0  0  0  0  0  0  0  0  0  0  0
   -4.6600    0.3967   -0.6420 H   0  0  0  0  0  0  0  0  0  0  0  0
   -0.4222   -0.4514   -0.7894 H   0  0  0  0  0  0  0  0  0  0  0  0
    1.5238   -0.9187    1.4170 H   0  0  0  0  0  0  0  0  0  0  0  0
    1.5154    0.5711    0.4580 H   0  0  0  0  0  0  0  0  0  0  0  0
    1.8477   -2.2626   -0.6827 H   0  0  0  0  0  0  0  0  0  0  0  0
    1.8981   -0.7913   -1.6301 H   0  0  0  0  0  0  0  0  0  0  0  0
    4.1812   -1.7405   -1.0892 H   0  0  0  0  0  0  0  0  0  0  0  0
    3.8089   -1.5860    0.6209 H   0  0  0  0  0  0  0  0  0  0  0  0
    4.0595    1.8468   -1.7159 H   0  0  0  0  0  0  0  0  0  0  0  0
    3.6657    0.3056   -2.4302 H   0  0  0  0  0  0  0  0  0  0  0  0
    5.7316    0.6246   -3.3757 H   0  0  0  0  0  0  0  0  0  0  0  0
    6.3254    1.6349   -2.0556 H   0  0  0  0  0  0  0  0  0  0  0  0
    7.7770   -0.7224   -3.4227 H   0  0  0  0  0  0  0  0  0  0  0  0
    8.4850    0.3125   -2.1655 H   0  0  0  0  0  0  0  0  0  0  0  0
    8.3820   -1.4473   -1.9393 H   0  0  0  0  0  0  0  0  0  0  0  0
    6.7051   -1.3645    0.1272 H   0  0  0  0  0  0  0  0  0  0  0  0
    7.5266    0.1968    0.0418 H   0  0  0  0  0  0  0  0  0  0  0  0
    5.6455    1.4235    0.5078 H   0  0  0  0  0  0  0  0  0  0  0  0
    5.2818   -0.0159    1.4206 H   0  0  0  0  0  0  0  0  0  0  0  0
  1  2  1  0
  2  3  1  0
  3  4  1  0
  4  5  1  0
  5  6  2  0
  6  7  1  0
  7  8  2  0
  8  9  1  0
  9 10  1  0
  8 11  1  0
 11 12  2  0
  3 13  1  0
 13 14  2  0
 13 15  1  0
 15 16  1  0
 16 17  1  0
 17 18  1  0
 18 19  1  0
 19 20  1  0
 20 21  1  0
 21 22  1  0
 22 23  1  0
 22 24  1  0
 24 25  1  0
 12  5  1  0
 25 19  1  0
  1 26  1  0
  1 27  1  0
  1 28  1  0
  2 29  1  0
  2 30  1  0
  3 31  1  0
  6 32  1  0
  7 33  1  0
 10 34  1  0
 10 35  1  0
 10 36  1  0
 11 37  1  0
 12 38  1  0
 15 39  1  0
 16 40  1  0
 16 41  1  0
 17 42  1  0
 17 43  1  0
 18 44  1  0
 18 45  1  0
 20 46  1  0
 20 47  1  0
 21 48  1  0
 21 49  1  0
 23 50  1  0
 23 51  1  0
 23 52  1  0
 24 53  1  0
 24 54  1  0
 25 55  1  0
 25 56  1  0
M  END
$$$$
