
     RDKit          3D

 30 31  0  0  0  0  0  0  0  0999 V2000
    4.3590    0.4828    2.6700 C   0  0  0  0  0  0  0  0  0  0  0  0
    3.3043    0.3148    1.7012 N   0  0  0  0  0  0  0  0  0  0  0  0
    3.5394   -0.3888    0.5361 C   0  0  0  0  0  0  0  0  0  0  0  0
    4.5934   -0.9618    0.2889 O   0  0  0  0  0  0  0  0  0  0  0  0
    2.4358   -0.3867   -0.4609 C   0  0  0  0  0  0  0  0  0  0  0  0
    2.7633   -0.4457   -1.8171 C   0  0  0  0  0  0  0  0  0  0  0  0
    1.7505   -0.4401   -2.7728 C   0  0  0  0  0  0  0  0  0  0  0  0
    0.4094   -0.3900   -2.3779 C   0  0  0  0  0  0  0  0  0  0  0  0
    0.0653   -0.3578   -1.0244 C   0  0  0  0  0  0  0  0  0  0  0  0
   -1.2623   -0.3271   -0.5426 N   0  0  0  0  0  0  0  0  0  0  0  0
   -2.4408   -0.3699   -1.2792 C   0  0  0  0  0  0  0  0  0  0  0  0
   -2.4800   -0.4759   -2.5013 O   0  0  0  0  0  0  0  0  0  0  0  0
   -3.6514   -0.2908   -0.4569 C   0  0  0  0  0  0  0  0  0  0  0  0
   -3.8353    0.1781    0.8344 C   0  0  0  0  0  0  0  0  0  0  0  0
   -5.1896    0.0725    1.2718 C   0  0  0  0  0  0  0  0  0  0  0  0
   -6.0034   -0.4643    0.3019 C   0  0  0  0  0  0  0  0  0  0  0  0
   -5.1419   -0.8291   -1.1263 S   0  0  0  0  0  0  0  0  0  0  0  0
    1.0897   -0.3552   -0.0664 C   0  0  0  0  0  0  0  0  0  0  0  0
    3.9176    0.8287    3.6074 H   0  0  0  0  0  0  0  0  0  0  0  0
    4.8805   -0.4648    2.8300 H   0  0  0  0  0  0  0  0  0  0  0  0
    5.0651    1.2284    2.2948 H   0  0  0  0  0  0  0  0  0  0  0  0
    2.5533    0.9912    1.7069 H   0  0  0  0  0  0  0  0  0  0  0  0
    3.8046   -0.4926   -2.1299 H   0  0  0  0  0  0  0  0  0  0  0  0
    2.0004   -0.4796   -3.8306 H   0  0  0  0  0  0  0  0  0  0  0  0
   -0.3414   -0.3881   -3.1624 H   0  0  0  0  0  0  0  0  0  0  0  0
   -1.3628   -0.3374    0.4615 H   0  0  0  0  0  0  0  0  0  0  0  0
   -3.0504    0.5999    1.4491 H   0  0  0  0  0  0  0  0  0  0  0  0
   -5.5500    0.3826    2.2455 H   0  0  0  0  0  0  0  0  0  0  0  0
   -7.0669   -0.6536    0.3573 H   0  0  0  0  0  0  0  0  0  0  0  0
    0.8447   -0.3596    0.9917 H   0  0  0  0  0  0  0  0  0  0  0  0
  1  2  1  0
  2  3  1  0
  3  4  2  0
  3  5  1  0
  5  6  2  0
  6  7  1  0
  7  8  2  0
  8  9  1  0
  9 10  1  0
 10 11  1  0
 11 12  2  0
 11 13  1  0
 13 14  2  0
 14 15  1  0
 15 16  2  0
 16 17  1  0
  9 18  2  0
 18  5  1  0
 17 13  1  0
  1 19  1  0
  1 20  1  0
  1 21  1  0
  2 22  1  0
  6 23  1  0
  7 24  1  0
  8 25  1  0
 10 26  1  0
 14 27  1  0
 15 28  1  0
 16 29  1  0
 18 30  1  0
M  END
$$$$
