
     RDKit          3D

 51 54  0  0  0  0  0  0  0  0999 V2000
   -1.6118   -0.4590   -0.5441 O   0  0  0  0  0  0  0  0  0  0  0  0
   -1.1244    0.2825    0.3018 C   0  0  0  0  0  0  0  0  0  0  0  0
   -1.8701    1.1470    1.0746 N   0  0  0  0  0  0  0  0  0  0  0  0
   -3.3156    1.2003    0.9450 C   0  0  0  0  0  0  0  0  0  0  0  0
   -4.0045   -0.0001    1.5957 C   0  0  0  0  0  0  0  0  0  0  0  0
   -5.4680    0.0013    1.3118 C   0  0  0  0  0  0  0  0  0  0  0  0
   -6.4004    0.4803    2.1176 N   0  0  0  0  0  0  0  0  0  0  0  0
   -7.5926    0.2762    1.4709 C   0  0  0  0  0  0  0  0  0  0  0  0
   -7.3918   -0.3227    0.2514 C   0  0  0  0  0  0  0  0  0  0  0  0
   -8.2104   -0.7599   -0.8251 C   0  0  0  0  0  0  0  0  0  0  0  0
   -7.6322   -1.3145   -1.9087 C   0  0  0  0  0  0  0  0  0  0  0  0
   -6.1900   -1.4836   -2.0006 C   0  0  0  0  0  0  0  0  0  0  0  0
   -5.4188   -1.0750   -0.9788 C   0  0  0  0  0  0  0  0  0  0  0  0
   -6.0182   -0.4991    0.1436 N   0  0  0  0  0  0  0  0  0  0  0  0
    0.3363    0.2511    0.5741 C   0  0  0  0  0  0  0  0  0  0  0  0
    1.0348    1.4003    0.9704 C   0  0  0  0  0  0  0  0  0  0  0  0
    2.4093    1.3321    1.2106 C   0  0  0  0  0  0  0  0  0  0  0  0
    3.0806    0.1155    1.0456 C   0  0  0  0  0  0  0  0  0  0  0  0
    4.8211    0.0322    1.3980 S   0  0  0  0  0  6  0  0  0  0  0  0
    5.0959    0.9956    2.4427 O   0  0  0  0  0  0  0  0  0  0  0  0
    5.1940   -1.3583    1.5509 O   0  0  0  0  0  0  0  0  0  0  0  0
    5.5277    0.6059   -0.0462 N   0  0  0  0  0  0  0  0  0  0  0  0
    5.2222   -0.2000   -1.2775 C   0  0  0  0  0  0  0  0  0  0  0  0
    6.2769    0.0411   -2.3634 C   0  0  0  0  0  0  0  0  0  0  0  0
    7.5928   -0.3677   -1.9660 O   0  0  0  0  0  0  0  0  0  0  0  0
    7.8288   -0.2283   -0.5567 C   0  0  0  0  0  0  0  0  0  0  0  0
    6.9985    0.8903    0.0797 C   0  0  0  0  0  0  0  0  0  0  0  0
    2.3909   -1.0366    0.6550 C   0  0  0  0  0  0  0  0  0  0  0  0
    1.0193   -0.9619    0.4042 C   0  0  0  0  0  0  0  0  0  0  0  0
   -1.4526    1.5699    1.8925 H   0  0  0  0  0  0  0  0  0  0  0  0
   -3.5565    1.2599   -0.1234 H   0  0  0  0  0  0  0  0  0  0  0  0
   -3.6479    2.1343    1.4115 H   0  0  0  0  0  0  0  0  0  0  0  0
   -3.5574   -0.9450    1.2666 H   0  0  0  0  0  0  0  0  0  0  0  0
   -3.8463    0.0380    2.6809 H   0  0  0  0  0  0  0  0  0  0  0  0
   -8.5317    0.5723    1.9214 H   0  0  0  0  0  0  0  0  0  0  0  0
   -9.2874   -0.6391   -0.7669 H   0  0  0  0  0  0  0  0  0  0  0  0
   -8.2340   -1.6567   -2.7442 H   0  0  0  0  0  0  0  0  0  0  0  0
   -5.7664   -1.9416   -2.8878 H   0  0  0  0  0  0  0  0  0  0  0  0
   -4.3406   -1.1753   -0.9866 H   0  0  0  0  0  0  0  0  0  0  0  0
    0.5286    2.3562    1.0749 H   0  0  0  0  0  0  0  0  0  0  0  0
    2.9514    2.2234    1.5206 H   0  0  0  0  0  0  0  0  0  0  0  0
    5.2042   -1.2684   -1.0347 H   0  0  0  0  0  0  0  0  0  0  0  0
    4.2397    0.0983   -1.6559 H   0  0  0  0  0  0  0  0  0  0  0  0
    6.3191    1.1018   -2.6359 H   0  0  0  0  0  0  0  0  0  0  0  0
    6.0214   -0.5186   -3.2676 H   0  0  0  0  0  0  0  0  0  0  0  0
    8.8967   -0.0287   -0.4249 H   0  0  0  0  0  0  0  0  0  0  0  0
    7.6140   -1.1935   -0.0823 H   0  0  0  0  0  0  0  0  0  0  0  0
    7.2921    1.0277    1.1264 H   0  0  0  0  0  0  0  0  0  0  0  0
    7.1872    1.8420   -0.4328 H   0  0  0  0  0  0  0  0  0  0  0  0
    2.9078   -1.9884    0.5429 H   0  0  0  0  0  0  0  0  0  0  0  0
    0.4781   -1.8533    0.0878 H   0  0  0  0  0  0  0  0  0  0  0  0
  1  2  2  0
  2  3  1  0
  3  4  1  0
  4  5  1  0
  5  6  1  0
  6  7  2  0
  7  8  1  0
  8  9  2  0
  9 10  1  0
 10 11  2  0
 11 12  1  0
 12 13  2  0
 13 14  1  0
  2 15  1  0
 15 16  2  0
 16 17  1  0
 17 18  2  0
 18 19  1  0
 19 20  2  0
 19 21  2  0
 19 22  1  0
 22 23  1  0
 23 24  1  0
 24 25  1  0
 25 26  1  0
 26 27  1  0
 18 28  1  0
 28 29  2  0
 14  6  1  0
 29 15  1  0
 14  9  1  0
 27 22  1  0
  3 30  1  0
  4 31  1  0
  4 32  1  0
  5 33  1  0
  5 34  1  0
  8 35  1  0
 10 36  1  0
 11 37  1  0
 12 38  1  0
 13 39  1  0
 16 40  1  0
 17 41  1  0
 23 42  1  0
 23 43  1  0
 24 44  1  0
 24 45  1  0
 26 46  1  0
 26 47  1  0
 27 48  1  0
 27 49  1  0
 28 50  1  0
 29 51  1  0
M  END
$$$$
