
     RDKit          3D

 45 46  0  0  0  0  0  0  0  0999 V2000
    3.5385    2.8320    2.1732 C   0  0  0  0  0  0  0  0  0  0  0  0
    3.0498    1.7345    1.3761 N   0  0  0  0  0  0  0  0  0  0  0  0
    2.2532    1.9605    0.2724 C   0  0  0  0  0  0  0  0  0  0  0  0
    1.9680    3.0837   -0.1284 O   0  0  0  0  0  0  0  0  0  0  0  0
    1.7430    0.6872   -0.3868 C   0  0  0  0  0  0  0  0  0  0  0  0
    2.9041   -0.1885   -0.8853 C   0  0  0  0  0  0  0  0  0  0  0  0
    2.5189   -1.0458   -2.0926 C   0  0  0  0  0  0  0  0  0  0  0  0
    1.0434   -1.4277   -2.0489 C   0  0  0  0  0  0  0  0  0  0  0  0
    0.2049   -0.2109   -2.1250 N   0  0  0  0  0  0  0  0  0  0  0  0
   -1.4806   -0.4167   -2.0565 S   0  0  0  0  0  6  0  0  0  0  0  0
   -2.0873    0.8491   -2.4202 O   0  0  0  0  0  0  0  0  0  0  0  0
   -1.8363   -1.6197   -2.7781 O   0  0  0  0  0  0  0  0  0  0  0  0
   -1.7985   -0.6619   -0.3205 C   0  0  0  0  0  0  0  0  0  0  0  0
   -2.1718    0.4589    0.4441 C   0  0  0  0  0  0  0  0  0  0  0  0
   -2.4351    0.3248    1.8063 C   0  0  0  0  0  0  0  0  0  0  0  0
   -2.7840    1.3329    2.6607 O   0  0  0  0  0  0  0  0  0  0  0  0
   -2.9100    2.6374    2.1046 C   0  0  0  0  0  0  0  0  0  0  0  0
   -2.3379   -0.9351    2.3992 C   0  0  0  0  0  0  0  0  0  0  0  0
   -1.9891   -2.0538    1.6409 C   0  0  0  0  0  0  0  0  0  0  0  0
   -1.7399   -1.9236    0.2726 C   0  0  0  0  0  0  0  0  0  0  0  0
   -1.3430   -3.0311   -0.4219 O   0  0  0  0  0  0  0  0  0  0  0  0
   -2.4493   -3.9028   -0.6709 C   0  0  0  0  0  0  0  0  0  0  0  0
    0.7845    1.0254   -1.5298 C   0  0  0  0  0  0  0  0  0  0  0  0
    2.7272    3.1866    2.8145 H   0  0  0  0  0  0  0  0  0  0  0  0
    4.3667    2.4730    2.7882 H   0  0  0  0  0  0  0  0  0  0  0  0
    3.8775    3.6479    1.5293 H   0  0  0  0  0  0  0  0  0  0  0  0
    3.0692    0.8080    1.7826 H   0  0  0  0  0  0  0  0  0  0  0  0
    1.1844    0.1327    0.3800 H   0  0  0  0  0  0  0  0  0  0  0  0
    3.7810    0.4177   -1.1447 H   0  0  0  0  0  0  0  0  0  0  0  0
    3.2236   -0.8451   -0.0657 H   0  0  0  0  0  0  0  0  0  0  0  0
    3.1446   -1.9450   -2.1202 H   0  0  0  0  0  0  0  0  0  0  0  0
    2.7262   -0.4876   -3.0146 H   0  0  0  0  0  0  0  0  0  0  0  0
    0.8459   -1.9788   -1.1263 H   0  0  0  0  0  0  0  0  0  0  0  0
    0.8176   -2.0758   -2.9019 H   0  0  0  0  0  0  0  0  0  0  0  0
   -2.2458    1.4266   -0.0438 H   0  0  0  0  0  0  0  0  0  0  0  0
   -3.1971    3.3180    2.9120 H   0  0  0  0  0  0  0  0  0  0  0  0
   -1.9549    2.9862    1.6983 H   0  0  0  0  0  0  0  0  0  0  0  0
   -3.6990    2.6682    1.3460 H   0  0  0  0  0  0  0  0  0  0  0  0
   -2.5353   -1.0458    3.4634 H   0  0  0  0  0  0  0  0  0  0  0  0
   -1.9034   -3.0229    2.1254 H   0  0  0  0  0  0  0  0  0  0  0  0
   -2.7127   -4.4580    0.2352 H   0  0  0  0  0  0  0  0  0  0  0  0
   -2.1410   -4.6244   -1.4333 H   0  0  0  0  0  0  0  0  0  0  0  0
   -3.3216   -3.3579   -1.0496 H   0  0  0  0  0  0  0  0  0  0  0  0
    1.3049    1.5699   -2.3284 H   0  0  0  0  0  0  0  0  0  0  0  0
   -0.0034    1.6976   -1.1752 H   0  0  0  0  0  0  0  0  0  0  0  0
  1  2  1  0
  2  3  1  0
  3  4  2  0
  3  5  1  0
  5  6  1  0
  6  7  1  0
  7  8  1  0
  8  9  1  0
  9 10  1  0
 10 11  2  0
 10 12  2  0
 10 13  1  0
 13 14  2  0
 14 15  1  0
 15 16  1  0
 16 17  1  0
 15 18  2  0
 18 19  1  0
 19 20  2  0
 20 21  1  0
 21 22  1  0
  9 23  1  0
 23  5  1  0
 20 13  1  0
  1 24  1  0
  1 25  1  0
  1 26  1  0
  2 27  1  0
  5 28  1  0
  6 29  1  0
  6 30  1  0
  7 31  1  0
  7 32  1  0
  8 33  1  0
  8 34  1  0
 14 35  1  0
 17 36  1  0
 17 37  1  0
 17 38  1  0
 18 39  1  0
 19 40  1  0
 22 41  1  0
 22 42  1  0
 22 43  1  0
 23 44  1  0
 23 45  1  0
M  END
$$$$
