
     RDKit          3D

 42 44  0  0  0  0  0  0  0  0999 V2000
    5.0206    2.6737    1.0385 N   0  0  0  0  0  0  0  0  0  0  0  0
    5.5320    1.4916    0.5789 C   0  0  0  0  0  0  0  0  0  0  0  0
    6.7344    1.3603    0.3903 O   0  0  0  0  0  0  0  0  0  0  0  0
    4.5709    0.3962    0.2817 C   0  0  0  0  0  0  0  0  0  0  0  0
    3.3047    0.3331    0.8781 C   0  0  0  0  0  0  0  0  0  0  0  0
    2.4383   -0.7204    0.5702 C   0  0  0  0  0  0  0  0  0  0  0  0
    2.8406   -1.7170   -0.3187 C   0  0  0  0  0  0  0  0  0  0  0  0
    1.9443   -2.7656   -0.6560 N   0  0  0  0  0  0  0  0  0  0  0  0
    0.8652   -2.5066   -1.9330 S   0  0  0  0  0  6  0  0  0  0  0  0
    1.4980   -1.6715   -2.9312 O   0  0  0  0  0  0  0  0  0  0  0  0
    0.3268   -3.8056   -2.2763 O   0  0  0  0  0  0  0  0  0  0  0  0
   -0.4394   -1.5866   -1.1607 C   0  0  0  0  0  0  0  0  0  0  0  0
   -0.6635   -0.2576   -1.5135 C   0  0  0  0  0  0  0  0  0  0  0  0
   -1.6988    0.4553   -0.8970 C   0  0  0  0  0  0  0  0  0  0  0  0
   -2.5208   -0.1414    0.0756 C   0  0  0  0  0  0  0  0  0  0  0  0
   -3.5675    0.5986    0.6904 N   0  0  0  0  0  0  0  0  0  0  0  0
   -3.9248    1.9370    0.2804 C   0  0  0  0  0  0  0  0  0  0  0  0
   -5.2895    2.1631    0.8955 C   0  0  0  0  0  0  0  0  0  0  0  0
   -5.2343    1.3532    2.1749 C   0  0  0  0  0  0  0  0  0  0  0  0
   -4.3043    0.2153    1.8234 C   0  0  0  0  0  0  0  0  0  0  0  0
   -4.2229   -0.8035    2.4921 O   0  0  0  0  0  0  0  0  0  0  0  0
   -2.2763   -1.4836    0.4026 C   0  0  0  0  0  0  0  0  0  0  0  0
   -1.2480   -2.2083   -0.2119 C   0  0  0  0  0  0  0  0  0  0  0  0
    4.0993   -1.6623   -0.9150 C   0  0  0  0  0  0  0  0  0  0  0  0
    4.9668   -0.6108   -0.6086 C   0  0  0  0  0  0  0  0  0  0  0  0
    4.0472    2.9162    0.9274 H   0  0  0  0  0  0  0  0  0  0  0  0
    5.6821    3.4374    1.1060 H   0  0  0  0  0  0  0  0  0  0  0  0
    2.9869    1.0761    1.6036 H   0  0  0  0  0  0  0  0  0  0  0  0
    1.4632   -0.7677    1.0483 H   0  0  0  0  0  0  0  0  0  0  0  0
    2.3196   -3.7132   -0.6923 H   0  0  0  0  0  0  0  0  0  0  0  0
   -0.0430    0.2326   -2.2609 H   0  0  0  0  0  0  0  0  0  0  0  0
   -1.8319    1.4917   -1.1931 H   0  0  0  0  0  0  0  0  0  0  0  0
   -3.9776    2.0286   -0.8087 H   0  0  0  0  0  0  0  0  0  0  0  0
   -3.1856    2.6376    0.6848 H   0  0  0  0  0  0  0  0  0  0  0  0
   -6.0673    1.7568    0.2368 H   0  0  0  0  0  0  0  0  0  0  0  0
   -5.5105    3.2204    1.0657 H   0  0  0  0  0  0  0  0  0  0  0  0
   -4.7957    1.9260    2.9978 H   0  0  0  0  0  0  0  0  0  0  0  0
   -6.2210    0.9792    2.4590 H   0  0  0  0  0  0  0  0  0  0  0  0
   -2.8895   -2.0122    1.1273 H   0  0  0  0  0  0  0  0  0  0  0  0
   -1.0919   -3.2513    0.0554 H   0  0  0  0  0  0  0  0  0  0  0  0
    4.4122   -2.4218   -1.6264 H   0  0  0  0  0  0  0  0  0  0  0  0
    5.9507   -0.5730   -1.0733 H   0  0  0  0  0  0  0  0  0  0  0  0
  1  2  1  0
  2  3  2  0
  2  4  1  0
  4  5  2  0
  5  6  1  0
  6  7  2  0
  7  8  1  0
  8  9  1  0
  9 10  2  0
  9 11  2  0
  9 12  1  0
 12 13  2  0
 13 14  1  0
 14 15  2  0
 15 16  1  0
 16 17  1  0
 17 18  1  0
 18 19  1  0
 19 20  1  0
 20 21  2  0
 15 22  1  0
 22 23  2  0
  7 24  1  0
 24 25  2  0
 25  4  1  0
 23 12  1  0
 20 16  1  0
  1 26  1  0
  1 27  1  0
  5 28  1  0
  6 29  1  0
  8 30  1  0
 13 31  1  0
 14 32  1  0
 17 33  1  0
 17 34  1  0
 18 35  1  0
 18 36  1  0
 19 37  1  0
 19 38  1  0
 22 39  1  0
 23 40  1  0
 24 41  1  0
 25 42  1  0
M  END
$$$$
