
     RDKit          3D

 48 50  0  0  0  0  0  0  0  0999 V2000
    6.7682    3.2732   -0.2538 C   0  0  0  0  0  0  0  0  0  0  0  0
    6.6563    1.8754   -0.0255 O   0  0  0  0  0  0  0  0  0  0  0  0
    5.4179    1.3809    0.3029 C   0  0  0  0  0  0  0  0  0  0  0  0
    4.2481    2.1504    0.3499 C   0  0  0  0  0  0  0  0  0  0  0  0
    3.0238    1.5695    0.6885 C   0  0  0  0  0  0  0  0  0  0  0  0
    1.8781    2.3787    0.7149 N   0  0  0  0  0  0  0  0  0  0  0  0
    0.7622    1.8266    1.0516 C   0  0  0  0  0  0  0  0  0  0  0  0
    0.6062    0.5014    1.3811 N   0  0  0  0  0  0  0  0  0  0  0  0
   -0.7186   -0.0147    1.7130 C   0  0  0  0  0  0  0  0  0  0  0  0
   -1.3991   -0.6360    0.4968 C   0  0  0  0  0  0  0  0  0  0  0  0
   -2.7954   -1.1043    0.8368 C   0  0  0  0  0  0  0  0  0  0  0  0
   -3.3400   -0.8715    1.9095 O   0  0  0  0  0  0  0  0  0  0  0  0
   -3.3949   -1.7967   -0.1909 N   0  0  0  0  0  0  0  0  0  0  0  0
   -4.7720   -2.2310   -0.1177 C   0  0  0  0  0  0  0  0  0  0  0  0
   -5.6722   -1.2597   -0.8350 C   0  0  0  0  0  0  0  0  0  0  0  0
   -6.1439   -0.1114   -0.1775 C   0  0  0  0  0  0  0  0  0  0  0  0
   -6.9564    0.8095   -0.8439 C   0  0  0  0  0  0  0  0  0  0  0  0
   -7.3040    0.5927   -2.1756 C   0  0  0  0  0  0  0  0  0  0  0  0
   -6.8340   -0.5403   -2.8289 C   0  0  0  0  0  0  0  0  0  0  0  0
   -7.1668   -0.7494   -4.1092 F   0  0  0  0  0  0  0  0  0  0  0  0
   -6.0211   -1.4626   -2.1768 C   0  0  0  0  0  0  0  0  0  0  0  0
    1.6766   -0.3813    1.3316 C   0  0  0  0  0  0  0  0  0  0  0  0
    1.5811   -1.5881    1.5388 O   0  0  0  0  0  0  0  0  0  0  0  0
    2.9831    0.2077    0.9811 C   0  0  0  0  0  0  0  0  0  0  0  0
    4.1380   -0.5816    0.9375 C   0  0  0  0  0  0  0  0  0  0  0  0
    5.3606    0.0007    0.5950 C   0  0  0  0  0  0  0  0  0  0  0  0
    6.5494   -0.6815    0.5218 O   0  0  0  0  0  0  0  0  0  0  0  0
    6.5171   -2.0876    0.7205 C   0  0  0  0  0  0  0  0  0  0  0  0
    7.8183    3.4946   -0.4670 H   0  0  0  0  0  0  0  0  0  0  0  0
    6.1816    3.5784   -1.1261 H   0  0  0  0  0  0  0  0  0  0  0  0
    6.4825    3.8434    0.6363 H   0  0  0  0  0  0  0  0  0  0  0  0
    4.2524    3.2120    0.1213 H   0  0  0  0  0  0  0  0  0  0  0  0
   -0.1620    2.4257    1.0895 H   0  0  0  0  0  0  0  0  0  0  0  0
   -1.3274    0.8059    2.1110 H   0  0  0  0  0  0  0  0  0  0  0  0
   -0.6186   -0.7613    2.5101 H   0  0  0  0  0  0  0  0  0  0  0  0
   -1.4706    0.0994   -0.3127 H   0  0  0  0  0  0  0  0  0  0  0  0
   -0.8188   -1.4881    0.1266 H   0  0  0  0  0  0  0  0  0  0  0  0
   -2.9434   -1.8241   -1.0948 H   0  0  0  0  0  0  0  0  0  0  0  0
   -5.0887   -2.3469    0.9252 H   0  0  0  0  0  0  0  0  0  0  0  0
   -4.8283   -3.2204   -0.5859 H   0  0  0  0  0  0  0  0  0  0  0  0
   -5.8731    0.0692    0.8635 H   0  0  0  0  0  0  0  0  0  0  0  0
   -7.3153    1.6940   -0.3226 H   0  0  0  0  0  0  0  0  0  0  0  0
   -7.9357    1.2972   -2.7067 H   0  0  0  0  0  0  0  0  0  0  0  0
   -5.6696   -2.3316   -2.7250 H   0  0  0  0  0  0  0  0  0  0  0  0
    4.0534   -1.6371    1.1740 H   0  0  0  0  0  0  0  0  0  0  0  0
    7.5333   -2.4673    0.5814 H   0  0  0  0  0  0  0  0  0  0  0  0
    6.2059   -2.3342    1.7405 H   0  0  0  0  0  0  0  0  0  0  0  0
    5.8759   -2.5775   -0.0197 H   0  0  0  0  0  0  0  0  0  0  0  0
  1  2  1  0
  2  3  1  0
  3  4  2  0
  4  5  1  0
  5  6  1  0
  6  7  2  0
  7  8  1  0
  8  9  1  0
  9 10  1  0
 10 11  1  0
 11 12  2  0
 11 13  1  0
 13 14  1  0
 14 15  1  0
 15 16  2  0
 16 17  1  0
 17 18  2  0
 18 19  1  0
 19 20  1  0
 19 21  2  0
  8 22  1  0
 22 23  2  0
 22 24  1  0
 24 25  1  0
 25 26  2  0
 26 27  1  0
 27 28  1  0
 26  3  1  0
 24  5  2  0
 21 15  1  0
  1 29  1  0
  1 30  1  0
  1 31  1  0
  4 32  1  0
  7 33  1  0
  9 34  1  0
  9 35  1  0
 10 36  1  0
 10 37  1  0
 13 38  1  0
 14 39  1  0
 14 40  1  0
 16 41  1  0
 17 42  1  0
 18 43  1  0
 21 44  1  0
 25 45  1  0
 28 46  1  0
 28 47  1  0
 28 48  1  0
M  END
$$$$
