
     RDKit          3D

 43 44  0  0  0  0  0  0  0  0999 V2000
   -1.4399    2.8638   -1.1365 C   0  0  0  0  0  0  0  0  0  0  0  0
   -2.4207    2.0039   -1.9211 C   0  0  0  0  0  0  0  0  0  0  0  0
   -3.2772    1.1525   -1.0157 C   0  0  0  0  0  0  0  0  0  0  0  0
   -4.3865    1.7295   -0.3749 C   0  0  0  0  0  0  0  0  0  0  0  0
   -5.2112    0.9641    0.4563 C   0  0  0  0  0  0  0  0  0  0  0  0
   -4.9410   -0.3882    0.6541 C   0  0  0  0  0  0  0  0  0  0  0  0
   -3.8394   -0.9729    0.0314 C   0  0  0  0  0  0  0  0  0  0  0  0
   -3.0002   -0.2009   -0.7803 C   0  0  0  0  0  0  0  0  0  0  0  0
   -1.9347   -0.8021   -1.3984 O   0  0  0  0  0  0  0  0  0  0  0  0
   -0.8438   -1.0148   -0.4950 C   0  0  0  0  0  0  0  0  0  0  0  0
   -0.5846   -2.5162   -0.3932 C   0  0  0  0  0  0  0  0  0  0  0  0
    0.4346   -0.3265   -1.0134 C   0  0  0  0  0  0  0  0  0  0  0  0
    0.5694    0.1037   -2.1567 O   0  0  0  0  0  0  0  0  0  0  0  0
    1.4452   -0.2452   -0.0704 N   0  0  0  0  0  0  0  0  0  0  0  0
    2.6573    0.5089   -0.3486 C   0  0  0  0  0  0  0  0  0  0  0  0
    3.7635    0.2095    0.6650 C   0  0  0  0  0  0  0  0  0  0  0  0
    4.2924   -1.2163    0.6294 C   0  0  0  0  0  0  0  0  0  0  0  0
    4.8560   -1.3586    2.0220 C   0  0  0  0  0  0  0  0  0  0  0  0
    3.8422   -0.5992    2.8537 C   0  0  0  0  0  0  0  0  0  0  0  0
    3.2821    0.4217    2.0116 O   0  0  0  0  0  0  0  0  0  0  0  0
   -1.9643    3.5697   -0.4858 H   0  0  0  0  0  0  0  0  0  0  0  0
   -0.8098    3.4416   -1.8200 H   0  0  0  0  0  0  0  0  0  0  0  0
   -0.7861    2.2544   -0.5026 H   0  0  0  0  0  0  0  0  0  0  0  0
   -3.0717    2.6491   -2.5246 H   0  0  0  0  0  0  0  0  0  0  0  0
   -1.8802    1.3816   -2.6394 H   0  0  0  0  0  0  0  0  0  0  0  0
   -4.6185    2.7823   -0.5257 H   0  0  0  0  0  0  0  0  0  0  0  0
   -6.0682    1.4247    0.9409 H   0  0  0  0  0  0  0  0  0  0  0  0
   -5.5876   -0.9846    1.2921 H   0  0  0  0  0  0  0  0  0  0  0  0
   -3.6466   -2.0307    0.1691 H   0  0  0  0  0  0  0  0  0  0  0  0
   -1.0538   -0.6096    0.5056 H   0  0  0  0  0  0  0  0  0  0  0  0
   -0.3299   -2.9339   -1.3750 H   0  0  0  0  0  0  0  0  0  0  0  0
   -1.4774   -3.0462   -0.0457 H   0  0  0  0  0  0  0  0  0  0  0  0
    0.2386   -2.7395    0.2929 H   0  0  0  0  0  0  0  0  0  0  0  0
    1.1855   -0.2916    0.9093 H   0  0  0  0  0  0  0  0  0  0  0  0
    2.3773    1.5669   -0.2884 H   0  0  0  0  0  0  0  0  0  0  0  0
    2.9935    0.3022   -1.3700 H   0  0  0  0  0  0  0  0  0  0  0  0
    4.5917    0.9116    0.5070 H   0  0  0  0  0  0  0  0  0  0  0  0
    5.0371   -1.3694   -0.1551 H   0  0  0  0  0  0  0  0  0  0  0  0
    3.4860   -1.9426    0.4848 H   0  0  0  0  0  0  0  0  0  0  0  0
    4.9812   -2.3941    2.3457 H   0  0  0  0  0  0  0  0  0  0  0  0
    5.8331   -0.8639    2.0786 H   0  0  0  0  0  0  0  0  0  0  0  0
    3.0214   -1.2524    3.1729 H   0  0  0  0  0  0  0  0  0  0  0  0
    4.2854   -0.1425    3.7453 H   0  0  0  0  0  0  0  0  0  0  0  0
  1  2  1  0
  2  3  1  0
  3  4  2  0
  4  5  1  0
  5  6  2  0
  6  7  1  0
  7  8  2  0
  8  9  1  0
  9 10  1  0
 10 11  1  0
 10 12  1  0
 12 13  2  0
 12 14  1  0
 14 15  1  0
 15 16  1  0
 16 17  1  0
 17 18  1  0
 18 19  1  0
 19 20  1  0
  8  3  1  0
 20 16  1  0
  1 21  1  0
  1 22  1  0
  1 23  1  0
  2 24  1  0
  2 25  1  0
  4 26  1  0
  5 27  1  0
  6 28  1  0
  7 29  1  0
 10 30  1  0
 11 31  1  0
 11 32  1  0
 11 33  1  0
 14 34  1  0
 15 35  1  0
 15 36  1  0
 16 37  1  0
 17 38  1  0
 17 39  1  0
 18 40  1  0
 18 41  1  0
 19 42  1  0
 19 43  1  0
M  END
$$$$
