
     RDKit          3D

 56 56  0  0  0  0  0  0  0  0999 V2000
    6.2735   -1.2877   -0.9057 C   0  0  0  0  0  0  0  0  0  0  0  0
    4.8002   -0.9219   -0.8089 C   0  0  0  0  0  0  0  0  0  0  0  0
    4.0133   -2.0907   -1.0600 O   0  0  0  0  0  0  0  0  0  0  0  0
    4.4331    0.1923   -1.8101 C   0  0  0  0  0  0  0  0  0  0  0  0
    2.9885    0.4377   -1.8827 N   0  0  0  0  0  0  0  0  0  0  0  0
    2.5462    1.6332   -1.1614 C   0  0  0  0  0  0  0  0  0  0  0  0
    2.5834    1.5567    0.3698 C   0  0  0  0  0  0  0  0  0  0  0  0
    1.6508    0.5063    0.9710 C   0  0  0  0  0  0  0  0  0  0  0  0
    0.3111    0.7736    0.5437 O   0  0  0  0  0  0  0  0  0  0  0  0
   -0.5979    0.8201    1.5754 C   0  0  0  0  0  0  0  0  0  0  0  0
   -0.4797    1.7601    2.5993 C   0  0  0  0  0  0  0  0  0  0  0  0
   -1.4534    1.8190    3.6033 C   0  0  0  0  0  0  0  0  0  0  0  0
   -2.5541    0.9452    3.5791 C   0  0  0  0  0  0  0  0  0  0  0  0
   -2.6890    0.0178    2.5452 C   0  0  0  0  0  0  0  0  0  0  0  0
   -1.7233   -0.0248    1.5347 C   0  0  0  0  0  0  0  0  0  0  0  0
   -1.8790   -0.9590    0.5471 O   0  0  0  0  0  0  0  0  0  0  0  0
   -2.2987   -0.3487   -0.6853 C   0  0  0  0  0  0  0  0  0  0  0  0
   -3.7822   -0.5708   -0.8833 C   0  0  0  0  0  0  0  0  0  0  0  0
   -4.2904   -1.8701   -1.0859 C   0  0  0  0  0  0  0  0  0  0  0  0
   -5.6621   -2.0781   -1.2554 C   0  0  0  0  0  0  0  0  0  0  0  0
   -6.5387   -0.9906   -1.2187 C   0  0  0  0  0  0  0  0  0  0  0  0
   -6.0446    0.3041   -1.0102 C   0  0  0  0  0  0  0  0  0  0  0  0
   -4.6732    0.5138   -0.8434 C   0  0  0  0  0  0  0  0  0  0  0  0
   -1.0228   -0.2333    1.4868 O   0  0  0  0  0  0  0  0  0  0  0  0
   -0.7231    0.0142    0.3355 C   0  0  0  0  0  0  0  0  0  0  0  0
   -1.6453    0.3395   -0.5809 O   0  0  0  0  0  0  0  0  0  0  0  0
    0.7243   -0.0062   -0.2454 C   0  0  0  0  0  0  0  0  0  0  0  0
    1.0270    0.2569   -1.3926 O   0  0  0  0  0  0  0  0  0  0  0  0
    1.6424   -0.3544    0.6666 O   0  0  0  0  0  0  0  0  0  0  0  0
    6.5149   -1.6835   -1.8979 H   0  0  0  0  0  0  0  0  0  0  0  0
    6.5193   -2.0730   -0.1842 H   0  0  0  0  0  0  0  0  0  0  0  0
    6.9149   -0.4200   -0.7111 H   0  0  0  0  0  0  0  0  0  0  0  0
    4.5796   -0.6039    0.2138 H   0  0  0  0  0  0  0  0  0  0  0  0
    4.0479   -2.2678   -2.0167 H   0  0  0  0  0  0  0  0  0  0  0  0
    4.7302   -0.1370   -2.8120 H   0  0  0  0  0  0  0  0  0  0  0  0
    5.0014    1.1057   -1.6035 H   0  0  0  0  0  0  0  0  0  0  0  0
    2.4877   -0.3908   -1.5454 H   0  0  0  0  0  0  0  0  0  0  0  0
    1.5199    1.8510   -1.4825 H   0  0  0  0  0  0  0  0  0  0  0  0
    3.1376    2.4984   -1.4926 H   0  0  0  0  0  0  0  0  0  0  0  0
    3.6076    1.3925    0.7206 H   0  0  0  0  0  0  0  0  0  0  0  0
    2.2814    2.5432    0.7480 H   0  0  0  0  0  0  0  0  0  0  0  0
    1.7641    0.5013    2.0635 H   0  0  0  0  0  0  0  0  0  0  0  0
    1.9163   -0.4988    0.6229 H   0  0  0  0  0  0  0  0  0  0  0  0
    0.3585    2.4519    2.6217 H   0  0  0  0  0  0  0  0  0  0  0  0
   -1.3565    2.5502    4.4037 H   0  0  0  0  0  0  0  0  0  0  0  0
   -3.3096    0.9990    4.3572 H   0  0  0  0  0  0  0  0  0  0  0  0
   -3.5457   -0.6556    2.5123 H   0  0  0  0  0  0  0  0  0  0  0  0
   -2.0532    0.7185   -0.7486 H   0  0  0  0  0  0  0  0  0  0  0  0
   -1.7543   -0.8379   -1.5033 H   0  0  0  0  0  0  0  0  0  0  0  0
   -3.6128   -2.7232   -1.1057 H   0  0  0  0  0  0  0  0  0  0  0  0
   -6.0472   -3.0883   -1.4146 H   0  0  0  0  0  0  0  0  0  0  0  0
   -7.6056   -1.1522   -1.3497 H   0  0  0  0  0  0  0  0  0  0  0  0
   -6.7277    1.1519   -0.9760 H   0  0  0  0  0  0  0  0  0  0  0  0
   -4.3029    1.5290   -0.6776 H   0  0  0  0  0  0  0  0  0  0  0  0
   -2.4946    0.3137   -0.0955 H   0  0  0  0  0  0  0  0  0  0  0  0
    2.4919   -0.3304    0.1823 H   0  0  0  0  0  0  0  0  0  0  0  0
  1  2  1  0
  2  3  1  0
  2  4  1  0
  4  5  1  0
  5  6  1  0
  6  7  1  0
  7  8  1  0
  8  9  1  0
  9 10  1  0
 10 11  2  0
 11 12  1  0
 12 13  2  0
 13 14  1  0
 14 15  2  0
 15 16  1  0
 16 17  1  0
 17 18  1  0
 18 19  2  0
 19 20  1  0
 20 21  2  0
 21 22  1  0
 22 23  2  0
 24 25  2  0
 25 26  1  0
 25 27  1  0
 27 28  2  0
 27 29  1  0
 15 10  1  0
 23 18  1  0
  1 30  1  0
  1 31  1  0
  1 32  1  0
  2 33  1  0
  3 34  1  0
  4 35  1  0
  4 36  1  0
  5 37  1  0
  6 38  1  0
  6 39  1  0
  7 40  1  0
  7 41  1  0
  8 42  1  0
  8 43  1  0
 11 44  1  0
 12 45  1  0
 13 46  1  0
 14 47  1  0
 17 48  1  0
 17 49  1  0
 19 50  1  0
 20 51  1  0
 21 52  1  0
 22 53  1  0
 23 54  1  0
 26 55  1  0
 29 56  1  0
M  END
$$$$
