
     RDKit          3D

 50 53  0  0  0  0  0  0  0  0999 V2000
    4.0308   -3.0229    0.6396 C   0  0  0  0  0  0  0  0  0  0  0  0
    2.5846   -2.0854    0.1923 S   0  0  0  0  0  6  0  0  0  0  0  0
    1.8505   -1.7750    1.4033 O   0  0  0  0  0  0  0  0  0  0  0  0
    1.9451   -2.7917   -0.8984 O   0  0  0  0  0  0  0  0  0  0  0  0
    3.2888   -0.6472   -0.3969 N   0  0  0  0  0  0  0  0  0  0  0  0
    4.1015    0.1399    0.5979 C   0  0  0  0  0  0  0  0  0  0  0  0
    3.9389    1.6217    0.2279 C   0  0  0  0  0  0  0  0  0  0  0  0
    2.7305    1.5979   -0.6451 C   0  0  0  0  0  0  0  0  0  0  0  0
    1.9943    2.6839   -1.0950 C   0  0  0  0  0  0  0  0  0  0  0  0
    0.9118    2.4418   -1.9411 C   0  0  0  0  0  0  0  0  0  0  0  0
    0.0045    3.4929   -2.2606 N   0  0  0  0  0  0  0  0  0  0  0  0
   -0.9976    4.0633   -1.0066 S   0  0  0  0  0  6  0  0  0  0  0  0
   -2.0739    4.7880   -1.6485 O   0  0  0  0  0  0  0  0  0  0  0  0
   -0.1751    4.6822    0.0115 O   0  0  0  0  0  0  0  0  0  0  0  0
   -1.6768    2.5635   -0.3308 C   0  0  0  0  0  0  0  0  0  0  0  0
   -2.8092    1.9931   -0.9060 C   0  0  0  0  0  0  0  0  0  0  0  0
   -3.2679    0.7540   -0.4409 C   0  0  0  0  0  0  0  0  0  0  0  0
   -2.6096    0.0690    0.5924 C   0  0  0  0  0  0  0  0  0  0  0  0
   -3.0275   -1.2200    1.0253 N   0  0  0  0  0  0  0  0  0  0  0  0
   -2.3508   -1.9424    2.0796 C   0  0  0  0  0  0  0  0  0  0  0  0
   -3.2950   -3.0749    2.4217 C   0  0  0  0  0  0  0  0  0  0  0  0
   -3.9685   -3.3792    1.0996 C   0  0  0  0  0  0  0  0  0  0  0  0
   -3.9829   -2.0392    0.4013 C   0  0  0  0  0  0  0  0  0  0  0  0
   -4.6944   -1.8062   -0.5642 O   0  0  0  0  0  0  0  0  0  0  0  0
   -1.5011    0.6955    1.1876 C   0  0  0  0  0  0  0  0  0  0  0  0
   -1.0438    1.9403    0.7438 C   0  0  0  0  0  0  0  0  0  0  0  0
    0.6232    1.1390   -2.3762 C   0  0  0  0  0  0  0  0  0  0  0  0
    1.3812    0.0554   -1.9206 C   0  0  0  0  0  0  0  0  0  0  0  0
    2.3970    0.2955   -1.0117 C   0  0  0  0  0  0  0  0  0  0  0  0
    3.6992   -4.0079    0.9760 H   0  0  0  0  0  0  0  0  0  0  0  0
    4.5568   -2.5184    1.4512 H   0  0  0  0  0  0  0  0  0  0  0  0
    4.6691   -3.1297   -0.2396 H   0  0  0  0  0  0  0  0  0  0  0  0
    5.1521   -0.1639    0.5557 H   0  0  0  0  0  0  0  0  0  0  0  0
    3.7348   -0.0200    1.6184 H   0  0  0  0  0  0  0  0  0  0  0  0
    4.8048    1.9789   -0.3393 H   0  0  0  0  0  0  0  0  0  0  0  0
    3.8018    2.2418    1.1185 H   0  0  0  0  0  0  0  0  0  0  0  0
    2.2353    3.6930   -0.7730 H   0  0  0  0  0  0  0  0  0  0  0  0
   -0.5224    3.4075   -3.1291 H   0  0  0  0  0  0  0  0  0  0  0  0
   -3.3316    2.4835   -1.7241 H   0  0  0  0  0  0  0  0  0  0  0  0
   -4.1502    0.3416   -0.9218 H   0  0  0  0  0  0  0  0  0  0  0  0
   -2.1797   -1.3143    2.9589 H   0  0  0  0  0  0  0  0  0  0  0  0
   -1.3988   -2.3223    1.6917 H   0  0  0  0  0  0  0  0  0  0  0  0
   -4.0445   -2.7301    3.1451 H   0  0  0  0  0  0  0  0  0  0  0  0
   -2.7841   -3.9403    2.8528 H   0  0  0  0  0  0  0  0  0  0  0  0
   -4.9838   -3.7578    1.2413 H   0  0  0  0  0  0  0  0  0  0  0  0
   -3.3831   -4.0830    0.4998 H   0  0  0  0  0  0  0  0  0  0  0  0
   -0.9407    0.2209    1.9883 H   0  0  0  0  0  0  0  0  0  0  0  0
   -0.1687    2.3862    1.2111 H   0  0  0  0  0  0  0  0  0  0  0  0
   -0.2170    0.9473   -3.0388 H   0  0  0  0  0  0  0  0  0  0  0  0
    1.1422   -0.9456   -2.2630 H   0  0  0  0  0  0  0  0  0  0  0  0
  1  2  1  0
  2  3  2  0
  2  4  2  0
  2  5  1  0
  5  6  1  0
  6  7  1  0
  7  8  1  0
  8  9  2  0
  9 10  1  0
 10 11  1  0
 11 12  1  0
 12 13  2  0
 12 14  2  0
 12 15  1  0
 15 16  2  0
 16 17  1  0
 17 18  2  0
 18 19  1  0
 19 20  1  0
 20 21  1  0
 21 22  1  0
 22 23  1  0
 23 24  2  0
 18 25  1  0
 25 26  2  0
 10 27  2  0
 27 28  1  0
 28 29  2  0
 29  5  1  0
 29  8  1  0
 26 15  1  0
 23 19  1  0
  1 30  1  0
  1 31  1  0
  1 32  1  0
  6 33  1  0
  6 34  1  0
  7 35  1  0
  7 36  1  0
  9 37  1  0
 11 38  1  0
 16 39  1  0
 17 40  1  0
 20 41  1  0
 20 42  1  0
 21 43  1  0
 21 44  1  0
 22 45  1  0
 22 46  1  0
 25 47  1  0
 26 48  1  0
 27 49  1  0
 28 50  1  0
M  END
$$$$
