
     RDKit          3D

 57 60  0  0  0  0  0  0  0  0999 V2000
    0.8805   -1.1053    2.8860 O   0  0  0  0  0  0  0  0  0  0  0  0
    1.8803   -1.3793    2.2339 C   0  0  0  0  0  0  0  0  0  0  0  0
    3.0171   -1.8646    2.8420 N   0  0  0  0  0  0  0  0  0  0  0  0
    4.1442   -2.2684    2.0406 C   0  0  0  0  0  0  0  0  0  0  0  0
    4.5061   -1.2079    0.9898 C   0  0  0  0  0  0  0  0  0  0  0  0
    3.2998   -0.5383    0.3403 N   0  0  0  0  0  0  0  0  0  0  0  0
    3.2724    1.1670    0.5626 S   0  0  0  0  0  6  0  0  0  0  0  0
    3.3209    1.4152    1.9882 O   0  0  0  0  0  0  0  0  0  0  0  0
    2.2351    1.7369   -0.2740 O   0  0  0  0  0  0  0  0  0  0  0  0
    4.8227    1.6836   -0.1418 C   0  0  0  0  0  0  0  0  0  0  0  0
    5.1086    1.3581   -1.4698 C   0  0  0  0  0  0  0  0  0  0  0  0
    6.3263    1.7557   -2.0210 C   0  0  0  0  0  0  0  0  0  0  0  0
    7.2430    2.4736   -1.2474 C   0  0  0  0  0  0  0  0  0  0  0  0
    6.9480    2.7977    0.0796 C   0  0  0  0  0  0  0  0  0  0  0  0
    5.7344    2.4049    0.6362 C   0  0  0  0  0  0  0  0  0  0  0  0
    2.0000   -1.2657    0.7003 C   0  0  0  0  0  0  0  0  0  0  0  0
    0.7405   -0.6418    0.1012 C   0  0  0  0  0  0  0  0  0  0  0  0
   -0.4163   -1.6265    0.1215 C   0  0  0  0  0  0  0  0  0  0  0  0
   -0.2079   -2.8395    0.2075 O   0  0  0  0  0  0  0  0  0  0  0  0
   -1.6962   -1.1121   -0.0430 N   0  0  0  0  0  0  0  0  0  0  0  0
   -2.0269    0.3193   -0.0865 C   0  0  0  0  0  0  0  0  0  0  0  0
   -3.5184    0.6239    0.1560 C   0  0  0  0  0  0  0  0  0  0  0  0
   -4.3934   -0.1651   -0.7258 N   0  0  0  0  0  0  0  0  0  0  0  0
   -5.6874    0.2440   -1.0134 C   0  0  0  0  0  0  0  0  0  0  0  0
   -6.3277    1.2631   -0.2898 C   0  0  0  0  0  0  0  0  0  0  0  0
   -7.6345    1.6770   -0.5802 C   0  0  0  0  0  0  0  0  0  0  0  0
   -8.3427    1.0802   -1.6147 C   0  0  0  0  0  0  0  0  0  0  0  0
   -7.7385    0.0763   -2.3572 C   0  0  0  0  0  0  0  0  0  0  0  0
   -6.4308   -0.3324   -2.0569 C   0  0  0  0  0  0  0  0  0  0  0  0
   -3.9320   -1.5189   -1.0922 C   0  0  0  0  0  0  0  0  0  0  0  0
   -2.8322   -2.0309   -0.1428 C   0  0  0  0  0  0  0  0  0  0  0  0
    2.9662   -2.0166    3.8449 H   0  0  0  0  0  0  0  0  0  0  0  0
    4.9930   -2.4643    2.7021 H   0  0  0  0  0  0  0  0  0  0  0  0
    3.8788   -3.2134    1.5487 H   0  0  0  0  0  0  0  0  0  0  0  0
    5.1292   -0.4598    1.4959 H   0  0  0  0  0  0  0  0  0  0  0  0
    5.1207   -1.6453    0.2026 H   0  0  0  0  0  0  0  0  0  0  0  0
    4.3898    0.8067   -2.0735 H   0  0  0  0  0  0  0  0  0  0  0  0
    6.5597    1.5129   -3.0539 H   0  0  0  0  0  0  0  0  0  0  0  0
    8.1878    2.7923   -1.6848 H   0  0  0  0  0  0  0  0  0  0  0  0
    7.6620    3.3635    0.6741 H   0  0  0  0  0  0  0  0  0  0  0  0
    5.5040    2.6715    1.6635 H   0  0  0  0  0  0  0  0  0  0  0  0
    2.1133   -2.2818    0.2991 H   0  0  0  0  0  0  0  0  0  0  0  0
    0.4782    0.2579    0.6618 H   0  0  0  0  0  0  0  0  0  0  0  0
    0.9036   -0.3780   -0.9503 H   0  0  0  0  0  0  0  0  0  0  0  0
   -1.7236    0.6826   -1.0770 H   0  0  0  0  0  0  0  0  0  0  0  0
   -1.4430    0.8592    0.6677 H   0  0  0  0  0  0  0  0  0  0  0  0
   -3.7732    0.4014    1.2012 H   0  0  0  0  0  0  0  0  0  0  0  0
   -3.6593    1.6994   -0.0069 H   0  0  0  0  0  0  0  0  0  0  0  0
   -5.8270    1.7508    0.5404 H   0  0  0  0  0  0  0  0  0  0  0  0
   -8.0923    2.4663    0.0058 H   0  0  0  0  0  0  0  0  0  0  0  0
   -9.3546    1.3987   -1.8440 H   0  0  0  0  0  0  0  0  0  0  0  0
   -8.2773   -0.3915   -3.1763 H   0  0  0  0  0  0  0  0  0  0  0  0
   -5.9960   -1.1010   -2.6850 H   0  0  0  0  0  0  0  0  0  0  0  0
   -4.7561   -2.2424   -1.0572 H   0  0  0  0  0  0  0  0  0  0  0  0
   -3.5460   -1.4884   -2.1175 H   0  0  0  0  0  0  0  0  0  0  0  0
   -2.4978   -3.0194   -0.4756 H   0  0  0  0  0  0  0  0  0  0  0  0
   -3.2351   -2.1411    0.8726 H   0  0  0  0  0  0  0  0  0  0  0  0
  1  2  2  0
  2  3  1  0
  3  4  1  0
  4  5  1  0
  5  6  1  0
  6  7  1  0
  7  8  2  0
  7  9  2  0
  7 10  1  0
 10 11  2  0
 11 12  1  0
 12 13  2  0
 13 14  1  0
 14 15  2  0
  6 16  1  0
 16 17  1  0
 17 18  1  0
 18 19  2  0
 18 20  1  0
 20 21  1  0
 21 22  1  0
 22 23  1  0
 23 24  1  0
 24 25  2  0
 25 26  1  0
 26 27  2  0
 27 28  1  0
 28 29  2  0
 23 30  1  0
 30 31  1  0
 16  2  1  0
 31 20  1  0
 15 10  1  0
 29 24  1  0
  3 32  1  0
  4 33  1  0
  4 34  1  0
  5 35  1  0
  5 36  1  0
 11 37  1  0
 12 38  1  0
 13 39  1  0
 14 40  1  0
 15 41  1  0
 16 42  1  0
 17 43  1  0
 17 44  1  0
 21 45  1  0
 21 46  1  0
 22 47  1  0
 22 48  1  0
 25 49  1  0
 26 50  1  0
 27 51  1  0
 28 52  1  0
 29 53  1  0
 30 54  1  0
 30 55  1  0
 31 56  1  0
 31 57  1  0
M  END
$$$$
