
     RDKit          3D

 40 42  0  0  0  0  0  0  0  0999 V2000
    4.8578    2.5700    0.9744 C   0  0  0  0  0  0  0  0  0  0  0  0
    3.3790    2.5074    1.3144 C   0  0  0  0  0  0  0  0  0  0  0  0
    2.9903    1.1719    1.6301 O   0  0  0  0  0  0  0  0  0  0  0  0
    2.5297    0.3617    0.6310 C   0  0  0  0  0  0  0  0  0  0  0  0
    2.5613    0.6376   -0.7360 C   0  0  0  0  0  0  0  0  0  0  0  0
    2.0613   -0.2918   -1.6528 C   0  0  0  0  0  0  0  0  0  0  0  0
    1.5280   -1.5004   -1.2071 C   0  0  0  0  0  0  0  0  0  0  0  0
    1.4948   -1.7805    0.1580 C   0  0  0  0  0  0  0  0  0  0  0  0
    0.9158   -3.0056    0.5919 N   0  0  0  0  0  0  0  0  0  0  0  0
   -0.4771   -2.9811    1.5456 S   0  0  0  0  0  6  0  0  0  0  0  0
   -0.9948   -4.3339    1.5273 O   0  0  0  0  0  0  0  0  0  0  0  0
   -0.2043   -2.3030    2.7935 O   0  0  0  0  0  0  0  0  0  0  0  0
   -1.5954   -1.9742    0.5973 C   0  0  0  0  0  0  0  0  0  0  0  0
   -2.3696   -2.5658   -0.4081 C   0  0  0  0  0  0  0  0  0  0  0  0
   -3.2559   -1.7790   -1.1449 C   0  0  0  0  0  0  0  0  0  0  0  0
   -3.3725   -0.4173   -0.8663 C   0  0  0  0  0  0  0  0  0  0  0  0
   -2.5879    0.1688    0.1349 C   0  0  0  0  0  0  0  0  0  0  0  0
   -1.7129   -0.6113    0.8858 C   0  0  0  0  0  0  0  0  0  0  0  0
   -2.6346    1.5052    0.4385 O   0  0  0  0  0  0  0  0  0  0  0  0
   -3.2958    2.2538   -0.5875 C   0  0  0  0  0  0  0  0  0  0  0  0
   -4.5735    1.5560   -1.0230 C   0  0  0  0  0  0  0  0  0  0  0  0
   -4.2773    0.2873   -1.6188 O   0  0  0  0  0  0  0  0  0  0  0  0
    1.9999   -0.8555    1.0710 C   0  0  0  0  0  0  0  0  0  0  0  0
    5.1707    3.6034    0.7996 H   0  0  0  0  0  0  0  0  0  0  0  0
    5.0892    1.9802    0.0826 H   0  0  0  0  0  0  0  0  0  0  0  0
    5.4564    2.1551    1.7922 H   0  0  0  0  0  0  0  0  0  0  0  0
    2.7516    2.9570    0.5369 H   0  0  0  0  0  0  0  0  0  0  0  0
    3.2072    3.1018    2.2190 H   0  0  0  0  0  0  0  0  0  0  0  0
    2.9779    1.5605   -1.1250 H   0  0  0  0  0  0  0  0  0  0  0  0
    2.0891   -0.0703   -2.7170 H   0  0  0  0  0  0  0  0  0  0  0  0
    1.1354   -2.2071   -1.9323 H   0  0  0  0  0  0  0  0  0  0  0  0
    0.9254   -3.7952   -0.0506 H   0  0  0  0  0  0  0  0  0  0  0  0
   -2.2960   -3.6310   -0.6153 H   0  0  0  0  0  0  0  0  0  0  0  0
   -3.8679   -2.2274   -1.9232 H   0  0  0  0  0  0  0  0  0  0  0  0
   -1.1197   -0.1523    1.6733 H   0  0  0  0  0  0  0  0  0  0  0  0
   -2.6017    2.3814   -1.4275 H   0  0  0  0  0  0  0  0  0  0  0  0
   -3.5248    3.2436   -0.1805 H   0  0  0  0  0  0  0  0  0  0  0  0
   -5.2524    1.3943   -0.1765 H   0  0  0  0  0  0  0  0  0  0  0  0
   -5.0981    2.1588   -1.7709 H   0  0  0  0  0  0  0  0  0  0  0  0
    1.9910   -1.0732    2.1367 H   0  0  0  0  0  0  0  0  0  0  0  0
  1  2  1  0
  2  3  1  0
  3  4  1  0
  4  5  2  0
  5  6  1  0
  6  7  2  0
  7  8  1  0
  8  9  1  0
  9 10  1  0
 10 11  2  0
 10 12  2  0
 10 13  1  0
 13 14  2  0
 14 15  1  0
 15 16  2  0
 16 17  1  0
 17 18  2  0
 17 19  1  0
 19 20  1  0
 20 21  1  0
 21 22  1  0
  8 23  2  0
 23  4  1  0
 18 13  1  0
 22 16  1  0
  1 24  1  0
  1 25  1  0
  1 26  1  0
  2 27  1  0
  2 28  1  0
  5 29  1  0
  6 30  1  0
  7 31  1  0
  9 32  1  0
 14 33  1  0
 15 34  1  0
 18 35  1  0
 20 36  1  0
 20 37  1  0
 21 38  1  0
 21 39  1  0
 23 40  1  0
M  END
$$$$
