
     RDKit          3D

 47 49  0  0  0  0  0  0  0  0999 V2000
   -6.8246    0.3841   -0.9473 C   0  0  0  0  0  0  0  0  0  0  0  0
   -5.4841    0.9519   -1.3864 C   0  0  0  0  0  0  0  0  0  0  0  0
   -4.4789   -0.0917   -1.4641 N   0  0  0  0  0  0  0  0  0  0  0  0
   -3.7044   -0.2754   -0.3262 C   0  0  0  0  0  0  0  0  0  0  0  0
   -4.2200   -0.0762    0.8903 N   0  0  0  0  0  0  0  0  0  0  0  0
   -3.4124   -0.2962    1.9403 C   0  0  0  0  0  0  0  0  0  0  0  0
   -3.9948   -0.1106    3.3080 C   0  0  0  0  0  0  0  0  0  0  0  0
   -2.0969   -0.6811    1.7881 C   0  0  0  0  0  0  0  0  0  0  0  0
   -1.6221   -0.8384    0.4999 C   0  0  0  0  0  0  0  0  0  0  0  0
   -0.3092   -1.2396    0.2656 N   0  0  0  0  0  0  0  0  0  0  0  0
    0.7752   -0.6878    1.0941 C   0  0  0  0  0  0  0  0  0  0  0  0
    1.9559   -0.1666    0.2484 C   0  0  0  0  0  0  0  0  0  0  0  0
    2.4484   -1.1478   -0.7282 N   0  0  0  0  0  0  0  0  0  0  0  0
    3.7806   -1.3394   -1.0721 C   0  0  0  0  0  0  0  0  0  0  0  0
    4.1835   -2.3260   -1.6830 O   0  0  0  0  0  0  0  0  0  0  0  0
    4.7750   -0.3103   -0.6934 C   0  0  0  0  0  0  0  0  0  0  0  0
    4.6030    1.0268   -1.0708 C   0  0  0  0  0  0  0  0  0  0  0  0
    5.5668    1.9747   -0.7200 C   0  0  0  0  0  0  0  0  0  0  0  0
    6.7012    1.5780   -0.0100 C   0  0  0  0  0  0  0  0  0  0  0  0
    8.0042    2.8632    0.4633 Br  0  0  0  0  0  0  0  0  0  0  0  0
    6.8875    0.2418    0.3464 C   0  0  0  0  0  0  0  0  0  0  0  0
    5.9250   -0.7075   -0.0031 C   0  0  0  0  0  0  0  0  0  0  0  0
    1.4643   -2.1152   -1.2232 C   0  0  0  0  0  0  0  0  0  0  0  0
    0.0230   -1.5921   -1.1261 C   0  0  0  0  0  0  0  0  0  0  0  0
   -2.4375   -0.6441   -0.5521 N   0  0  0  0  0  0  0  0  0  0  0  0
   -7.5880    1.1684   -0.9552 H   0  0  0  0  0  0  0  0  0  0  0  0
   -6.7791   -0.0319    0.0637 H   0  0  0  0  0  0  0  0  0  0  0  0
   -7.1503   -0.4149   -1.6218 H   0  0  0  0  0  0  0  0  0  0  0  0
   -5.1774    1.7831   -0.7393 H   0  0  0  0  0  0  0  0  0  0  0  0
   -5.6087    1.3757   -2.3900 H   0  0  0  0  0  0  0  0  0  0  0  0
   -3.8148    0.0001   -2.2247 H   0  0  0  0  0  0  0  0  0  0  0  0
   -3.4705    0.6922    3.8357 H   0  0  0  0  0  0  0  0  0  0  0  0
   -5.0548    0.1568    3.2477 H   0  0  0  0  0  0  0  0  0  0  0  0
   -3.9107   -1.0364    3.8854 H   0  0  0  0  0  0  0  0  0  0  0  0
   -1.4768   -0.8792    2.6517 H   0  0  0  0  0  0  0  0  0  0  0  0
    0.4341    0.1387    1.7287 H   0  0  0  0  0  0  0  0  0  0  0  0
    1.1316   -1.4858    1.7566 H   0  0  0  0  0  0  0  0  0  0  0  0
    1.6326    0.7101   -0.3254 H   0  0  0  0  0  0  0  0  0  0  0  0
    2.7639    0.1441    0.9171 H   0  0  0  0  0  0  0  0  0  0  0  0
    3.7339    1.3286   -1.6496 H   0  0  0  0  0  0  0  0  0  0  0  0
    5.4317    3.0128   -1.0134 H   0  0  0  0  0  0  0  0  0  0  0  0
    7.7783   -0.0711    0.8852 H   0  0  0  0  0  0  0  0  0  0  0  0
    6.0720   -1.7541    0.2550 H   0  0  0  0  0  0  0  0  0  0  0  0
    1.5780   -3.0243   -0.6199 H   0  0  0  0  0  0  0  0  0  0  0  0
    1.7037   -2.3734   -2.2610 H   0  0  0  0  0  0  0  0  0  0  0  0
   -0.0824   -0.7111   -1.7727 H   0  0  0  0  0  0  0  0  0  0  0  0
   -0.6546   -2.3731   -1.4920 H   0  0  0  0  0  0  0  0  0  0  0  0
  1  2  1  0
  2  3  1  0
  3  4  1  0
  4  5  2  0
  5  6  1  0
  6  7  1  0
  6  8  2  0
  8  9  1  0
  9 10  1  0
 10 11  1  0
 11 12  1  0
 12 13  1  0
 13 14  1  0
 14 15  2  0
 14 16  1  0
 16 17  2  0
 17 18  1  0
 18 19  2  0
 19 20  1  0
 19 21  1  0
 21 22  2  0
 13 23  1  0
 23 24  1  0
  9 25  2  0
 25  4  1  0
 24 10  1  0
 22 16  1  0
  1 26  1  0
  1 27  1  0
  1 28  1  0
  2 29  1  0
  2 30  1  0
  3 31  1  0
  7 32  1  0
  7 33  1  0
  7 34  1  0
  8 35  1  0
 11 36  1  0
 11 37  1  0
 12 38  1  0
 12 39  1  0
 17 40  1  0
 18 41  1  0
 21 42  1  0
 22 43  1  0
 23 44  1  0
 23 45  1  0
 24 46  1  0
 24 47  1  0
M  END
$$$$
