
     RDKit          3D

 44 45  0  0  0  0  0  0  0  0999 V2000
    5.1747    0.8388    0.7908 C   0  0  0  0  0  0  0  0  0  0  0  0
    4.7447    0.9306   -0.6751 C   0  0  0  0  0  0  0  0  0  0  0  0
    5.8711    1.5362   -1.5131 C   0  0  0  0  0  0  0  0  0  0  0  0
    4.3534   -0.4452   -1.2359 C   0  0  0  0  0  0  0  0  0  0  0  0
    3.1875   -1.0013   -0.5780 N   0  0  0  0  0  0  0  0  0  0  0  0
    1.9073   -0.6395   -0.9296 C   0  0  0  0  0  0  0  0  0  0  0  0
    1.6550    0.1306   -1.8512 O   0  0  0  0  0  0  0  0  0  0  0  0
    0.7856   -1.2122   -0.1371 C   0  0  0  0  0  0  0  0  0  0  0  0
   -0.5214   -1.0194   -0.6120 C   0  0  0  0  0  0  0  0  0  0  0  0
   -1.6077   -1.5081    0.1208 C   0  0  0  0  0  0  0  0  0  0  0  0
   -3.2551   -1.2517   -0.4980 S   0  0  0  0  0  6  0  0  0  0  0  0
   -3.2293   -1.6380   -1.8941 O   0  0  0  0  0  0  0  0  0  0  0  0
   -4.1702   -1.8875    0.4243 O   0  0  0  0  0  0  0  0  0  0  0  0
   -3.5159    0.5147   -0.4249 C   0  0  0  0  0  0  0  0  0  0  0  0
   -4.9275    0.8958   -0.8950 C   0  0  0  0  0  0  0  0  0  0  0  0
   -5.8871    0.6486    0.2653 C   0  0  0  0  0  0  0  0  0  0  0  0
   -4.9601    1.0846    1.7256 S   0  0  0  0  0  6  0  0  0  0  0  0
   -5.0142    0.0099    2.6905 O   0  0  0  0  0  0  0  0  0  0  0  0
   -5.2836    2.4513    2.0801 O   0  0  0  0  0  0  0  0  0  0  0  0
   -3.3449    1.0926    0.9725 C   0  0  0  0  0  0  0  0  0  0  0  0
   -1.4102   -2.2093    1.3133 C   0  0  0  0  0  0  0  0  0  0  0  0
   -0.1112   -2.4070    1.7812 C   0  0  0  0  0  0  0  0  0  0  0  0
    0.9746   -1.9086    1.0598 C   0  0  0  0  0  0  0  0  0  0  0  0
    2.2046   -2.1140    1.5551 F   0  0  0  0  0  0  0  0  0  0  0  0
    5.4665    1.8236    1.1712 H   0  0  0  0  0  0  0  0  0  0  0  0
    6.0281    0.1632    0.9129 H   0  0  0  0  0  0  0  0  0  0  0  0
    4.3581    0.4717    1.4209 H   0  0  0  0  0  0  0  0  0  0  0  0
    3.8795    1.6031   -0.7324 H   0  0  0  0  0  0  0  0  0  0  0  0
    6.1438    2.5289   -1.1395 H   0  0  0  0  0  0  0  0  0  0  0  0
    5.5621    1.6468   -2.5579 H   0  0  0  0  0  0  0  0  0  0  0  0
    6.7674    0.9069   -1.4891 H   0  0  0  0  0  0  0  0  0  0  0  0
    4.1378   -0.3679   -2.3079 H   0  0  0  0  0  0  0  0  0  0  0  0
    5.1695   -1.1654   -1.1097 H   0  0  0  0  0  0  0  0  0  0  0  0
    3.3369   -1.5825    0.2399 H   0  0  0  0  0  0  0  0  0  0  0  0
   -0.6811   -0.5020   -1.5576 H   0  0  0  0  0  0  0  0  0  0  0  0
   -2.7718    0.9437   -1.1058 H   0  0  0  0  0  0  0  0  0  0  0  0
   -5.2421    0.3481   -1.7888 H   0  0  0  0  0  0  0  0  0  0  0  0
   -4.9392    1.9646   -1.1439 H   0  0  0  0  0  0  0  0  0  0  0  0
   -6.7789    1.2762    0.2003 H   0  0  0  0  0  0  0  0  0  0  0  0
   -6.1872   -0.3984    0.3396 H   0  0  0  0  0  0  0  0  0  0  0  0
   -2.6489    0.5525    1.6154 H   0  0  0  0  0  0  0  0  0  0  0  0
   -3.0324    2.1402    0.9093 H   0  0  0  0  0  0  0  0  0  0  0  0
   -2.2518   -2.6060    1.8803 H   0  0  0  0  0  0  0  0  0  0  0  0
    0.0636   -2.9488    2.7072 H   0  0  0  0  0  0  0  0  0  0  0  0
  1  2  1  0
  2  3  1  0
  2  4  1  0
  4  5  1  0
  5  6  1  0
  6  7  2  0
  6  8  1  0
  8  9  2  0
  9 10  1  0
 10 11  1  0
 11 12  2  0
 11 13  2  0
 11 14  1  0
 14 15  1  0
 15 16  1  0
 16 17  1  0
 17 18  2  0
 17 19  2  0
 17 20  1  0
 10 21  2  0
 21 22  1  0
 22 23  2  0
 23 24  1  0
 23  8  1  0
 20 14  1  0
  1 25  1  0
  1 26  1  0
  1 27  1  0
  2 28  1  0
  3 29  1  0
  3 30  1  0
  3 31  1  0
  4 32  1  0
  4 33  1  0
  5 34  1  0
  9 35  1  0
 14 36  1  0
 15 37  1  0
 15 38  1  0
 16 39  1  0
 16 40  1  0
 20 41  1  0
 20 42  1  0
 21 43  1  0
 22 44  1  0
M  END
$$$$
