
     RDKit          3D

 55 57  0  0  0  0  0  0  0  0999 V2000
    6.8693   -0.2622    0.6829 C   0  0  0  0  0  0  0  0  0  0  0  0
    6.1137   -1.5521    0.9939 C   0  0  0  0  0  0  0  0  0  0  0  0
    4.6820   -1.5534    0.6845 N   0  0  0  0  0  0  0  0  0  0  0  0
    3.8871   -0.6785    1.5572 C   0  0  0  0  0  0  0  0  0  0  0  0
    2.4423   -0.4939    1.0557 C   0  0  0  0  0  0  0  0  0  0  0  0
    2.3923    0.0603   -0.2994 N   0  0  0  0  0  0  0  0  0  0  0  0
    1.3032    0.7183   -0.8553 C   0  0  0  0  0  0  0  0  0  0  0  0
    1.3884    1.2991   -1.9404 O   0  0  0  0  0  0  0  0  0  0  0  0
    0.0025    0.7325   -0.0484 C   0  0  0  0  0  0  0  0  0  0  0  0
   -1.1771    0.7244   -0.9430 N   0  0  0  0  0  0  0  0  0  0  0  0
   -2.2820    1.5769   -0.6119 C   0  0  0  0  0  0  0  0  0  0  0  0
   -2.8868    2.3205   -1.6247 C   0  0  0  0  0  0  0  0  0  0  0  0
   -4.0027    3.1124   -1.3463 C   0  0  0  0  0  0  0  0  0  0  0  0
   -4.5387    3.1528   -0.0540 C   0  0  0  0  0  0  0  0  0  0  0  0
   -5.7163    4.0309    0.2525 C   0  0  0  0  0  0  0  0  0  0  0  0
   -3.9283    2.4052    0.9601 C   0  0  0  0  0  0  0  0  0  0  0  0
   -2.8115    1.6134    0.6812 C   0  0  0  0  0  0  0  0  0  0  0  0
   -1.5347   -0.7530   -1.7180 S   0  0  0  0  0  6  0  0  0  0  0  0
   -2.4489   -0.5269   -2.8185 O   0  0  0  0  0  0  0  0  0  0  0  0
   -0.3039   -1.4923   -1.9143 O   0  0  0  0  0  0  0  0  0  0  0  0
   -2.4535   -1.6477   -0.4680 C   0  0  0  0  0  0  0  0  0  0  0  0
   -3.8464   -1.5098   -0.4058 C   0  0  0  0  0  0  0  0  0  0  0  0
   -4.5648   -2.2231    0.5539 C   0  0  0  0  0  0  0  0  0  0  0  0
   -3.8910   -3.0774    1.4214 C   0  0  0  0  0  0  0  0  0  0  0  0
   -4.5832   -3.7615    2.3416 F   0  0  0  0  0  0  0  0  0  0  0  0
   -2.5101   -3.2401    1.3452 C   0  0  0  0  0  0  0  0  0  0  0  0
   -1.7829   -2.5283    0.3903 C   0  0  0  0  0  0  0  0  0  0  0  0
    3.6032   -0.1041   -1.1073 C   0  0  0  0  0  0  0  0  0  0  0  0
    4.3707   -1.3909   -0.7484 C   0  0  0  0  0  0  0  0  0  0  0  0
    7.9316   -0.3922    0.9166 H   0  0  0  0  0  0  0  0  0  0  0  0
    6.7971    0.0082   -0.3749 H   0  0  0  0  0  0  0  0  0  0  0  0
    6.5055    0.5791    1.2795 H   0  0  0  0  0  0  0  0  0  0  0  0
    6.2505   -1.7937    2.0556 H   0  0  0  0  0  0  0  0  0  0  0  0
    6.5901   -2.3759    0.4474 H   0  0  0  0  0  0  0  0  0  0  0  0
    4.3407    0.3166    1.6342 H   0  0  0  0  0  0  0  0  0  0  0  0
    3.8607   -1.1035    2.5670 H   0  0  0  0  0  0  0  0  0  0  0  0
    1.9013    0.1713    1.7369 H   0  0  0  0  0  0  0  0  0  0  0  0
    1.9183   -1.4569    1.0351 H   0  0  0  0  0  0  0  0  0  0  0  0
    0.0296    1.6477    0.5550 H   0  0  0  0  0  0  0  0  0  0  0  0
   -0.0629   -0.1144    0.6384 H   0  0  0  0  0  0  0  0  0  0  0  0
   -2.4897    2.2878   -2.6374 H   0  0  0  0  0  0  0  0  0  0  0  0
   -4.4518    3.6931   -2.1492 H   0  0  0  0  0  0  0  0  0  0  0  0
   -6.3340    3.5926    1.0437 H   0  0  0  0  0  0  0  0  0  0  0  0
   -5.3711    5.0177    0.5772 H   0  0  0  0  0  0  0  0  0  0  0  0
   -6.3554    4.1517   -0.6287 H   0  0  0  0  0  0  0  0  0  0  0  0
   -4.3244    2.4303    1.9731 H   0  0  0  0  0  0  0  0  0  0  0  0
   -2.3751    1.0238    1.4813 H   0  0  0  0  0  0  0  0  0  0  0  0
   -4.3713   -0.8499   -1.0946 H   0  0  0  0  0  0  0  0  0  0  0  0
   -5.6437   -2.1254    0.6239 H   0  0  0  0  0  0  0  0  0  0  0  0
   -2.0141   -3.9301    2.0212 H   0  0  0  0  0  0  0  0  0  0  0  0
   -0.7078   -2.6740    0.3136 H   0  0  0  0  0  0  0  0  0  0  0  0
    3.3453   -0.1166   -2.1720 H   0  0  0  0  0  0  0  0  0  0  0  0
    4.2324    0.7762   -0.9296 H   0  0  0  0  0  0  0  0  0  0  0  0
    5.2664   -1.4705   -1.3755 H   0  0  0  0  0  0  0  0  0  0  0  0
    3.7398   -2.2448   -1.0277 H   0  0  0  0  0  0  0  0  0  0  0  0
  1  2  1  0
  2  3  1  0
  3  4  1  0
  4  5  1  0
  5  6  1  0
  6  7  1  0
  7  8  2  0
  7  9  1  0
  9 10  1  0
 10 11  1  0
 11 12  2  0
 12 13  1  0
 13 14  2  0
 14 15  1  0
 14 16  1  0
 16 17  2  0
 10 18  1  0
 18 19  2  0
 18 20  2  0
 18 21  1  0
 21 22  2  0
 22 23  1  0
 23 24  2  0
 24 25  1  0
 24 26  1  0
 26 27  2  0
  6 28  1  0
 28 29  1  0
 29  3  1  0
 17 11  1  0
 27 21  1  0
  1 30  1  0
  1 31  1  0
  1 32  1  0
  2 33  1  0
  2 34  1  0
  4 35  1  0
  4 36  1  0
  5 37  1  0
  5 38  1  0
  9 39  1  0
  9 40  1  0
 12 41  1  0
 13 42  1  0
 15 43  1  0
 15 44  1  0
 15 45  1  0
 16 46  1  0
 17 47  1  0
 22 48  1  0
 23 49  1  0
 26 50  1  0
 27 51  1  0
 28 52  1  0
 28 53  1  0
 29 54  1  0
 29 55  1  0
M  END
$$$$
