
     RDKit          3D

 45 48  0  0  0  0  0  0  0  0999 V2000
   -6.4081    0.3604    0.9576 C   0  0  0  0  0  0  0  0  0  0  0  0
   -5.8216    0.0249   -0.4066 C   0  0  0  0  0  0  0  0  0  0  0  0
   -4.3844    0.2719   -0.4517 N   0  0  0  0  0  0  0  0  0  0  0  0
   -3.5452   -0.7786   -0.0589 C   0  0  0  0  0  0  0  0  0  0  0  0
   -3.9389   -1.8806    0.3099 O   0  0  0  0  0  0  0  0  0  0  0  0
   -2.1777   -0.4337   -0.1223 C   0  0  0  0  0  0  0  0  0  0  0  0
   -1.7158    0.7979   -0.4987 C   0  0  0  0  0  0  0  0  0  0  0  0
   -0.3453    0.8867   -0.4779 N   0  0  0  0  0  0  0  0  0  0  0  0
    0.0191   -0.3118   -0.0851 C   0  0  0  0  0  0  0  0  0  0  0  0
    1.1458   -1.0419    0.1960 N   0  0  0  0  0  0  0  0  0  0  0  0
    2.4669   -0.5423    0.0753 C   0  0  0  0  0  0  0  0  0  0  0  0
    2.7864    0.4202   -0.9003 C   0  0  0  0  0  0  0  0  0  0  0  0
    4.0849    0.9256   -1.0384 C   0  0  0  0  0  0  0  0  0  0  0  0
    5.1006    0.4949   -0.1840 C   0  0  0  0  0  0  0  0  0  0  0  0
    6.4648    1.0581   -0.3622 C   0  0  0  0  0  0  0  0  0  0  0  0
    7.3030    1.0332    0.7186 N   0  0  0  0  0  0  0  0  0  0  0  0
    6.8227    1.5589   -1.4204 O   0  0  0  0  0  0  0  0  0  0  0  0
    4.8083   -0.4563    0.7961 C   0  0  0  0  0  0  0  0  0  0  0  0
    3.5052   -0.9602    0.9226 C   0  0  0  0  0  0  0  0  0  0  0  0
    0.7109   -2.3488    0.5857 C   0  0  0  0  0  0  0  0  0  0  0  0
    1.5879   -3.5180    0.8620 C   0  0  0  0  0  0  0  0  0  0  0  0
   -0.6438   -2.3848    0.5503 C   0  0  0  0  0  0  0  0  0  0  0  0
   -1.0567   -1.1369    0.1459 N   0  0  0  0  0  0  0  0  0  0  0  0
   -2.5837    1.8075   -0.8433 N   0  0  0  0  0  0  0  0  0  0  0  0
   -2.0693    3.1159   -1.2086 C   0  0  0  0  0  0  0  0  0  0  0  0
   -3.9616    1.5731   -0.8047 C   0  0  0  0  0  0  0  0  0  0  0  0
   -4.7770    2.4628   -1.0627 O   0  0  0  0  0  0  0  0  0  0  0  0
   -7.4849    0.1655    0.9663 H   0  0  0  0  0  0  0  0  0  0  0  0
   -5.9449   -0.2427    1.7452 H   0  0  0  0  0  0  0  0  0  0  0  0
   -6.2492    1.4143    1.2078 H   0  0  0  0  0  0  0  0  0  0  0  0
   -6.0208   -1.0276   -0.6384 H   0  0  0  0  0  0  0  0  0  0  0  0
   -6.3237    0.6205   -1.1773 H   0  0  0  0  0  0  0  0  0  0  0  0
    2.0219    0.7812   -1.5861 H   0  0  0  0  0  0  0  0  0  0  0  0
    4.2943    1.6595   -1.8144 H   0  0  0  0  0  0  0  0  0  0  0  0
    6.9530    0.9215    1.6590 H   0  0  0  0  0  0  0  0  0  0  0  0
    8.1687    1.5463    0.6075 H   0  0  0  0  0  0  0  0  0  0  0  0
    5.5795   -0.8319    1.4620 H   0  0  0  0  0  0  0  0  0  0  0  0
    3.3132   -1.6635    1.7258 H   0  0  0  0  0  0  0  0  0  0  0  0
    2.0317   -3.4483    1.8588 H   0  0  0  0  0  0  0  0  0  0  0  0
    2.3837   -3.5997    0.1153 H   0  0  0  0  0  0  0  0  0  0  0  0
    1.0175   -4.4530    0.8272 H   0  0  0  0  0  0  0  0  0  0  0  0
   -1.3308   -3.1909    0.7479 H   0  0  0  0  0  0  0  0  0  0  0  0
   -1.3629    3.0062   -2.0375 H   0  0  0  0  0  0  0  0  0  0  0  0
   -2.8670    3.7956   -1.5193 H   0  0  0  0  0  0  0  0  0  0  0  0
   -1.5564    3.5490   -0.3440 H   0  0  0  0  0  0  0  0  0  0  0  0
  1  2  1  0
  2  3  1  0
  3  4  1  0
  4  5  2  0
  4  6  1  0
  6  7  2  0
  7  8  1  0
  8  9  2  0
  9 10  1  0
 10 11  1  0
 11 12  2  0
 12 13  1  0
 13 14  2  0
 14 15  1  0
 15 16  1  0
 15 17  2  0
 14 18  1  0
 18 19  2  0
 10 20  1  0
 20 21  1  0
 20 22  2  0
 22 23  1  0
  7 24  1  0
 24 25  1  0
 24 26  1  0
 26 27  2  0
 26  3  1  0
 23  6  1  0
 23  9  1  0
 19 11  1  0
  1 28  1  0
  1 29  1  0
  1 30  1  0
  2 31  1  0
  2 32  1  0
 12 33  1  0
 13 34  1  0
 16 35  1  0
 16 36  1  0
 18 37  1  0
 19 38  1  0
 21 39  1  0
 21 40  1  0
 21 41  1  0
 22 42  1  0
 25 43  1  0
 25 44  1  0
 25 45  1  0
M  END
$$$$
