
     RDKit          3D

 37 39  0  0  0  0  0  0  0  0999 V2000
   -2.6002    1.6748    1.7021 C   0  0  0  0  0  0  0  0  0  0  0  0
   -3.4014    0.6740    0.9131 C   0  0  0  0  0  0  0  0  0  0  0  0
   -4.7880    0.6106    1.1407 C   0  0  0  0  0  0  0  0  0  0  0  0
   -5.5771   -0.2941    0.4434 C   0  0  0  0  0  0  0  0  0  0  0  0
   -6.9139   -0.3090    0.7065 O   0  0  0  0  0  0  0  0  0  0  0  0
   -5.0117   -1.1513   -0.4870 C   0  0  0  0  0  0  0  0  0  0  0  0
   -3.6344   -1.0990   -0.7233 C   0  0  0  0  0  0  0  0  0  0  0  0
   -2.8147   -0.1923   -0.0379 C   0  0  0  0  0  0  0  0  0  0  0  0
   -1.4164   -0.1208   -0.2536 N   0  0  0  0  0  0  0  0  0  0  0  0
   -0.6663   -0.8229   -1.1795 C   0  0  0  0  0  0  0  0  0  0  0  0
   -1.0784   -1.5918   -2.0388 O   0  0  0  0  0  0  0  0  0  0  0  0
    0.8036   -0.5682   -1.1271 C   0  0  0  0  0  0  0  0  0  0  0  0
    1.5334   -0.6219   -2.3425 C   0  0  0  0  0  0  0  0  0  0  0  0
    2.9168   -0.4065   -2.3687 C   0  0  0  0  0  0  0  0  0  0  0  0
    3.5351   -0.1485   -1.1624 C   0  0  0  0  0  0  0  0  0  0  0  0
    2.8284   -0.1080    0.0265 C   0  0  0  0  0  0  0  0  0  0  0  0
    1.4630   -0.3194    0.0858 C   0  0  0  0  0  0  0  0  0  0  0  0
    3.7819    0.1741    1.0976 C   0  0  0  0  0  0  0  0  0  0  0  0
    3.4690    0.2748    2.2679 O   0  0  0  0  0  0  0  0  0  0  0  0
    5.0070    0.2934    0.5045 N   0  0  0  0  0  0  0  0  0  0  0  0
    6.2358    0.5589    1.2109 C   0  0  0  0  0  0  0  0  0  0  0  0
    4.9408    0.1066   -0.8493 C   0  0  0  0  0  0  0  0  0  0  0  0
    5.8322    0.1339   -1.6752 O   0  0  0  0  0  0  0  0  0  0  0  0
   -3.2319    2.2503    2.3873 H   0  0  0  0  0  0  0  0  0  0  0  0
   -1.8436    1.1641    2.3065 H   0  0  0  0  0  0  0  0  0  0  0  0
   -2.1143    2.3881    1.0285 H   0  0  0  0  0  0  0  0  0  0  0  0
   -5.2624    1.2680    1.8656 H   0  0  0  0  0  0  0  0  0  0  0  0
   -7.3310   -0.9841    0.1460 H   0  0  0  0  0  0  0  0  0  0  0  0
   -5.6138   -1.8664   -1.0384 H   0  0  0  0  0  0  0  0  0  0  0  0
   -3.2302   -1.7919   -1.4545 H   0  0  0  0  0  0  0  0  0  0  0  0
   -0.9294    0.5717    0.2960 H   0  0  0  0  0  0  0  0  0  0  0  0
    1.0097   -0.8374   -3.2746 H   0  0  0  0  0  0  0  0  0  0  0  0
    3.4811   -0.4466   -3.2953 H   0  0  0  0  0  0  0  0  0  0  0  0
    0.9546   -0.3192    1.0441 H   0  0  0  0  0  0  0  0  0  0  0  0
    6.0372    0.8310    2.2506 H   0  0  0  0  0  0  0  0  0  0  0  0
    6.8559   -0.3421    1.1782 H   0  0  0  0  0  0  0  0  0  0  0  0
    6.7736    1.3670    0.7064 H   0  0  0  0  0  0  0  0  0  0  0  0
  1  2  1  0
  2  3  2  0
  3  4  1  0
  4  5  1  0
  4  6  2  0
  6  7  1  0
  7  8  2  0
  8  9  1  0
  9 10  1  0
 10 11  2  0
 10 12  1  0
 12 13  2  0
 13 14  1  0
 14 15  2  0
 15 16  1  0
 16 17  2  0
 16 18  1  0
 18 19  2  0
 18 20  1  0
 20 21  1  0
 20 22  1  0
 22 23  2  0
  8  2  1  0
 17 12  1  0
 22 15  1  0
  1 24  1  0
  1 25  1  0
  1 26  1  0
  3 27  1  0
  5 28  1  0
  6 29  1  0
  7 30  1  0
  9 31  1  0
 13 32  1  0
 14 33  1  0
 17 34  1  0
 21 35  1  0
 21 36  1  0
 21 37  1  0
M  END
$$$$
