
     RDKit          3D

 54 57  0  0  0  0  0  0  0  0999 V2000
    7.9951    0.7125   -0.2815 C   0  0  0  0  0  0  0  0  0  0  0  0
    6.5143    0.4837   -0.3447 C   0  0  0  0  0  0  0  0  0  0  0  0
    5.7169    1.2324   -1.2173 C   0  0  0  0  0  0  0  0  0  0  0  0
    4.3318    1.0432   -1.2515 C   0  0  0  0  0  0  0  0  0  0  0  0
    3.7203    0.1091   -0.4069 C   0  0  0  0  0  0  0  0  0  0  0  0
    2.2827   -0.0981   -0.4617 C   0  0  0  0  0  0  0  0  0  0  0  0
    1.4303   -0.3235   -1.5680 C   0  0  0  0  0  0  0  0  0  0  0  0
    1.7958   -0.4414   -3.0026 C   0  0  0  0  0  0  0  0  0  0  0  0
    0.1515   -0.4425   -1.2057 N   0  0  0  0  0  0  0  0  0  0  0  0
    0.1446   -0.3197    0.1569 N   0  0  0  0  0  0  0  0  0  0  0  0
   -0.9740   -0.3614    1.0518 C   0  0  0  0  0  0  0  0  0  0  0  0
   -2.2987   -0.5969    0.5921 N   0  0  0  0  0  0  0  0  0  0  0  0
   -2.5607   -1.2463   -0.7181 C   0  0  0  0  0  0  0  0  0  0  0  0
   -3.9811   -1.8623   -0.7777 C   0  0  0  0  0  0  0  0  0  0  0  0
   -5.0949   -0.9491   -0.4222 N   0  0  0  0  0  0  0  0  0  0  0  0
   -5.3056    0.0556   -1.4873 C   0  0  0  0  0  0  0  0  0  0  0  0
   -6.5041    0.9910   -1.2508 C   0  0  0  0  0  0  0  0  0  0  0  0
   -6.1360    2.0916   -0.4210 O   0  0  0  0  0  0  0  0  0  0  0  0
   -4.7707   -0.3471    0.8904 C   0  0  0  0  0  0  0  0  0  0  0  0
   -3.3896    0.3384    0.9775 C   0  0  0  0  0  0  0  0  0  0  0  0
   -0.7183   -0.1820    2.3635 C   0  0  0  0  0  0  0  0  0  0  0  0
    0.6942    0.0388    2.7789 C   0  0  0  0  0  0  0  0  0  0  0  0
    0.9589    0.2314    4.2516 C   0  0  0  0  0  0  0  0  0  0  0  0
    1.7115    0.0726    1.9736 N   0  0  0  0  0  0  0  0  0  0  0  0
    1.4476   -0.1022    0.6415 C   0  0  0  0  0  0  0  0  0  0  0  0
    4.5171   -0.6252    0.4787 C   0  0  0  0  0  0  0  0  0  0  0  0
    5.9019   -0.4364    0.5132 C   0  0  0  0  0  0  0  0  0  0  0  0
    8.2220    1.4946    0.4494 H   0  0  0  0  0  0  0  0  0  0  0  0
    8.3853    1.0165   -1.2584 H   0  0  0  0  0  0  0  0  0  0  0  0
    8.5200   -0.2045    0.0063 H   0  0  0  0  0  0  0  0  0  0  0  0
    6.1675    1.9730   -1.8740 H   0  0  0  0  0  0  0  0  0  0  0  0
    3.7358    1.6473   -1.9309 H   0  0  0  0  0  0  0  0  0  0  0  0
    2.7307   -0.9977   -3.1239 H   0  0  0  0  0  0  0  0  0  0  0  0
    1.9212    0.5516   -3.4455 H   0  0  0  0  0  0  0  0  0  0  0  0
    1.0213   -0.9701   -3.5684 H   0  0  0  0  0  0  0  0  0  0  0  0
   -1.8504   -2.0661   -0.8777 H   0  0  0  0  0  0  0  0  0  0  0  0
   -2.4402   -0.5166   -1.5266 H   0  0  0  0  0  0  0  0  0  0  0  0
   -4.1514   -2.2912   -1.7730 H   0  0  0  0  0  0  0  0  0  0  0  0
   -4.0166   -2.7130   -0.0837 H   0  0  0  0  0  0  0  0  0  0  0  0
   -4.4075    0.6584   -1.6608 H   0  0  0  0  0  0  0  0  0  0  0  0
   -5.5161   -0.4937   -2.4137 H   0  0  0  0  0  0  0  0  0  0  0  0
   -6.8386    1.4020   -2.2091 H   0  0  0  0  0  0  0  0  0  0  0  0
   -7.3443    0.4582   -0.7931 H   0  0  0  0  0  0  0  0  0  0  0  0
   -6.9401    2.6245   -0.2958 H   0  0  0  0  0  0  0  0  0  0  0  0
   -5.5550    0.3459    1.2099 H   0  0  0  0  0  0  0  0  0  0  0  0
   -4.7972   -1.1538    1.6363 H   0  0  0  0  0  0  0  0  0  0  0  0
   -3.3507    1.2231    0.3312 H   0  0  0  0  0  0  0  0  0  0  0  0
   -3.2571    0.6906    2.0064 H   0  0  0  0  0  0  0  0  0  0  0  0
   -1.4838   -0.2251    3.1241 H   0  0  0  0  0  0  0  0  0  0  0  0
    1.6148   -0.5688    4.6066 H   0  0  0  0  0  0  0  0  0  0  0  0
    0.0341    0.2149    4.8338 H   0  0  0  0  0  0  0  0  0  0  0  0
    1.4554    1.1939    4.4058 H   0  0  0  0  0  0  0  0  0  0  0  0
    4.0636   -1.3474    1.1542 H   0  0  0  0  0  0  0  0  0  0  0  0
    6.4964   -1.0128    1.2182 H   0  0  0  0  0  0  0  0  0  0  0  0
  1  2  1  0
  2  3  2  0
  3  4  1  0
  4  5  2  0
  5  6  1  0
  6  7  1  0
  7  8  1  0
  7  9  2  0
  9 10  1  0
 10 11  1  0
 11 12  1  0
 12 13  1  0
 13 14  1  0
 14 15  1  0
 15 16  1  0
 16 17  1  0
 17 18  1  0
 15 19  1  0
 19 20  1  0
 11 21  2  0
 21 22  1  0
 22 23  1  0
 22 24  2  0
 24 25  1  0
  5 26  1  0
 26 27  2  0
 27  2  1  0
 25  6  2  0
 25 10  1  0
 20 12  1  0
  1 28  1  0
  1 29  1  0
  1 30  1  0
  3 31  1  0
  4 32  1  0
  8 33  1  0
  8 34  1  0
  8 35  1  0
 13 36  1  0
 13 37  1  0
 14 38  1  0
 14 39  1  0
 16 40  1  0
 16 41  1  0
 17 42  1  0
 17 43  1  0
 18 44  1  0
 19 45  1  0
 19 46  1  0
 20 47  1  0
 20 48  1  0
 21 49  1  0
 23 50  1  0
 23 51  1  0
 23 52  1  0
 26 53  1  0
 27 54  1  0
M  END
$$$$
