
     RDKit          3D

 35 37  0  0  0  0  0  0  0  0999 V2000
    6.8807    0.2575   -0.0813 C   0  0  0  0  0  0  0  0  0  0  0  0
    5.3839    0.1936   -0.0122 C   0  0  0  0  0  0  0  0  0  0  0  0
    4.7347   -1.0226    0.2182 C   0  0  0  0  0  0  0  0  0  0  0  0
    3.3371   -1.0871    0.2515 C   0  0  0  0  0  0  0  0  0  0  0  0
    2.5560    0.0592    0.0451 C   0  0  0  0  0  0  0  0  0  0  0  0
    1.0997   -0.0214    0.0822 C   0  0  0  0  0  0  0  0  0  0  0  0
    0.1860   -1.0265    0.2881 C   0  0  0  0  0  0  0  0  0  0  0  0
   -1.0920   -0.4073    0.1852 C   0  0  0  0  0  0  0  0  0  0  0  0
   -2.3833   -1.0954    0.3514 C   0  0  0  0  0  0  0  0  0  0  0  0
   -2.4018   -2.2728    0.7203 O   0  0  0  0  0  0  0  0  0  0  0  0
   -3.5735   -0.4266    0.0950 N   0  0  0  0  0  0  0  0  0  0  0  0
   -4.8488   -1.0818    0.3233 C   0  0  0  0  0  0  0  0  0  0  0  0
   -5.8743    0.0368    0.2278 C   0  0  0  0  0  0  0  0  0  0  0  0
   -5.2479    0.9776   -0.7913 C   0  0  0  0  0  0  0  0  0  0  0  0
   -3.7624    0.9088   -0.4559 C   0  0  0  0  0  0  0  0  0  0  0  0
   -0.9440    0.9052   -0.0562 N   0  0  0  0  0  0  0  0  0  0  0  0
    0.4141    1.1380   -0.1261 O   0  0  0  0  0  0  0  0  0  0  0  0
    3.2163    1.2721   -0.2001 C   0  0  0  0  0  0  0  0  0  0  0  0
    4.6136    1.3385   -0.2338 C   0  0  0  0  0  0  0  0  0  0  0  0
    7.2159    0.0785   -1.1076 H   0  0  0  0  0  0  0  0  0  0  0  0
    7.3344   -0.4922    0.5754 H   0  0  0  0  0  0  0  0  0  0  0  0
    7.2453    1.2373    0.2446 H   0  0  0  0  0  0  0  0  0  0  0  0
    5.3118   -1.9315    0.3752 H   0  0  0  0  0  0  0  0  0  0  0  0
    2.8713   -2.0515    0.4398 H   0  0  0  0  0  0  0  0  0  0  0  0
    0.3834   -2.0692    0.4878 H   0  0  0  0  0  0  0  0  0  0  0  0
   -4.8646   -1.5890    1.2928 H   0  0  0  0  0  0  0  0  0  0  0  0
   -4.9926   -1.8244   -0.4697 H   0  0  0  0  0  0  0  0  0  0  0  0
   -6.8635   -0.3213   -0.0698 H   0  0  0  0  0  0  0  0  0  0  0  0
   -5.9675    0.5463    1.1944 H   0  0  0  0  0  0  0  0  0  0  0  0
   -5.4214    0.5941   -1.8040 H   0  0  0  0  0  0  0  0  0  0  0  0
   -5.6449    1.9950   -0.7381 H   0  0  0  0  0  0  0  0  0  0  0  0
   -3.1442    1.0628   -1.3443 H   0  0  0  0  0  0  0  0  0  0  0  0
   -3.5023    1.6388    0.3177 H   0  0  0  0  0  0  0  0  0  0  0  0
    2.6514    2.1863   -0.3715 H   0  0  0  0  0  0  0  0  0  0  0  0
    5.0937    2.2941   -0.4336 H   0  0  0  0  0  0  0  0  0  0  0  0
  1  2  1  0
  2  3  2  0
  3  4  1  0
  4  5  2  0
  5  6  1  0
  6  7  2  0
  7  8  1  0
  8  9  1  0
  9 10  2  0
  9 11  1  0
 11 12  1  0
 12 13  1  0
 13 14  1  0
 14 15  1  0
  8 16  2  0
 16 17  1  0
  5 18  1  0
 18 19  2  0
 19  2  1  0
 17  6  1  0
 15 11  1  0
  1 20  1  0
  1 21  1  0
  1 22  1  0
  3 23  1  0
  4 24  1  0
  7 25  1  0
 12 26  1  0
 12 27  1  0
 13 28  1  0
 13 29  1  0
 14 30  1  0
 14 31  1  0
 15 32  1  0
 15 33  1  0
 18 34  1  0
 19 35  1  0
M  END
$$$$
