
     RDKit          3D

 57 59  0  0  0  0  0  0  0  0999 V2000
   -4.4436   -3.6868    1.4016 C   0  0  0  0  0  0  0  0  0  0  0  0
   -4.1284   -2.3296    1.1165 O   0  0  0  0  0  0  0  0  0  0  0  0
   -3.0419   -2.0881    0.3200 C   0  0  0  0  0  0  0  0  0  0  0  0
   -2.3620   -3.0659   -0.4151 C   0  0  0  0  0  0  0  0  0  0  0  0
   -1.2576   -2.7213   -1.2040 C   0  0  0  0  0  0  0  0  0  0  0  0
   -0.8244   -1.3934   -1.2556 C   0  0  0  0  0  0  0  0  0  0  0  0
    0.5736   -0.9629   -2.2618 S   0  0  0  0  0  6  0  0  0  0  0  0
    0.6831   -1.9561   -3.3068 O   0  0  0  0  0  0  0  0  0  0  0  0
    0.4934    0.4498   -2.5565 O   0  0  0  0  0  0  0  0  0  0  0  0
    1.8605   -1.2153   -1.2245 N   0  0  0  0  0  0  0  0  0  0  0  0
    1.9702   -0.4568    0.0211 C   0  0  0  0  0  0  0  0  0  0  0  0
    3.4322   -0.3631    0.4532 C   0  0  0  0  0  0  0  0  0  0  0  0
    4.2585    0.5205   -0.4904 C   0  0  0  0  0  0  0  0  0  0  0  0
    5.6697    0.5712   -0.0921 N   0  0  0  0  0  0  0  0  0  0  0  0
    5.9065    1.3109    1.1500 C   0  0  0  0  0  0  0  0  0  0  0  0
    7.4012    1.5999    1.1134 C   0  0  0  0  0  0  0  0  0  0  0  0
    7.7936    1.5041   -0.3560 C   0  0  0  0  0  0  0  0  0  0  0  0
    6.4886    1.2593   -1.0947 C   0  0  0  0  0  0  0  0  0  0  0  0
   -1.5032   -0.3988   -0.5545 C   0  0  0  0  0  0  0  0  0  0  0  0
   -2.6094   -0.7542    0.2245 C   0  0  0  0  0  0  0  0  0  0  0  0
   -3.2518    0.3190    1.0055 C   0  0  0  0  0  0  0  0  0  0  0  0
   -2.6688    0.7036    2.0165 O   0  0  0  0  0  0  0  0  0  0  0  0
   -4.4270    0.8767    0.5254 N   0  0  0  0  0  0  0  0  0  0  0  0
   -5.0418    1.9821    1.2605 C   0  0  0  0  0  0  0  0  0  0  0  0
   -5.7736    2.9327    0.3088 C   0  0  0  0  0  0  0  0  0  0  0  0
   -6.7926    2.2977   -0.4787 O   0  0  0  0  0  0  0  0  0  0  0  0
   -6.5818    0.8945   -0.6848 C   0  0  0  0  0  0  0  0  0  0  0  0
   -5.1031    0.4961   -0.7193 C   0  0  0  0  0  0  0  0  0  0  0  0
   -4.7982   -4.2021    0.5032 H   0  0  0  0  0  0  0  0  0  0  0  0
   -3.5905   -4.2089    1.8473 H   0  0  0  0  0  0  0  0  0  0  0  0
   -5.2580   -3.6941    2.1323 H   0  0  0  0  0  0  0  0  0  0  0  0
   -2.6682   -4.1077   -0.4007 H   0  0  0  0  0  0  0  0  0  0  0  0
   -0.7431   -3.4938   -1.7734 H   0  0  0  0  0  0  0  0  0  0  0  0
    2.2876   -2.1384   -1.2858 H   0  0  0  0  0  0  0  0  0  0  0  0
    1.5508    0.5486   -0.0874 H   0  0  0  0  0  0  0  0  0  0  0  0
    1.4052   -0.9826    0.7984 H   0  0  0  0  0  0  0  0  0  0  0  0
    3.4570    0.0511    1.4679 H   0  0  0  0  0  0  0  0  0  0  0  0
    3.8716   -1.3676    0.5027 H   0  0  0  0  0  0  0  0  0  0  0  0
    3.8254    1.5281   -0.5388 H   0  0  0  0  0  0  0  0  0  0  0  0
    4.1986    0.0984   -1.5014 H   0  0  0  0  0  0  0  0  0  0  0  0
    5.6416    0.7302    2.0390 H   0  0  0  0  0  0  0  0  0  0  0  0
    5.3492    2.2560    1.1710 H   0  0  0  0  0  0  0  0  0  0  0  0
    7.6240    2.5893    1.5261 H   0  0  0  0  0  0  0  0  0  0  0  0
    7.9594    0.8588    1.6971 H   0  0  0  0  0  0  0  0  0  0  0  0
    8.4833    0.6642   -0.5011 H   0  0  0  0  0  0  0  0  0  0  0  0
    8.2936    2.4131   -0.7052 H   0  0  0  0  0  0  0  0  0  0  0  0
    6.0433    2.2172   -1.3931 H   0  0  0  0  0  0  0  0  0  0  0  0
    6.6428    0.6504   -1.9910 H   0  0  0  0  0  0  0  0  0  0  0  0
   -1.1783    0.6388   -0.5952 H   0  0  0  0  0  0  0  0  0  0  0  0
   -4.2879    2.5261    1.8383 H   0  0  0  0  0  0  0  0  0  0  0  0
   -5.7519    1.5316    1.9640 H   0  0  0  0  0  0  0  0  0  0  0  0
   -5.0618    3.3914   -0.3877 H   0  0  0  0  0  0  0  0  0  0  0  0
   -6.2488    3.7423    0.8714 H   0  0  0  0  0  0  0  0  0  0  0  0
   -7.1016    0.3592    0.1186 H   0  0  0  0  0  0  0  0  0  0  0  0
   -7.0688    0.6231   -1.6268 H   0  0  0  0  0  0  0  0  0  0  0  0
   -5.0083   -0.5766   -0.9003 H   0  0  0  0  0  0  0  0  0  0  0  0
   -4.5881    1.0281   -1.5277 H   0  0  0  0  0  0  0  0  0  0  0  0
  1  2  1  0
  2  3  1  0
  3  4  2  0
  4  5  1  0
  5  6  2  0
  6  7  1  0
  7  8  2  0
  7  9  2  0
  7 10  1  0
 10 11  1  0
 11 12  1  0
 12 13  1  0
 13 14  1  0
 14 15  1  0
 15 16  1  0
 16 17  1  0
 17 18  1  0
  6 19  1  0
 19 20  2  0
 20 21  1  0
 21 22  2  0
 21 23  1  0
 23 24  1  0
 24 25  1  0
 25 26  1  0
 26 27  1  0
 27 28  1  0
 20  3  1  0
 28 23  1  0
 18 14  1  0
  1 29  1  0
  1 30  1  0
  1 31  1  0
  4 32  1  0
  5 33  1  0
 10 34  1  0
 11 35  1  0
 11 36  1  0
 12 37  1  0
 12 38  1  0
 13 39  1  0
 13 40  1  0
 15 41  1  0
 15 42  1  0
 16 43  1  0
 16 44  1  0
 17 45  1  0
 17 46  1  0
 18 47  1  0
 18 48  1  0
 19 49  1  0
 24 50  1  0
 24 51  1  0
 25 52  1  0
 25 53  1  0
 27 54  1  0
 27 55  1  0
 28 56  1  0
 28 57  1  0
M  END
$$$$
