
     RDKit          3D

 48 49  0  0  0  0  0  0  0  0999 V2000
    2.9552   -2.7143   -0.7133 C   0  0  0  0  0  0  0  0  0  0  0  0
    4.2420   -2.1257   -0.5785 O   0  0  0  0  0  0  0  0  0  0  0  0
    4.2008   -0.7076   -0.4213 C   0  0  0  0  0  0  0  0  0  0  0  0
    3.8782   -0.2953    1.0179 C   0  0  0  0  0  0  0  0  0  0  0  0
    3.9415    1.1662    1.1455 N   0  0  0  0  0  0  0  0  0  0  0  0
    2.9946    1.9137    2.3127 S   0  0  0  0  0  6  0  0  0  0  0  0
    2.8305    0.9997    3.4189 O   0  0  0  0  0  0  0  0  0  0  0  0
    3.5380    3.2418    2.4846 O   0  0  0  0  0  0  0  0  0  0  0  0
    1.4483    2.0698    1.4569 C   0  0  0  0  0  0  0  0  0  0  0  0
    1.2613    3.1256    0.5617 C   0  0  0  0  0  0  0  0  0  0  0  0
    0.0430    3.2541   -0.1122 C   0  0  0  0  0  0  0  0  0  0  0  0
   -0.9981    2.3375    0.1021 C   0  0  0  0  0  0  0  0  0  0  0  0
   -2.5101    2.5950   -0.8186 S   0  0  0  0  0  0  0  0  0  0  0  0
   -3.5923    3.1385    0.5322 C   0  0  0  0  0  0  0  0  0  0  0  0
   -0.7816    1.2740    0.9960 C   0  0  0  0  0  0  0  0  0  0  0  0
   -1.8076    0.2511    1.2700 C   0  0  0  0  0  0  0  0  0  0  0  0
   -2.3837    0.3213    2.3528 O   0  0  0  0  0  0  0  0  0  0  0  0
   -2.0449   -0.7383    0.3153 N   0  0  0  0  0  0  0  0  0  0  0  0
   -2.9957   -1.7918    0.6627 C   0  0  0  0  0  0  0  0  0  0  0  0
   -3.7514   -2.3037   -0.5595 C   0  0  0  0  0  0  0  0  0  0  0  0
   -2.7947   -2.7049   -1.6774 C   0  0  0  0  0  0  0  0  0  0  0  0
   -1.8624   -1.5474   -2.0196 C   0  0  0  0  0  0  0  0  0  0  0  0
   -1.1254   -1.0437   -0.7830 C   0  0  0  0  0  0  0  0  0  0  0  0
    0.4269    1.1504    1.6950 C   0  0  0  0  0  0  0  0  0  0  0  0
    2.4252   -2.2897   -1.5715 H   0  0  0  0  0  0  0  0  0  0  0  0
    2.3653   -2.5806    0.1973 H   0  0  0  0  0  0  0  0  0  0  0  0
    3.0862   -3.7865   -0.8830 H   0  0  0  0  0  0  0  0  0  0  0  0
    5.1949   -0.3307   -0.6879 H   0  0  0  0  0  0  0  0  0  0  0  0
    3.4942   -0.2621   -1.1325 H   0  0  0  0  0  0  0  0  0  0  0  0
    4.5962   -0.7546    1.7057 H   0  0  0  0  0  0  0  0  0  0  0  0
    2.8856   -0.6676    1.2870 H   0  0  0  0  0  0  0  0  0  0  0  0
    4.8479    1.6209    1.0321 H   0  0  0  0  0  0  0  0  0  0  0  0
    2.0533    3.8516    0.3867 H   0  0  0  0  0  0  0  0  0  0  0  0
   -0.0889    4.0845   -0.8046 H   0  0  0  0  0  0  0  0  0  0  0  0
   -3.7961    2.3215    1.2270 H   0  0  0  0  0  0  0  0  0  0  0  0
   -3.1406    3.9740    1.0741 H   0  0  0  0  0  0  0  0  0  0  0  0
   -4.5438    3.4735    0.1106 H   0  0  0  0  0  0  0  0  0  0  0  0
   -3.7147   -1.4303    1.4058 H   0  0  0  0  0  0  0  0  0  0  0  0
   -2.4252   -2.6042    1.1292 H   0  0  0  0  0  0  0  0  0  0  0  0
   -4.3781   -3.1573   -0.2790 H   0  0  0  0  0  0  0  0  0  0  0  0
   -4.4220   -1.5165   -0.9265 H   0  0  0  0  0  0  0  0  0  0  0  0
   -2.2048   -3.5751   -1.3650 H   0  0  0  0  0  0  0  0  0  0  0  0
   -3.3631   -3.0008   -2.5660 H   0  0  0  0  0  0  0  0  0  0  0  0
   -1.1398   -1.8625   -2.7805 H   0  0  0  0  0  0  0  0  0  0  0  0
   -2.4502   -0.7277   -2.4511 H   0  0  0  0  0  0  0  0  0  0  0  0
   -0.5201   -0.1761   -1.0546 H   0  0  0  0  0  0  0  0  0  0  0  0
   -0.4326   -1.8105   -0.4149 H   0  0  0  0  0  0  0  0  0  0  0  0
    0.5587    0.3408    2.4105 H   0  0  0  0  0  0  0  0  0  0  0  0
  1  2  1  0
  2  3  1  0
  3  4  1  0
  4  5  1  0
  5  6  1  0
  6  7  2  0
  6  8  2  0
  6  9  1  0
  9 10  2  0
 10 11  1  0
 11 12  2  0
 12 13  1  0
 13 14  1  0
 12 15  1  0
 15 16  1  0
 16 17  2  0
 16 18  1  0
 18 19  1  0
 19 20  1  0
 20 21  1  0
 21 22  1  0
 22 23  1  0
 15 24  2  0
 24  9  1  0
 23 18  1  0
  1 25  1  0
  1 26  1  0
  1 27  1  0
  3 28  1  0
  3 29  1  0
  4 30  1  0
  4 31  1  0
  5 32  1  0
 10 33  1  0
 11 34  1  0
 14 35  1  0
 14 36  1  0
 14 37  1  0
 19 38  1  0
 19 39  1  0
 20 40  1  0
 20 41  1  0
 21 42  1  0
 21 43  1  0
 22 44  1  0
 22 45  1  0
 23 46  1  0
 23 47  1  0
 24 48  1  0
M  END
$$$$
