
     RDKit          3D

 45 47  0  0  0  0  0  0  0  0999 V2000
   -5.2370   -1.7327    2.1468 C   0  0  0  0  0  0  0  0  0  0  0  0
   -3.8785   -1.9924    1.5648 C   0  0  0  0  0  0  0  0  0  0  0  0
   -3.7077   -2.9620    0.5725 C   0  0  0  0  0  0  0  0  0  0  0  0
   -2.4510   -3.1783    0.0101 C   0  0  0  0  0  0  0  0  0  0  0  0
   -1.3567   -2.4182    0.4241 C   0  0  0  0  0  0  0  0  0  0  0  0
   -1.5058   -1.4248    1.4026 C   0  0  0  0  0  0  0  0  0  0  0  0
   -0.3309   -0.5857    1.8491 C   0  0  0  0  0  0  0  0  0  0  0  0
    0.0620    0.3852    0.8378 N   0  0  0  0  0  0  0  0  0  0  0  0
    1.0950    0.2948   -0.0727 C   0  0  0  0  0  0  0  0  0  0  0  0
    2.2080   -1.0343   -0.1312 S   0  0  0  0  0  0  0  0  0  0  0  0
    3.3310   -0.4821   -1.4571 C   0  0  0  0  0  0  0  0  0  0  0  0
    4.4004   -1.5311   -1.7680 C   0  0  0  0  0  0  0  0  0  0  0  0
    5.4495   -1.6971   -0.6747 C   0  0  0  0  0  0  0  0  0  0  0  0
    6.1537   -0.4765   -0.4949 O   0  0  0  0  0  0  0  0  0  0  0  0
    1.1370    1.3352   -0.8787 N   0  0  0  0  0  0  0  0  0  0  0  0
    0.1353    2.1416   -0.4455 C   0  0  0  0  0  0  0  0  0  0  0  0
   -0.5234    1.6113    0.6272 C   0  0  0  0  0  0  0  0  0  0  0  0
   -1.5769    2.3031    1.2859 C   0  0  0  0  0  0  0  0  0  0  0  0
   -2.1493    1.9297    2.3032 O   0  0  0  0  0  0  0  0  0  0  0  0
   -1.8870    3.4978    0.6750 N   0  0  0  0  0  0  0  0  0  0  0  0
   -1.2447    4.0824   -0.4003 C   0  0  0  0  0  0  0  0  0  0  0  0
   -1.6186    5.1907   -0.7842 O   0  0  0  0  0  0  0  0  0  0  0  0
   -0.1991    3.3697   -0.9754 N   0  0  0  0  0  0  0  0  0  0  0  0
    0.5308    3.9082   -2.1066 C   0  0  0  0  0  0  0  0  0  0  0  0
   -2.7764   -1.2248    1.9668 C   0  0  0  0  0  0  0  0  0  0  0  0
   -5.7743   -1.0050    1.5308 H   0  0  0  0  0  0  0  0  0  0  0  0
   -5.8225   -2.6566    2.1971 H   0  0  0  0  0  0  0  0  0  0  0  0
   -5.1589   -1.3418    3.1666 H   0  0  0  0  0  0  0  0  0  0  0  0
   -4.5534   -3.5554    0.2315 H   0  0  0  0  0  0  0  0  0  0  0  0
   -2.3238   -3.9391   -0.7562 H   0  0  0  0  0  0  0  0  0  0  0  0
   -0.3887   -2.6127   -0.0306 H   0  0  0  0  0  0  0  0  0  0  0  0
   -0.5574   -0.0337    2.7683 H   0  0  0  0  0  0  0  0  0  0  0  0
    0.5203   -1.2288    2.0927 H   0  0  0  0  0  0  0  0  0  0  0  0
    2.7369   -0.3127   -2.3619 H   0  0  0  0  0  0  0  0  0  0  0  0
    3.7919    0.4698   -1.1743 H   0  0  0  0  0  0  0  0  0  0  0  0
    4.9119   -1.2134   -2.6859 H   0  0  0  0  0  0  0  0  0  0  0  0
    3.9338   -2.4999   -1.9833 H   0  0  0  0  0  0  0  0  0  0  0  0
    6.1713   -2.4656   -0.9699 H   0  0  0  0  0  0  0  0  0  0  0  0
    5.0044   -1.9933    0.2795 H   0  0  0  0  0  0  0  0  0  0  0  0
    6.8171   -0.6283    0.2002 H   0  0  0  0  0  0  0  0  0  0  0  0
   -2.6206    4.0441    1.0981 H   0  0  0  0  0  0  0  0  0  0  0  0
    0.4359    3.2209   -2.9527 H   0  0  0  0  0  0  0  0  0  0  0  0
    0.1470    4.8874   -2.4054 H   0  0  0  0  0  0  0  0  0  0  0  0
    1.5857    4.0131   -1.8346 H   0  0  0  0  0  0  0  0  0  0  0  0
   -2.9163   -0.4587    2.7293 H   0  0  0  0  0  0  0  0  0  0  0  0
  1  2  1  0
  2  3  2  0
  3  4  1  0
  4  5  2  0
  5  6  1  0
  6  7  1  0
  7  8  1  0
  8  9  1  0
  9 10  1  0
 10 11  1  0
 11 12  1  0
 12 13  1  0
 13 14  1  0
  9 15  2  0
 15 16  1  0
 16 17  2  0
 17 18  1  0
 18 19  2  0
 18 20  1  0
 20 21  1  0
 21 22  2  0
 21 23  1  0
 23 24  1  0
  6 25  2  0
 25  2  1  0
 17  8  1  0
 23 16  1  0
  1 26  1  0
  1 27  1  0
  1 28  1  0
  3 29  1  0
  4 30  1  0
  5 31  1  0
  7 32  1  0
  7 33  1  0
 11 34  1  0
 11 35  1  0
 12 36  1  0
 12 37  1  0
 13 38  1  0
 13 39  1  0
 14 40  1  0
 20 41  1  0
 24 42  1  0
 24 43  1  0
 24 44  1  0
 25 45  1  0
M  END
$$$$
