
     RDKit          3D

 48 50  0  0  0  0  0  0  0  0999 V2000
    4.6622    2.5392    0.2125 C   0  0  0  0  0  0  0  0  0  0  0  0
    4.9436    1.4754   -0.8518 C   0  0  0  0  0  0  0  0  0  0  0  0
    6.4423    1.4362   -1.1577 C   0  0  0  0  0  0  0  0  0  0  0  0
    4.4621    0.0885   -0.3977 C   0  0  0  0  0  0  0  0  0  0  0  0
    2.9452   -0.0648   -0.3935 C   0  0  0  0  0  0  0  0  0  0  0  0
    2.2032    0.7505   -0.9269 O   0  0  0  0  0  0  0  0  0  0  0  0
    2.5619   -1.2458    0.2243 N   0  0  0  0  0  0  0  0  0  0  0  0
    1.2475   -1.6895    0.4825 C   0  0  0  0  0  0  0  0  0  0  0  0
    1.0966   -3.0112    0.9050 C   0  0  0  0  0  0  0  0  0  0  0  0
   -0.1734   -3.5347    1.1391 C   0  0  0  0  0  0  0  0  0  0  0  0
   -1.3152   -2.7374    0.9735 C   0  0  0  0  0  0  0  0  0  0  0  0
   -1.1797   -1.3780    0.6310 C   0  0  0  0  0  0  0  0  0  0  0  0
    0.1105   -0.8838    0.3569 C   0  0  0  0  0  0  0  0  0  0  0  0
   -2.3436   -0.5362    0.4981 N   0  0  0  0  0  0  0  0  0  0  0  0
   -2.2338    0.8633    0.6253 C   0  0  0  0  0  0  0  0  0  0  0  0
   -1.3365    1.4605    1.2145 O   0  0  0  0  0  0  0  0  0  0  0  0
   -3.2948    1.6937    0.0194 C   0  0  0  0  0  0  0  0  0  0  0  0
   -3.7551    1.4729   -1.2803 C   0  0  0  0  0  0  0  0  0  0  0  0
   -4.7400    2.3085   -1.8008 C   0  0  0  0  0  0  0  0  0  0  0  0
   -5.2193    3.3379   -1.0036 C   0  0  0  0  0  0  0  0  0  0  0  0
   -4.7805    3.5861    0.2509 N   0  0  0  0  0  0  0  0  0  0  0  0
   -3.8095    2.7685    0.7292 C   0  0  0  0  0  0  0  0  0  0  0  0
   -3.6570   -1.1472    0.7423 C   0  0  0  0  0  0  0  0  0  0  0  0
   -3.7187   -2.6251    0.4058 C   0  0  0  0  0  0  0  0  0  0  0  0
   -2.6640   -3.3577    1.2110 C   0  0  0  0  0  0  0  0  0  0  0  0
    3.5915    2.6206    0.4233 H   0  0  0  0  0  0  0  0  0  0  0  0
    5.0077    3.5228   -0.1236 H   0  0  0  0  0  0  0  0  0  0  0  0
    5.1742    2.3059    1.1524 H   0  0  0  0  0  0  0  0  0  0  0  0
    4.4200    1.7624   -1.7722 H   0  0  0  0  0  0  0  0  0  0  0  0
    6.7964    2.4161   -1.4952 H   0  0  0  0  0  0  0  0  0  0  0  0
    6.6586    0.7130   -1.9511 H   0  0  0  0  0  0  0  0  0  0  0  0
    7.0219    1.1524   -0.2726 H   0  0  0  0  0  0  0  0  0  0  0  0
    4.8466   -0.1332    0.6056 H   0  0  0  0  0  0  0  0  0  0  0  0
    4.8510   -0.6773   -1.0809 H   0  0  0  0  0  0  0  0  0  0  0  0
    3.3028   -1.8952    0.4540 H   0  0  0  0  0  0  0  0  0  0  0  0
    1.9587   -3.6603    1.0314 H   0  0  0  0  0  0  0  0  0  0  0  0
   -0.2699   -4.5754    1.4412 H   0  0  0  0  0  0  0  0  0  0  0  0
    0.2264    0.1481    0.0426 H   0  0  0  0  0  0  0  0  0  0  0  0
   -3.3415    0.6710   -1.8859 H   0  0  0  0  0  0  0  0  0  0  0  0
   -5.1185    2.1680   -2.8074 H   0  0  0  0  0  0  0  0  0  0  0  0
   -5.9868    4.0161   -1.3668 H   0  0  0  0  0  0  0  0  0  0  0  0
   -3.4526    3.0077    1.7277 H   0  0  0  0  0  0  0  0  0  0  0  0
   -4.4302   -0.6306    0.1681 H   0  0  0  0  0  0  0  0  0  0  0  0
   -3.8980   -0.9818    1.8009 H   0  0  0  0  0  0  0  0  0  0  0  0
   -3.5464   -2.7701   -0.6684 H   0  0  0  0  0  0  0  0  0  0  0  0
   -4.7125   -3.0249    0.6353 H   0  0  0  0  0  0  0  0  0  0  0  0
   -2.6592   -4.4125    0.9123 H   0  0  0  0  0  0  0  0  0  0  0  0
   -2.8940   -3.3128    2.2823 H   0  0  0  0  0  0  0  0  0  0  0  0
  1  2  1  0
  2  3  1  0
  2  4  1  0
  4  5  1  0
  5  6  2  0
  5  7  1  0
  7  8  1  0
  8  9  2  0
  9 10  1  0
 10 11  2  0
 11 12  1  0
 12 13  2  0
 12 14  1  0
 14 15  1  0
 15 16  2  0
 15 17  1  0
 17 18  2  0
 18 19  1  0
 19 20  2  0
 20 21  1  0
 21 22  2  0
 14 23  1  0
 23 24  1  0
 24 25  1  0
 13  8  1  0
 22 17  1  0
 25 11  1  0
  1 26  1  0
  1 27  1  0
  1 28  1  0
  2 29  1  0
  3 30  1  0
  3 31  1  0
  3 32  1  0
  4 33  1  0
  4 34  1  0
  7 35  1  0
  9 36  1  0
 10 37  1  0
 13 38  1  0
 18 39  1  0
 19 40  1  0
 20 41  1  0
 22 42  1  0
 23 43  1  0
 23 44  1  0
 24 45  1  0
 24 46  1  0
 25 47  1  0
 25 48  1  0
M  END
$$$$
