
     RDKit          3D

 41 42  0  0  0  0  0  0  0  0999 V2000
    0.5283   -1.2407    2.4787 C   0  0  0  0  0  0  0  0  0  0  0  0
    0.8959   -0.6329    1.2463 O   0  0  0  0  0  0  0  0  0  0  0  0
    2.2445   -0.5054    1.0019 C   0  0  0  0  0  0  0  0  0  0  0  0
    3.2409   -1.2342    1.6571 C   0  0  0  0  0  0  0  0  0  0  0  0
    4.5824   -1.0384    1.3235 C   0  0  0  0  0  0  0  0  0  0  0  0
    4.9308   -0.1211    0.3346 C   0  0  0  0  0  0  0  0  0  0  0  0
    3.9410    0.6058   -0.3304 C   0  0  0  0  0  0  0  0  0  0  0  0
    2.5970    0.4192   -0.0052 C   0  0  0  0  0  0  0  0  0  0  0  0
    1.5412    1.1118   -0.6285 N   0  0  0  0  0  0  0  0  0  0  0  0
    1.5884    2.0972   -1.5917 C   0  0  0  0  0  0  0  0  0  0  0  0
    2.6054    2.5945   -2.0694 O   0  0  0  0  0  0  0  0  0  0  0  0
    0.1978    2.6039   -2.0119 C   0  0  0  0  0  0  0  0  0  0  0  0
   -0.8845    1.7084   -1.6263 N   0  0  0  0  0  0  0  0  0  0  0  0
   -1.6919    1.9331   -0.5365 C   0  0  0  0  0  0  0  0  0  0  0  0
   -1.6417    2.9659    0.1222 O   0  0  0  0  0  0  0  0  0  0  0  0
   -2.6472    0.8431   -0.1619 C   0  0  0  0  0  0  0  0  0  0  0  0
   -3.7333    1.2126    0.6499 C   0  0  0  0  0  0  0  0  0  0  0  0
   -4.6715    0.2659    1.0586 C   0  0  0  0  0  0  0  0  0  0  0  0
   -4.5327   -1.0596    0.6607 C   0  0  0  0  0  0  0  0  0  0  0  0
   -3.4515   -1.4444   -0.1365 C   0  0  0  0  0  0  0  0  0  0  0  0
   -2.4922   -0.5058   -0.5413 C   0  0  0  0  0  0  0  0  0  0  0  0
   -1.4105   -0.8372   -1.3192 O   0  0  0  0  0  0  0  0  0  0  0  0
   -0.9613   -2.1882   -1.2485 C   0  0  0  0  0  0  0  0  0  0  0  0
    0.7314   -2.3159    2.4575 H   0  0  0  0  0  0  0  0  0  0  0  0
    1.0252   -0.7598    3.3280 H   0  0  0  0  0  0  0  0  0  0  0  0
   -0.5508   -1.1095    2.6053 H   0  0  0  0  0  0  0  0  0  0  0  0
    3.0064   -1.9652    2.4231 H   0  0  0  0  0  0  0  0  0  0  0  0
    5.3581   -1.6035    1.8345 H   0  0  0  0  0  0  0  0  0  0  0  0
    5.9758    0.0322    0.0761 H   0  0  0  0  0  0  0  0  0  0  0  0
    4.2480    1.3107   -1.0965 H   0  0  0  0  0  0  0  0  0  0  0  0
    0.6185    0.8686   -0.2784 H   0  0  0  0  0  0  0  0  0  0  0  0
    0.0459    3.5970   -1.5794 H   0  0  0  0  0  0  0  0  0  0  0  0
    0.1772    2.6701   -3.1038 H   0  0  0  0  0  0  0  0  0  0  0  0
   -0.9298    0.7967   -2.0730 H   0  0  0  0  0  0  0  0  0  0  0  0
   -3.8524    2.2488    0.9635 H   0  0  0  0  0  0  0  0  0  0  0  0
   -5.5105    0.5666    1.6816 H   0  0  0  0  0  0  0  0  0  0  0  0
   -5.2700   -1.7976    0.9688 H   0  0  0  0  0  0  0  0  0  0  0  0
   -3.3902   -2.4859   -0.4370 H   0  0  0  0  0  0  0  0  0  0  0  0
   -1.6145   -2.8416   -1.8349 H   0  0  0  0  0  0  0  0  0  0  0  0
   -0.8816   -2.5361   -0.2131 H   0  0  0  0  0  0  0  0  0  0  0  0
    0.0381   -2.2292   -1.6923 H   0  0  0  0  0  0  0  0  0  0  0  0
  1  2  1  0
  2  3  1  0
  3  4  2  0
  4  5  1  0
  5  6  2  0
  6  7  1  0
  7  8  2  0
  8  9  1  0
  9 10  1  0
 10 11  2  0
 10 12  1  0
 12 13  1  0
 13 14  1  0
 14 15  2  0
 14 16  1  0
 16 17  2  0
 17 18  1  0
 18 19  2  0
 19 20  1  0
 20 21  2  0
 21 22  1  0
 22 23  1  0
  8  3  1  0
 21 16  1  0
  1 24  1  0
  1 25  1  0
  1 26  1  0
  4 27  1  0
  5 28  1  0
  6 29  1  0
  7 30  1  0
  9 31  1  0
 12 32  1  0
 12 33  1  0
 13 34  1  0
 17 35  1  0
 18 36  1  0
 19 37  1  0
 20 38  1  0
 23 39  1  0
 23 40  1  0
 23 41  1  0
M  END
$$$$
