
     RDKit          3D

 48 50  0  0  0  0  0  0  0  0999 V2000
   -3.1734   -2.1223   -1.3356 C   0  0  0  0  0  0  0  0  0  0  0  0
   -1.7490   -1.5056   -1.4104 C   0  0  0  0  0  0  0  0  0  0  0  0
   -1.8679   -0.2065   -2.2311 C   0  0  0  0  0  0  0  0  0  0  0  0
   -0.9246   -2.5502   -2.1984 C   0  0  0  0  0  0  0  0  0  0  0  0
   -1.1603   -1.2245   -0.0383 N   0  0  0  0  0  0  0  0  0  0  0  0
   -2.0841   -1.0408    1.1045 C   0  0  0  0  0  0  0  0  0  0  0  0
   -2.8126    0.2884    1.1183 C   0  0  0  0  0  0  0  0  0  0  0  0
   -4.2071    0.3263    1.2771 C   0  0  0  0  0  0  0  0  0  0  0  0
   -4.8901    1.5439    1.3124 C   0  0  0  0  0  0  0  0  0  0  0  0
   -4.1874    2.7413    1.2044 C   0  0  0  0  0  0  0  0  0  0  0  0
   -2.8015    2.7219    1.0698 C   0  0  0  0  0  0  0  0  0  0  0  0
   -2.1179    1.5048    1.0350 C   0  0  0  0  0  0  0  0  0  0  0  0
    0.1783   -0.9048    0.2602 C   0  0  0  0  0  0  0  0  0  0  0  0
    0.5211   -0.6099    1.4137 O   0  0  0  0  0  0  0  0  0  0  0  0
    1.2472   -0.9542   -0.8361 C   0  0  0  0  0  0  0  0  0  0  0  0
    2.4667   -0.3356   -0.3539 N   0  0  0  0  0  0  0  0  0  0  0  0
    3.4812   -1.0153    0.2587 C   0  0  0  0  0  0  0  0  0  0  0  0
    3.6156   -2.2131    0.4214 O   0  0  0  0  0  0  0  0  0  0  0  0
    4.4504   -0.0075    0.6871 C   0  0  0  0  0  0  0  0  0  0  0  0
    5.6557   -0.1476    1.3464 C   0  0  0  0  0  0  0  0  0  0  0  0
    6.3719    1.0218    1.6224 C   0  0  0  0  0  0  0  0  0  0  0  0
    5.8728    2.2844    1.2382 C   0  0  0  0  0  0  0  0  0  0  0  0
    4.6488    2.3999    0.5712 C   0  0  0  0  0  0  0  0  0  0  0  0
    3.9613    1.2311    0.3098 C   0  0  0  0  0  0  0  0  0  0  0  0
    2.6786    1.0144   -0.3572 C   0  0  0  0  0  0  0  0  0  0  0  0
    1.9772    1.8971   -0.8137 O   0  0  0  0  0  0  0  0  0  0  0  0
   -3.1733   -3.0525   -0.7561 H   0  0  0  0  0  0  0  0  0  0  0  0
   -3.5562   -2.3612   -2.3356 H   0  0  0  0  0  0  0  0  0  0  0  0
   -3.9016   -1.4397   -0.8916 H   0  0  0  0  0  0  0  0  0  0  0  0
   -2.5814    0.4879   -1.7761 H   0  0  0  0  0  0  0  0  0  0  0  0
   -0.9197    0.3274   -2.3182 H   0  0  0  0  0  0  0  0  0  0  0  0
   -2.2219   -0.4150   -3.2475 H   0  0  0  0  0  0  0  0  0  0  0  0
   -0.0359   -2.1240   -2.6675 H   0  0  0  0  0  0  0  0  0  0  0  0
   -1.5024   -2.9751   -3.0286 H   0  0  0  0  0  0  0  0  0  0  0  0
   -0.6180   -3.3800   -1.5522 H   0  0  0  0  0  0  0  0  0  0  0  0
   -1.5520   -1.1279    2.0595 H   0  0  0  0  0  0  0  0  0  0  0  0
   -2.7877   -1.8789    1.1199 H   0  0  0  0  0  0  0  0  0  0  0  0
   -4.7751   -0.5964    1.3739 H   0  0  0  0  0  0  0  0  0  0  0  0
   -5.9705    1.5577    1.4295 H   0  0  0  0  0  0  0  0  0  0  0  0
   -4.7172    3.6895    1.2341 H   0  0  0  0  0  0  0  0  0  0  0  0
   -2.2468    3.6539    0.9976 H   0  0  0  0  0  0  0  0  0  0  0  0
   -1.0335    1.5184    0.9468 H   0  0  0  0  0  0  0  0  0  0  0  0
    1.4630   -1.9997   -1.0694 H   0  0  0  0  0  0  0  0  0  0  0  0
    0.9290   -0.3997   -1.7166 H   0  0  0  0  0  0  0  0  0  0  0  0
    6.0252   -1.1250    1.6387 H   0  0  0  0  0  0  0  0  0  0  0  0
    7.3259    0.9590    2.1432 H   0  0  0  0  0  0  0  0  0  0  0  0
    6.4481    3.1798    1.4675 H   0  0  0  0  0  0  0  0  0  0  0  0
    4.2510    3.3642    0.2728 H   0  0  0  0  0  0  0  0  0  0  0  0
  1  2  1  0
  2  3  1  0
  2  4  1  0
  2  5  1  0
  5  6  1  0
  6  7  1  0
  7  8  2  0
  8  9  1  0
  9 10  2  0
 10 11  1  0
 11 12  2  0
  5 13  1  0
 13 14  2  0
 13 15  1  0
 15 16  1  0
 16 17  1  0
 17 18  2  0
 17 19  1  0
 19 20  2  0
 20 21  1  0
 21 22  2  0
 22 23  1  0
 23 24  2  0
 24 25  1  0
 25 26  2  0
 12  7  1  0
 25 16  1  0
 24 19  1  0
  1 27  1  0
  1 28  1  0
  1 29  1  0
  3 30  1  0
  3 31  1  0
  3 32  1  0
  4 33  1  0
  4 34  1  0
  4 35  1  0
  6 36  1  0
  6 37  1  0
  8 38  1  0
  9 39  1  0
 10 40  1  0
 11 41  1  0
 12 42  1  0
 15 43  1  0
 15 44  1  0
 20 45  1  0
 21 46  1  0
 22 47  1  0
 23 48  1  0
M  END
$$$$
