
     RDKit          3D

 44 45  0  0  0  0  0  0  0  0999 V2000
    2.7442    3.3618   -0.7515 C   0  0  0  0  0  0  0  0  0  0  0  0
    2.1195    2.1146   -0.3862 N   0  0  0  0  0  0  0  0  0  0  0  0
    2.8879    0.9964   -0.1211 C   0  0  0  0  0  0  0  0  0  0  0  0
    4.1130    1.0178   -0.0973 O   0  0  0  0  0  0  0  0  0  0  0  0
    2.0632   -0.2499    0.1629 C   0  0  0  0  0  0  0  0  0  0  0  0
    2.8802   -1.5469    0.0558 C   0  0  0  0  0  0  0  0  0  0  0  0
    2.2720   -2.6863    0.8809 C   0  0  0  0  0  0  0  0  0  0  0  0
    0.7647   -2.5164    1.0495 C   0  0  0  0  0  0  0  0  0  0  0  0
    0.4744   -1.2585    1.7787 N   0  0  0  0  0  0  0  0  0  0  0  0
   -1.1582   -0.8611    2.0392 S   0  0  0  0  0  6  0  0  0  0  0  0
   -1.1833    0.2132    3.0135 O   0  0  0  0  0  0  0  0  0  0  0  0
   -1.9101   -2.0736    2.2799 O   0  0  0  0  0  0  0  0  0  0  0  0
   -1.6684   -0.1533    0.4842 C   0  0  0  0  0  0  0  0  0  0  0  0
   -1.6644    1.2476    0.3614 C   0  0  0  0  0  0  0  0  0  0  0  0
   -2.0398    1.8621   -0.8400 C   0  0  0  0  0  0  0  0  0  0  0  0
   -2.0600    3.3584   -0.9533 C   0  0  0  0  0  0  0  0  0  0  0  0
   -2.4544    1.0620   -1.9087 C   0  0  0  0  0  0  0  0  0  0  0  0
   -2.4836   -0.3285   -1.7812 C   0  0  0  0  0  0  0  0  0  0  0  0
   -2.1138   -0.9385   -0.5783 C   0  0  0  0  0  0  0  0  0  0  0  0
   -2.1131   -2.3033   -0.5178 O   0  0  0  0  0  0  0  0  0  0  0  0
   -3.4449   -2.8114   -0.4012 C   0  0  0  0  0  0  0  0  0  0  0  0
    1.4315   -0.1418    1.5504 C   0  0  0  0  0  0  0  0  0  0  0  0
    3.0867    3.2923   -1.7874 H   0  0  0  0  0  0  0  0  0  0  0  0
    3.5972    3.5637   -0.0981 H   0  0  0  0  0  0  0  0  0  0  0  0
    2.0048    4.1605   -0.6580 H   0  0  0  0  0  0  0  0  0  0  0  0
    1.1505    1.9822   -0.6496 H   0  0  0  0  0  0  0  0  0  0  0  0
    1.2702   -0.2920   -0.5969 H   0  0  0  0  0  0  0  0  0  0  0  0
    3.9206   -1.4063    0.3716 H   0  0  0  0  0  0  0  0  0  0  0  0
    2.9255   -1.8426   -1.0001 H   0  0  0  0  0  0  0  0  0  0  0  0
    2.4964   -3.6470    0.4041 H   0  0  0  0  0  0  0  0  0  0  0  0
    2.7474   -2.7066    1.8701 H   0  0  0  0  0  0  0  0  0  0  0  0
    0.2962   -2.5124    0.0630 H   0  0  0  0  0  0  0  0  0  0  0  0
    0.3724   -3.3633    1.6220 H   0  0  0  0  0  0  0  0  0  0  0  0
   -1.3691    1.8674    1.2078 H   0  0  0  0  0  0  0  0  0  0  0  0
   -1.9086    3.6745   -1.9907 H   0  0  0  0  0  0  0  0  0  0  0  0
   -1.2556    3.8036   -0.3581 H   0  0  0  0  0  0  0  0  0  0  0  0
   -3.0203    3.7475   -0.6016 H   0  0  0  0  0  0  0  0  0  0  0  0
   -2.7637    1.5149   -2.8490 H   0  0  0  0  0  0  0  0  0  0  0  0
   -2.7932   -0.9364   -2.6281 H   0  0  0  0  0  0  0  0  0  0  0  0
   -4.0212   -2.2761    0.3621 H   0  0  0  0  0  0  0  0  0  0  0  0
   -3.3768   -3.8616   -0.1023 H   0  0  0  0  0  0  0  0  0  0  0  0
   -3.9596   -2.7658   -1.3664 H   0  0  0  0  0  0  0  0  0  0  0  0
    0.9422    0.8279    1.6830 H   0  0  0  0  0  0  0  0  0  0  0  0
    2.2013   -0.1890    2.3316 H   0  0  0  0  0  0  0  0  0  0  0  0
  1  2  1  0
  2  3  1  0
  3  4  2  0
  3  5  1  0
  5  6  1  0
  6  7  1  0
  7  8  1  0
  8  9  1  0
  9 10  1  0
 10 11  2  0
 10 12  2  0
 10 13  1  0
 13 14  2  0
 14 15  1  0
 15 16  1  0
 15 17  2  0
 17 18  1  0
 18 19  2  0
 19 20  1  0
 20 21  1  0
  9 22  1  0
 22  5  1  0
 19 13  1  0
  1 23  1  0
  1 24  1  0
  1 25  1  0
  2 26  1  0
  5 27  1  0
  6 28  1  0
  6 29  1  0
  7 30  1  0
  7 31  1  0
  8 32  1  0
  8 33  1  0
 14 34  1  0
 16 35  1  0
 16 36  1  0
 16 37  1  0
 17 38  1  0
 18 39  1  0
 21 40  1  0
 21 41  1  0
 21 42  1  0
 22 43  1  0
 22 44  1  0
M  END
$$$$
