
     RDKit          3D

 44 46  0  0  0  0  0  0  0  0999 V2000
    1.0633    2.5849   -0.9442 C   0  0  0  0  0  0  0  0  0  0  0  0
    0.6260    1.2331   -0.6294 N   0  0  0  0  0  0  0  0  0  0  0  0
    1.2731    0.5826    0.5128 C   0  0  0  0  0  0  0  0  0  0  0  0
    2.7442    0.3062    0.3010 C   0  0  0  0  0  0  0  0  0  0  0  0
    3.1995   -0.3756   -0.8374 C   0  0  0  0  0  0  0  0  0  0  0  0
    4.5584   -0.6463   -1.0084 C   0  0  0  0  0  0  0  0  0  0  0  0
    5.4769   -0.2472   -0.0403 C   0  0  0  0  0  0  0  0  0  0  0  0
    5.0380    0.4220    1.1000 C   0  0  0  0  0  0  0  0  0  0  0  0
    3.6794    0.6947    1.2720 C   0  0  0  0  0  0  0  0  0  0  0  0
   -0.2778    0.6227   -1.4853 C   0  0  0  0  0  0  0  0  0  0  0  0
   -0.7091    1.1350   -2.5169 O   0  0  0  0  0  0  0  0  0  0  0  0
   -0.7459   -0.7498   -1.1262 C   0  0  0  0  0  0  0  0  0  0  0  0
   -1.8267   -0.8457   -0.3337 C   0  0  0  0  0  0  0  0  0  0  0  0
   -2.6399    0.2450    0.2103 C   0  0  0  0  0  0  0  0  0  0  0  0
   -2.5064    0.6517    1.5454 C   0  0  0  0  0  0  0  0  0  0  0  0
   -3.2619    1.7168    2.0398 C   0  0  0  0  0  0  0  0  0  0  0  0
   -4.1486    2.3913    1.2031 C   0  0  0  0  0  0  0  0  0  0  0  0
   -4.2812    2.0029   -0.1283 C   0  0  0  0  0  0  0  0  0  0  0  0
   -3.5289    0.9364   -0.6242 C   0  0  0  0  0  0  0  0  0  0  0  0
   -2.4236   -2.3852    0.1515 S   0  0  0  0  0  6  0  0  0  0  0  0
   -2.4160   -2.4930    1.6005 O   0  0  0  0  0  0  0  0  0  0  0  0
   -3.6256   -2.6981   -0.6008 O   0  0  0  0  0  0  0  0  0  0  0  0
   -1.1700   -3.4934   -0.4197 C   0  0  0  0  0  0  0  0  0  0  0  0
   -0.7248   -3.0293   -1.7781 C   0  0  0  0  0  0  0  0  0  0  0  0
   -0.0231   -1.7913   -1.6712 O   0  0  0  0  0  0  0  0  0  0  0  0
    0.4102    3.0623   -1.6798 H   0  0  0  0  0  0  0  0  0  0  0  0
    1.0530    3.1869   -0.0307 H   0  0  0  0  0  0  0  0  0  0  0  0
    2.0781    2.5498   -1.3500 H   0  0  0  0  0  0  0  0  0  0  0  0
    0.7896   -0.3639    0.7694 H   0  0  0  0  0  0  0  0  0  0  0  0
    1.1271    1.2458    1.3744 H   0  0  0  0  0  0  0  0  0  0  0  0
    2.4999   -0.6926   -1.6075 H   0  0  0  0  0  0  0  0  0  0  0  0
    4.8992   -1.1670   -1.8996 H   0  0  0  0  0  0  0  0  0  0  0  0
    6.5347   -0.4573   -0.1750 H   0  0  0  0  0  0  0  0  0  0  0  0
    5.7547    0.7319    1.8564 H   0  0  0  0  0  0  0  0  0  0  0  0
    3.3584    1.2160    2.1714 H   0  0  0  0  0  0  0  0  0  0  0  0
   -1.8242    0.1372    2.2192 H   0  0  0  0  0  0  0  0  0  0  0  0
   -3.1616    2.0176    3.0796 H   0  0  0  0  0  0  0  0  0  0  0  0
   -4.7376    3.2198    1.5882 H   0  0  0  0  0  0  0  0  0  0  0  0
   -4.9688    2.5311   -0.7842 H   0  0  0  0  0  0  0  0  0  0  0  0
   -3.6401    0.6560   -1.6707 H   0  0  0  0  0  0  0  0  0  0  0  0
   -1.5969   -4.4994   -0.4483 H   0  0  0  0  0  0  0  0  0  0  0  0
   -0.3478   -3.4643    0.3029 H   0  0  0  0  0  0  0  0  0  0  0  0
   -0.0239   -3.7560   -2.2019 H   0  0  0  0  0  0  0  0  0  0  0  0
   -1.5533   -2.9247   -2.4895 H   0  0  0  0  0  0  0  0  0  0  0  0
  1  2  1  0
  2  3  1  0
  3  4  1  0
  4  5  2  0
  5  6  1  0
  6  7  2  0
  7  8  1  0
  8  9  2  0
  2 10  1  0
 10 11  2  0
 10 12  1  0
 12 13  2  0
 13 14  1  0
 14 15  2  0
 15 16  1  0
 16 17  2  0
 17 18  1  0
 18 19  2  0
 13 20  1  0
 20 21  2  0
 20 22  2  0
 20 23  1  0
 23 24  1  0
 24 25  1  0
  9  4  1  0
 25 12  1  0
 19 14  1  0
  1 26  1  0
  1 27  1  0
  1 28  1  0
  3 29  1  0
  3 30  1  0
  5 31  1  0
  6 32  1  0
  7 33  1  0
  8 34  1  0
  9 35  1  0
 15 36  1  0
 16 37  1  0
 17 38  1  0
 18 39  1  0
 19 40  1  0
 23 41  1  0
 23 42  1  0
 24 43  1  0
 24 44  1  0
M  END
$$$$
