
     RDKit          3D

 47 46  0  0  0  0  0  0  0  0999 V2000
   -5.0074   -0.3589    0.6400 C   0  0  0  0  0  0  0  0  0  0  0  0
   -4.2964    0.3284   -0.4638 C   0  0  0  0  0  0  0  0  0  0  0  0
   -4.9098    1.3481   -1.1406 C   0  0  0  0  0  0  0  0  0  0  0  0
   -4.2195    1.9704   -2.1620 C   0  0  0  0  0  0  0  0  0  0  0  0
   -2.9315    1.6031   -2.5300 C   0  0  0  0  0  0  0  0  0  0  0  0
   -2.3636    0.5713   -1.8148 C   0  0  0  0  0  0  0  0  0  0  0  0
   -2.9799   -0.1044   -0.7807 C   0  0  0  0  0  0  0  0  0  0  0  0
   -2.4055   -1.0690   -0.1343 O   0  0  0  0  0  0  0  0  0  0  0  0
   -1.6383   -1.9876    0.3549 C   0  0  0  0  0  0  0  0  0  0  0  0
   -0.2807   -1.5604    0.9646 C   0  0  0  0  0  0  0  0  0  0  0  0
   -0.4389   -0.6589    1.9755 O   0  0  0  0  0  0  0  0  0  0  0  0
    0.6751   -1.2659   -0.1171 C   0  0  0  0  0  0  0  0  0  0  0  0
    2.0610   -1.0943    0.2916 N   0  0  0  0  0  0  0  0  0  0  0  0
    2.8276   -1.0421   -0.9580 C   0  0  0  0  0  0  0  0  0  0  0  0
    4.1771   -0.3908   -0.7270 C   0  0  0  0  0  0  0  0  0  0  0  0
    4.0289    1.0408   -0.5493 N   0  0  0  0  0  0  0  0  0  0  0  0
    5.1059    1.5908    0.2262 C   0  0  0  0  0  0  0  0  0  0  0  0
    2.7180    1.2752   -0.0445 C   0  0  0  0  0  0  0  0  0  0  0  0
    2.2012    0.2125    0.9017 C   0  0  0  0  0  0  0  0  0  0  0  0
    0.6906    0.0000    0.0000 Cl  0  0  0  0  0  0  0  0  0  0  0  0
    0.6912    0.0000    0.0000 Cl  0  0  0  0  0  0  0  0  0  0  0  0
   -5.3973    0.4297    1.3207 H   0  0  0  0  0  0  0  0  0  0  0  0
   -4.2963   -1.0130    1.2028 H   0  0  0  0  0  0  0  0  0  0  0  0
   -5.8236   -0.9905    0.2415 H   0  0  0  0  0  0  0  0  0  0  0  0
   -5.9199    1.6858   -0.9052 H   0  0  0  0  0  0  0  0  0  0  0  0
   -4.6478    2.7801   -2.7359 H   0  0  0  0  0  0  0  0  0  0  0  0
   -2.4032    2.1185   -3.3500 H   0  0  0  0  0  0  0  0  0  0  0  0
   -1.3504    0.2583   -2.0877 H   0  0  0  0  0  0  0  0  0  0  0  0
   -1.4170   -2.8130   -0.3986 H   0  0  0  0  0  0  0  0  0  0  0  0
   -2.1787   -2.5958    1.1728 H   0  0  0  0  0  0  0  0  0  0  0  0
    0.0756   -2.5298    1.4745 H   0  0  0  0  0  0  0  0  0  0  0  0
    0.1024   -0.8732    2.7956 H   0  0  0  0  0  0  0  0  0  0  0  0
    0.4431   -0.3481   -0.6999 H   0  0  0  0  0  0  0  0  0  0  0  0
    0.6433   -2.0931   -0.8692 H   0  0  0  0  0  0  0  0  0  0  0  0
    3.0043   -2.0479   -1.3436 H   0  0  0  0  0  0  0  0  0  0  0  0
    2.2906   -0.4476   -1.7174 H   0  0  0  0  0  0  0  0  0  0  0  0
    4.6395   -0.8661    0.1674 H   0  0  0  0  0  0  0  0  0  0  0  0
    4.7952   -0.6117   -1.6214 H   0  0  0  0  0  0  0  0  0  0  0  0
    5.5745    2.4511   -0.3109 H   0  0  0  0  0  0  0  0  0  0  0  0
    5.8976    0.8104    0.4421 H   0  0  0  0  0  0  0  0  0  0  0  0
    4.7414    1.9437    1.2022 H   0  0  0  0  0  0  0  0  0  0  0  0
    2.7220    2.2237    0.5658 H   0  0  0  0  0  0  0  0  0  0  0  0
    1.9974    1.3882   -0.8916 H   0  0  0  0  0  0  0  0  0  0  0  0
    2.9371    0.1162    1.7564 H   0  0  0  0  0  0  0  0  0  0  0  0
    1.2467    0.6157    1.2910 H   0  0  0  0  0  0  0  0  0  0  0  0
   -0.6906    0.0000    0.0000 H   0  0  0  0  0  0  0  0  0  0  0  0
   -0.6912    0.0000    0.0000 H   0  0  0  0  0  0  0  0  0  0  0  0
  1  2  1  0
  2  3  2  0
  3  4  1  0
  4  5  2  0
  5  6  1  0
  6  7  2  0
  7  8  1  0
  8  9  1  0
  9 10  1  0
 10 11  1  0
 10 12  1  0
 12 13  1  0
 13 14  1  0
 14 15  1  0
 15 16  1  0
 16 17  1  0
 16 18  1  0
 18 19  1  0
  7  2  1  0
 19 13  1  0
  1 22  1  0
  1 23  1  0
  1 24  1  0
  3 25  1  0
  4 26  1  0
  5 27  1  0
  6 28  1  0
  9 29  1  0
  9 30  1  0
 10 31  1  0
 11 32  1  0
 12 33  1  0
 12 34  1  0
 14 35  1  0
 14 36  1  0
 15 37  1  0
 15 38  1  0
 17 39  1  0
 17 40  1  0
 17 41  1  0
 18 42  1  0
 18 43  1  0
 19 44  1  0
 19 45  1  0
 20 46  1  0
 21 47  1  0
M  END
$$$$
