
     RDKit          3D

 47 50  0  0  0  0  0  0  0  0999 V2000
   -8.6977    0.7139    0.3958 C   0  0  0  0  0  0  0  0  0  0  0  0
   -7.2382    0.4107    0.2904 C   0  0  0  0  0  0  0  0  0  0  0  0
   -6.7716   -0.8905    0.2987 C   0  0  0  0  0  0  0  0  0  0  0  0
   -5.3987   -1.1125    0.1957 C   0  0  0  0  0  0  0  0  0  0  0  0
   -4.5181   -0.0402    0.0950 C   0  0  0  0  0  0  0  0  0  0  0  0
   -3.1412   -0.2449   -0.0285 N   0  0  0  0  0  0  0  0  0  0  0  0
   -2.3446    0.9710   -0.2500 C   0  0  0  0  0  0  0  0  0  0  0  0
   -0.8952    0.5975   -0.6113 C   0  0  0  0  0  0  0  0  0  0  0  0
   -0.2648   -0.3128    0.3555 N   0  0  0  0  0  0  0  0  0  0  0  0
    1.1074   -0.4907    0.5029 C   0  0  0  0  0  0  0  0  0  0  0  0
    1.5701   -1.0546    1.4908 O   0  0  0  0  0  0  0  0  0  0  0  0
    1.8532    0.0020   -0.5453 N   0  0  0  0  0  0  0  0  0  0  0  0
    3.2583    0.0922   -0.6377 C   0  0  0  0  0  0  0  0  0  0  0  0
    3.7946    0.4430   -1.8808 C   0  0  0  0  0  0  0  0  0  0  0  0
    5.1765    0.5660   -2.0532 C   0  0  0  0  0  0  0  0  0  0  0  0
    6.0525    0.3458   -0.9819 C   0  0  0  0  0  0  0  0  0  0  0  0
    7.4437    0.4646   -1.1351 C   0  0  0  0  0  0  0  0  0  0  0  0
    8.3008    0.2443   -0.0560 C   0  0  0  0  0  0  0  0  0  0  0  0
    7.7784   -0.0969    1.1879 C   0  0  0  0  0  0  0  0  0  0  0  0
    6.3979   -0.2185    1.3548 C   0  0  0  0  0  0  0  0  0  0  0  0
    5.5206   -0.0009    0.2796 C   0  0  0  0  0  0  0  0  0  0  0  0
    4.1265   -0.1200    0.4357 C   0  0  0  0  0  0  0  0  0  0  0  0
   -1.1528   -0.8746    1.3754 C   0  0  0  0  0  0  0  0  0  0  0  0
   -2.5280   -1.2883    0.8168 C   0  0  0  0  0  0  0  0  0  0  0  0
   -5.0290    1.2103    0.0715 N   0  0  0  0  0  0  0  0  0  0  0  0
   -6.3857    1.4443    0.1771 N   0  0  0  0  0  0  0  0  0  0  0  0
   -9.2382    0.2711   -0.4465 H   0  0  0  0  0  0  0  0  0  0  0  0
   -8.8742    1.7943    0.3837 H   0  0  0  0  0  0  0  0  0  0  0  0
   -9.1013    0.3140    1.3312 H   0  0  0  0  0  0  0  0  0  0  0  0
   -7.4562   -1.7284    0.3753 H   0  0  0  0  0  0  0  0  0  0  0  0
   -5.0318   -2.1328    0.1723 H   0  0  0  0  0  0  0  0  0  0  0  0
   -2.3506    1.5955    0.6529 H   0  0  0  0  0  0  0  0  0  0  0  0
   -2.7547    1.5628   -1.0779 H   0  0  0  0  0  0  0  0  0  0  0  0
   -0.2912    1.5074   -0.6973 H   0  0  0  0  0  0  0  0  0  0  0  0
   -0.8781    0.0853   -1.5809 H   0  0  0  0  0  0  0  0  0  0  0  0
    1.3488    0.1552   -1.4027 H   0  0  0  0  0  0  0  0  0  0  0  0
    3.1488    0.6233   -2.7359 H   0  0  0  0  0  0  0  0  0  0  0  0
    5.5636    0.8363   -3.0330 H   0  0  0  0  0  0  0  0  0  0  0  0
    7.8705    0.7307   -2.0994 H   0  0  0  0  0  0  0  0  0  0  0  0
    9.3754    0.3389   -0.1873 H   0  0  0  0  0  0  0  0  0  0  0  0
    8.4433   -0.2697    2.0300 H   0  0  0  0  0  0  0  0  0  0  0  0
    6.0072   -0.4876    2.3341 H   0  0  0  0  0  0  0  0  0  0  0  0
    3.7382   -0.3742    1.4176 H   0  0  0  0  0  0  0  0  0  0  0  0
   -1.2778   -0.1029    2.1452 H   0  0  0  0  0  0  0  0  0  0  0  0
   -0.6853   -1.7397    1.8583 H   0  0  0  0  0  0  0  0  0  0  0  0
   -3.1649   -1.5520    1.6703 H   0  0  0  0  0  0  0  0  0  0  0  0
   -2.4067   -2.1878    0.2012 H   0  0  0  0  0  0  0  0  0  0  0  0
  1  2  1  0
  2  3  2  0
  3  4  1  0
  4  5  2  0
  5  6  1  0
  6  7  1  0
  7  8  1  0
  8  9  1  0
  9 10  1  0
 10 11  2  0
 10 12  1  0
 12 13  1  0
 13 14  2  0
 14 15  1  0
 15 16  2  0
 16 17  1  0
 17 18  2  0
 18 19  1  0
 19 20  2  0
 20 21  1  0
 21 22  2  0
  9 23  1  0
 23 24  1  0
  5 25  1  0
 25 26  2  0
 26  2  1  0
 24  6  1  0
 22 13  1  0
 21 16  1  0
  1 27  1  0
  1 28  1  0
  1 29  1  0
  3 30  1  0
  4 31  1  0
  7 32  1  0
  7 33  1  0
  8 34  1  0
  8 35  1  0
 12 36  1  0
 14 37  1  0
 15 38  1  0
 17 39  1  0
 18 40  1  0
 19 41  1  0
 20 42  1  0
 22 43  1  0
 23 44  1  0
 23 45  1  0
 24 46  1  0
 24 47  1  0
M  END
$$$$
