
     RDKit          3D

 45 46  0  0  0  0  0  0  0  0999 V2000
    2.5116   -1.8558    0.6924 C   0  0  0  0  0  0  0  0  0  0  0  0
    2.3099   -0.7866   -0.3749 C   0  0  0  0  0  0  0  0  0  0  0  0
    3.3936    0.6707   -0.0585 S   0  0  0  0  0  0  0  0  0  0  0  0
    4.9699    0.0124   -0.5672 C   0  0  0  0  0  0  0  0  0  0  0  0
    5.2122   -0.3362   -1.9004 C   0  0  0  0  0  0  0  0  0  0  0  0
    6.4578   -0.8435   -2.2815 C   0  0  0  0  0  0  0  0  0  0  0  0
    7.4648   -0.9937   -1.3300 C   0  0  0  0  0  0  0  0  0  0  0  0
    8.9975   -1.6194   -1.7980 Cl  0  0  0  0  0  0  0  0  0  0  0  0
    7.2390   -0.6342   -0.0027 C   0  0  0  0  0  0  0  0  0  0  0  0
    5.9931   -0.1267    0.3768 C   0  0  0  0  0  0  0  0  0  0  0  0
    0.8467   -0.3374   -0.4036 C   0  0  0  0  0  0  0  0  0  0  0  0
    0.0969   -0.6499   -1.3269 O   0  0  0  0  0  0  0  0  0  0  0  0
    0.4241    0.3732    0.7043 N   0  0  0  0  0  0  0  0  0  0  0  0
   -0.9093    0.9433    0.7763 C   0  0  0  0  0  0  0  0  0  0  0  0
   -1.9638   -0.1158    1.0915 C   0  0  0  0  0  0  0  0  0  0  0  0
   -3.3582    0.4787    1.3296 C   0  0  0  0  0  0  0  0  0  0  0  0
   -3.8466    1.3532    0.2539 N   0  0  0  0  0  0  0  0  0  0  0  0
   -5.1257    2.0030    0.6243 C   0  0  0  0  0  0  0  0  0  0  0  0
   -6.3452    1.0652    0.5708 C   0  0  0  0  0  0  0  0  0  0  0  0
   -6.4754    0.4458   -0.7140 O   0  0  0  0  0  0  0  0  0  0  0  0
   -5.2816   -0.2705   -1.0583 C   0  0  0  0  0  0  0  0  0  0  0  0
   -4.0506    0.6514   -1.0354 C   0  0  0  0  0  0  0  0  0  0  0  0
    2.3278   -1.4729    1.7027 H   0  0  0  0  0  0  0  0  0  0  0  0
    3.5248   -2.2703    0.6614 H   0  0  0  0  0  0  0  0  0  0  0  0
    1.8137   -2.6863    0.5336 H   0  0  0  0  0  0  0  0  0  0  0  0
    2.5376   -1.1965   -1.3640 H   0  0  0  0  0  0  0  0  0  0  0  0
    4.4405   -0.2081   -2.6568 H   0  0  0  0  0  0  0  0  0  0  0  0
    6.6357   -1.1129   -3.3196 H   0  0  0  0  0  0  0  0  0  0  0  0
    8.0259   -0.7429    0.7392 H   0  0  0  0  0  0  0  0  0  0  0  0
    5.8299    0.1561    1.4145 H   0  0  0  0  0  0  0  0  0  0  0  0
    1.1539    0.8167    1.2520 H   0  0  0  0  0  0  0  0  0  0  0  0
   -0.8865    1.7030    1.5646 H   0  0  0  0  0  0  0  0  0  0  0  0
   -1.1184    1.4431   -0.1757 H   0  0  0  0  0  0  0  0  0  0  0  0
   -2.0027   -0.8679    0.2960 H   0  0  0  0  0  0  0  0  0  0  0  0
   -1.6643   -0.6608    1.9962 H   0  0  0  0  0  0  0  0  0  0  0  0
   -3.3009    1.0669    2.2553 H   0  0  0  0  0  0  0  0  0  0  0  0
   -4.0546   -0.3435    1.5321 H   0  0  0  0  0  0  0  0  0  0  0  0
   -5.2910    2.8249   -0.0843 H   0  0  0  0  0  0  0  0  0  0  0  0
   -5.0485    2.4675    1.6146 H   0  0  0  0  0  0  0  0  0  0  0  0
   -7.2582    1.6414    0.7503 H   0  0  0  0  0  0  0  0  0  0  0  0
   -6.2934    0.2874    1.3415 H   0  0  0  0  0  0  0  0  0  0  0  0
   -5.1638   -1.1230   -0.3800 H   0  0  0  0  0  0  0  0  0  0  0  0
   -5.4220   -0.6714   -2.0676 H   0  0  0  0  0  0  0  0  0  0  0  0
   -4.1892    1.4253   -1.8022 H   0  0  0  0  0  0  0  0  0  0  0  0
   -3.1570    0.0967   -1.3374 H   0  0  0  0  0  0  0  0  0  0  0  0
  1  2  1  0
  2  3  1  0
  3  4  1  0
  4  5  2  0
  5  6  1  0
  6  7  2  0
  7  8  1  0
  7  9  1  0
  9 10  2  0
  2 11  1  0
 11 12  2  0
 11 13  1  0
 13 14  1  0
 14 15  1  0
 15 16  1  0
 16 17  1  0
 17 18  1  0
 18 19  1  0
 19 20  1  0
 20 21  1  0
 21 22  1  0
 10  4  1  0
 22 17  1  0
  1 23  1  0
  1 24  1  0
  1 25  1  0
  2 26  1  0
  5 27  1  0
  6 28  1  0
  9 29  1  0
 10 30  1  0
 13 31  1  0
 14 32  1  0
 14 33  1  0
 15 34  1  0
 15 35  1  0
 16 36  1  0
 16 37  1  0
 18 38  1  0
 18 39  1  0
 19 40  1  0
 19 41  1  0
 21 42  1  0
 21 43  1  0
 22 44  1  0
 22 45  1  0
M  END
$$$$
