
     RDKit          3D

 23 24  0  0  0  0  0  0  0  0999 V2000
   -3.4403   -0.4488    1.4888 C   0  0  0  0  0  0  0  0  0  0  0  0
   -2.7314   -1.1339    0.3493 C   0  0  0  0  0  0  0  0  0  0  0  0
   -2.2564   -2.2628    0.4896 O   0  0  0  0  0  0  0  0  0  0  0  0
   -2.6994   -0.3891   -0.9726 C   0  0  0  0  0  0  0  0  0  0  0  0
   -1.0673   -0.5017   -1.7589 S   0  0  0  0  0  0  0  0  0  0  0  0
   -0.1132    0.3718   -0.6086 C   0  0  0  0  0  0  0  0  0  0  0  0
   -0.5719    1.2286    0.2773 N   0  0  0  0  0  0  0  0  0  0  0  0
    0.4999    1.7005    1.0013 N   0  0  0  0  0  0  0  0  0  0  0  0
    1.5861    1.1199    0.5358 C   0  0  0  0  0  0  0  0  0  0  0  0
    2.9589    1.2214    0.8925 C   0  0  0  0  0  0  0  0  0  0  0  0
    3.8745    0.4892    0.2278 C   0  0  0  0  0  0  0  0  0  0  0  0
    3.4930   -0.4097   -0.8517 C   0  0  0  0  0  0  0  0  0  0  0  0
    2.1961   -0.5081   -1.1920 C   0  0  0  0  0  0  0  0  0  0  0  0
    1.2519    0.2546   -0.5010 N   0  0  0  0  0  0  0  0  0  0  0  0
   -3.3741   -1.0666    2.3887 H   0  0  0  0  0  0  0  0  0  0  0  0
   -4.4928   -0.3077    1.2310 H   0  0  0  0  0  0  0  0  0  0  0  0
   -2.9692    0.5156    1.6922 H   0  0  0  0  0  0  0  0  0  0  0  0
   -2.9659    0.6618   -0.8240 H   0  0  0  0  0  0  0  0  0  0  0  0
   -3.4529   -0.8345   -1.6294 H   0  0  0  0  0  0  0  0  0  0  0  0
    3.2399    1.8901    1.6983 H   0  0  0  0  0  0  0  0  0  0  0  0
    4.9277    0.5519    0.4865 H   0  0  0  0  0  0  0  0  0  0  0  0
    4.2639   -0.9833   -1.3560 H   0  0  0  0  0  0  0  0  0  0  0  0
    1.8430   -1.1593   -1.9817 H   0  0  0  0  0  0  0  0  0  0  0  0
  1  2  1  0
  2  3  2  0
  2  4  1  0
  4  5  1  0
  5  6  1  0
  6  7  2  0
  7  8  1  0
  8  9  2  0
  9 10  1  0
 10 11  2  0
 11 12  1  0
 12 13  2  0
 13 14  1  0
 14  6  1  0
 14  9  1  0
  1 15  1  0
  1 16  1  0
  1 17  1  0
  4 18  1  0
  4 19  1  0
 10 20  1  0
 11 21  1  0
 12 22  1  0
 13 23  1  0
M  END
$$$$
