
     RDKit          3D

 43 46  0  0  0  0  0  0  0  0999 V2000
   -4.8582   -1.1987    1.5996 O   0  0  0  0  0  0  0  0  0  0  0  0
   -4.5205   -0.4349    0.7063 C   0  0  0  0  0  0  0  0  0  0  0  0
   -3.2349   -0.1898    0.2722 N   0  0  0  0  0  0  0  0  0  0  0  0
   -2.0395   -0.7809    0.7328 C   0  0  0  0  0  0  0  0  0  0  0  0
   -1.9883   -1.7790    1.6968 C   0  0  0  0  0  0  0  0  0  0  0  0
   -0.7591   -2.3096    2.0833 C   0  0  0  0  0  0  0  0  0  0  0  0
    0.4387   -1.8586    1.5037 C   0  0  0  0  0  0  0  0  0  0  0  0
    0.4156   -0.8370    0.5325 C   0  0  0  0  0  0  0  0  0  0  0  0
   -0.8390   -0.3166    0.1687 C   0  0  0  0  0  0  0  0  0  0  0  0
    1.6519   -0.3316   -0.0224 N   0  0  0  0  0  0  0  0  0  0  0  0
    1.6881    0.5935   -1.0848 C   0  0  0  0  0  0  0  0  0  0  0  0
    0.7809    0.8369   -1.8789 O   0  0  0  0  0  0  0  0  0  0  0  0
    2.9277    1.3652   -1.2967 C   0  0  0  0  0  0  0  0  0  0  0  0
    3.4746    2.1706   -0.2966 C   0  0  0  0  0  0  0  0  0  0  0  0
    4.6331    2.8929   -0.5710 C   0  0  0  0  0  0  0  0  0  0  0  0
    5.1940    2.7840   -1.8361 C   0  0  0  0  0  0  0  0  0  0  0  0
    4.6750    2.0242   -2.8277 N   0  0  0  0  0  0  0  0  0  0  0  0
    3.5383    1.3432   -2.5421 C   0  0  0  0  0  0  0  0  0  0  0  0
    2.9015   -0.8367    0.5692 C   0  0  0  0  0  0  0  0  0  0  0  0
    2.8218   -2.3004    0.9593 C   0  0  0  0  0  0  0  0  0  0  0  0
    1.7225   -2.4789    1.9845 C   0  0  0  0  0  0  0  0  0  0  0  0
   -5.6006    0.3297    0.0040 C   0  0  0  0  0  0  0  0  0  0  0  0
   -5.4116    1.7255   -0.5422 C   0  0  0  0  0  0  0  0  0  0  0  0
   -5.5790    0.5694   -1.4878 C   0  0  0  0  0  0  0  0  0  0  0  0
   -3.1276    0.4887   -0.4682 H   0  0  0  0  0  0  0  0  0  0  0  0
   -2.8846   -2.1716    2.1664 H   0  0  0  0  0  0  0  0  0  0  0  0
   -0.7427   -3.0882    2.8437 H   0  0  0  0  0  0  0  0  0  0  0  0
   -0.9107    0.4891   -0.5528 H   0  0  0  0  0  0  0  0  0  0  0  0
    2.9944    2.2552    0.6745 H   0  0  0  0  0  0  0  0  0  0  0  0
    5.0854    3.5343    0.1786 H   0  0  0  0  0  0  0  0  0  0  0  0
    6.0973    3.3293   -2.0966 H   0  0  0  0  0  0  0  0  0  0  0  0
    3.1259    0.7617   -3.3623 H   0  0  0  0  0  0  0  0  0  0  0  0
    3.7237   -0.7304   -0.1451 H   0  0  0  0  0  0  0  0  0  0  0  0
    3.1336   -0.2131    1.4409 H   0  0  0  0  0  0  0  0  0  0  0  0
    3.7789   -2.6377    1.3722 H   0  0  0  0  0  0  0  0  0  0  0  0
    2.6142   -2.9113    0.0707 H   0  0  0  0  0  0  0  0  0  0  0  0
    2.0069   -2.0085    2.9337 H   0  0  0  0  0  0  0  0  0  0  0  0
    1.5825   -3.5507    2.1698 H   0  0  0  0  0  0  0  0  0  0  0  0
   -6.5803    0.1283    0.4329 H   0  0  0  0  0  0  0  0  0  0  0  0
   -4.4443    2.2068   -0.4725 H   0  0  0  0  0  0  0  0  0  0  0  0
   -6.2408    2.4180   -0.4362 H   0  0  0  0  0  0  0  0  0  0  0  0
   -4.7248    0.2377   -2.0651 H   0  0  0  0  0  0  0  0  0  0  0  0
   -6.5198    0.4799   -2.0217 H   0  0  0  0  0  0  0  0  0  0  0  0
  1  2  2  0
  2  3  1  0
  3  4  1  0
  4  5  2  0
  5  6  1  0
  6  7  2  0
  7  8  1  0
  8  9  2  0
  8 10  1  0
 10 11  1  0
 11 12  2  0
 11 13  1  0
 13 14  2  0
 14 15  1  0
 15 16  2  0
 16 17  1  0
 17 18  2  0
 10 19  1  0
 19 20  1  0
 20 21  1  0
  2 22  1  0
 22 23  1  0
 23 24  1  0
  9  4  1  0
 18 13  1  0
 24 22  1  0
 21  7  1  0
  3 25  1  0
  5 26  1  0
  6 27  1  0
  9 28  1  0
 14 29  1  0
 15 30  1  0
 16 31  1  0
 18 32  1  0
 19 33  1  0
 19 34  1  0
 20 35  1  0
 20 36  1  0
 21 37  1  0
 21 38  1  0
 22 39  1  0
 23 40  1  0
 23 41  1  0
 24 42  1  0
 24 43  1  0
M  END
$$$$
