
     RDKit          3D

 38 40  0  0  0  0  0  0  0  0999 V2000
    2.4531   -3.0868   -0.8954 C   0  0  0  0  0  0  0  0  0  0  0  0
    1.3491   -2.0863   -0.6398 C   0  0  0  0  0  0  0  0  0  0  0  0
    0.1180   -2.5066   -0.6874 N   0  0  0  0  0  0  0  0  0  0  0  0
   -0.8158   -1.5565   -0.4455 C   0  0  0  0  0  0  0  0  0  0  0  0
   -2.4793   -1.9242   -0.4177 S   0  0  0  0  0  0  0  0  0  0  0  0
   -2.9177   -0.2954   -0.0834 C   0  0  0  0  0  0  0  0  0  0  0  0
   -4.3299    0.0886    0.0526 C   0  0  0  0  0  0  0  0  0  0  0  0
   -5.2366   -0.6866    0.7915 C   0  0  0  0  0  0  0  0  0  0  0  0
   -6.5728   -0.2967    0.9192 C   0  0  0  0  0  0  0  0  0  0  0  0
   -7.0196    0.8747    0.3126 C   0  0  0  0  0  0  0  0  0  0  0  0
   -6.1318    1.6581   -0.4206 C   0  0  0  0  0  0  0  0  0  0  0  0
   -4.7956    1.2686   -0.5478 C   0  0  0  0  0  0  0  0  0  0  0  0
   -1.7941    0.5088   -0.0093 C   0  0  0  0  0  0  0  0  0  0  0  0
   -0.5860   -0.2237   -0.2085 C   0  0  0  0  0  0  0  0  0  0  0  0
    0.7832    0.2573   -0.2043 C   0  0  0  0  0  0  0  0  0  0  0  0
    1.0223    1.4592   -0.1050 O   0  0  0  0  0  0  0  0  0  0  0  0
    1.7383   -0.7720   -0.3531 N   0  0  0  0  0  0  0  0  0  0  0  0
    3.1027   -0.5058   -0.4119 N   0  0  0  0  0  0  0  0  0  0  0  0
    3.5783    0.4482    0.3205 C   0  0  0  0  0  0  0  0  0  0  0  0
    4.8952    0.8616    0.3464 N   0  0  0  0  0  0  0  0  0  0  0  0
    5.8066    0.4058   -0.6955 C   0  0  0  0  0  0  0  0  0  0  0  0
    5.2312    2.1366    0.9650 C   0  0  0  0  0  0  0  0  0  0  0  0
    3.0254   -2.7915   -1.7796 H   0  0  0  0  0  0  0  0  0  0  0  0
    3.1199   -3.1380   -0.0298 H   0  0  0  0  0  0  0  0  0  0  0  0
    2.0318   -4.0813   -1.0695 H   0  0  0  0  0  0  0  0  0  0  0  0
   -4.9113   -1.5996    1.2853 H   0  0  0  0  0  0  0  0  0  0  0  0
   -7.2626   -0.9089    1.4945 H   0  0  0  0  0  0  0  0  0  0  0  0
   -8.0591    1.1766    0.4113 H   0  0  0  0  0  0  0  0  0  0  0  0
   -6.4779    2.5718   -0.8967 H   0  0  0  0  0  0  0  0  0  0  0  0
   -4.1229    1.8916   -1.1332 H   0  0  0  0  0  0  0  0  0  0  0  0
   -1.8290    1.5742    0.1885 H   0  0  0  0  0  0  0  0  0  0  0  0
    2.9641    1.0055    1.0496 H   0  0  0  0  0  0  0  0  0  0  0  0
    5.7306   -0.6776   -0.8377 H   0  0  0  0  0  0  0  0  0  0  0  0
    5.5807    0.9024   -1.6448 H   0  0  0  0  0  0  0  0  0  0  0  0
    6.8471    0.6223   -0.4310 H   0  0  0  0  0  0  0  0  0  0  0  0
    4.7079    2.2582    1.9195 H   0  0  0  0  0  0  0  0  0  0  0  0
    6.3043    2.2023    1.1731 H   0  0  0  0  0  0  0  0  0  0  0  0
    4.9523    2.9650    0.3058 H   0  0  0  0  0  0  0  0  0  0  0  0
  1  2  1  0
  2  3  2  0
  3  4  1  0
  4  5  1  0
  5  6  1  0
  6  7  1  0
  7  8  2  0
  8  9  1  0
  9 10  2  0
 10 11  1  0
 11 12  2  0
  6 13  2  0
 13 14  1  0
 14 15  1  0
 15 16  2  0
 15 17  1  0
 17 18  1  0
 18 19  2  0
 19 20  1  0
 20 21  1  0
 20 22  1  0
 17  2  1  0
 14  4  2  0
 12  7  1  0
  1 23  1  0
  1 24  1  0
  1 25  1  0
  8 26  1  0
  9 27  1  0
 10 28  1  0
 11 29  1  0
 12 30  1  0
 13 31  1  0
 19 32  1  0
 21 33  1  0
 21 34  1  0
 21 35  1  0
 22 36  1  0
 22 37  1  0
 22 38  1  0
M  END
$$$$
