
     RDKit          3D

 42 44  0  0  0  0  0  0  0  0999 V2000
   -4.2948    0.5039   -1.9046 C   0  0  0  0  0  0  0  0  0  0  0  0
   -2.7934    0.3599   -2.1116 C   0  0  0  0  0  0  0  0  0  0  0  0
   -2.1151   -0.0466   -0.8839 N   0  0  0  0  0  0  0  0  0  0  0  0
   -2.0017   -1.4080   -0.6413 C   0  0  0  0  0  0  0  0  0  0  0  0
   -2.4404   -2.2773   -1.3917 O   0  0  0  0  0  0  0  0  0  0  0  0
   -1.3186   -1.8061    0.5979 C   0  0  0  0  0  0  0  0  0  0  0  0
   -1.1370   -3.1707    0.8744 C   0  0  0  0  0  0  0  0  0  0  0  0
   -0.4951   -3.5671    2.0433 C   0  0  0  0  0  0  0  0  0  0  0  0
   -0.0396   -2.6019    2.9336 C   0  0  0  0  0  0  0  0  0  0  0  0
   -0.2241   -1.2425    2.6553 C   0  0  0  0  0  0  0  0  0  0  0  0
   -0.8656   -0.8240    1.4769 C   0  0  0  0  0  0  0  0  0  0  0  0
   -1.0673    0.5490    1.1581 N   0  0  0  0  0  0  0  0  0  0  0  0
   -0.5830    1.5932    2.0697 C   0  0  0  0  0  0  0  0  0  0  0  0
    0.9322    1.7931    2.1047 C   0  0  0  0  0  0  0  0  0  0  0  0
    1.4980    2.2734    3.0869 O   0  0  0  0  0  0  0  0  0  0  0  0
    1.7521    1.4500    0.9221 C   0  0  0  0  0  0  0  0  0  0  0  0
    1.4586    1.9784   -0.3360 C   0  0  0  0  0  0  0  0  0  0  0  0
    2.2437    1.6233   -1.4347 C   0  0  0  0  0  0  0  0  0  0  0  0
    3.3385    0.7629   -1.2779 C   0  0  0  0  0  0  0  0  0  0  0  0
    4.1600    0.3576   -2.4668 C   0  0  0  0  0  0  0  0  0  0  0  0
    3.6314    0.2501   -0.0073 C   0  0  0  0  0  0  0  0  0  0  0  0
    2.8491    0.6021    1.0938 C   0  0  0  0  0  0  0  0  0  0  0  0
   -1.7054    0.9511   -0.0107 C   0  0  0  0  0  0  0  0  0  0  0  0
   -1.8889    2.1450   -0.2623 O   0  0  0  0  0  0  0  0  0  0  0  0
   -4.7794    0.8074   -2.8376 H   0  0  0  0  0  0  0  0  0  0  0  0
   -4.5180    1.2574   -1.1423 H   0  0  0  0  0  0  0  0  0  0  0  0
   -4.7407   -0.4417   -1.5793 H   0  0  0  0  0  0  0  0  0  0  0  0
   -2.6043   -0.3788   -2.8989 H   0  0  0  0  0  0  0  0  0  0  0  0
   -2.3803    1.3117   -2.4644 H   0  0  0  0  0  0  0  0  0  0  0  0
   -1.4967   -3.9255    0.1773 H   0  0  0  0  0  0  0  0  0  0  0  0
   -0.3540   -4.6235    2.2582 H   0  0  0  0  0  0  0  0  0  0  0  0
    0.4603   -2.9038    3.8517 H   0  0  0  0  0  0  0  0  0  0  0  0
    0.1501   -0.5391    3.3939 H   0  0  0  0  0  0  0  0  0  0  0  0
   -0.9355    1.3582    3.0807 H   0  0  0  0  0  0  0  0  0  0  0  0
   -1.0196    2.5657    1.8167 H   0  0  0  0  0  0  0  0  0  0  0  0
    0.6354    2.6747   -0.4746 H   0  0  0  0  0  0  0  0  0  0  0  0
    2.0015    2.0306   -2.4144 H   0  0  0  0  0  0  0  0  0  0  0  0
    5.1954    0.1527   -2.1748 H   0  0  0  0  0  0  0  0  0  0  0  0
    4.1860    1.1571   -3.2146 H   0  0  0  0  0  0  0  0  0  0  0  0
    3.7365   -0.5417   -2.9243 H   0  0  0  0  0  0  0  0  0  0  0  0
    4.4754   -0.4221    0.1326 H   0  0  0  0  0  0  0  0  0  0  0  0
    3.0942    0.2117    2.0786 H   0  0  0  0  0  0  0  0  0  0  0  0
  1  2  1  0
  2  3  1  0
  3  4  1  0
  4  5  2  0
  4  6  1  0
  6  7  2  0
  7  8  1  0
  8  9  2  0
  9 10  1  0
 10 11  2  0
 11 12  1  0
 12 13  1  0
 13 14  1  0
 14 15  2  0
 14 16  1  0
 16 17  2  0
 17 18  1  0
 18 19  2  0
 19 20  1  0
 19 21  1  0
 21 22  2  0
 12 23  1  0
 23 24  2  0
 23  3  1  0
 11  6  1  0
 22 16  1  0
  1 25  1  0
  1 26  1  0
  1 27  1  0
  2 28  1  0
  2 29  1  0
  7 30  1  0
  8 31  1  0
  9 32  1  0
 10 33  1  0
 13 34  1  0
 13 35  1  0
 17 36  1  0
 18 37  1  0
 20 38  1  0
 20 39  1  0
 20 40  1  0
 21 41  1  0
 22 42  1  0
M  END
$$$$
