
     RDKit          3D

 39 43  0  0  0  0  0  0  0  0999 V2000
   -2.7409   -0.1684   -3.1858 C   0  0  0  0  0  0  0  0  0  0  0  0
   -1.8538   -0.1174   -1.9951 C   0  0  0  0  0  0  0  0  0  0  0  0
   -0.5339    0.0099   -2.1632 N   0  0  0  0  0  0  0  0  0  0  0  0
   -0.0153    0.0008   -0.9075 N   0  0  0  0  0  0  0  0  0  0  0  0
   -1.0165   -0.1348    0.0640 C   0  0  0  0  0  0  0  0  0  0  0  0
   -0.7226   -0.1696    1.4035 N   0  0  0  0  0  0  0  0  0  0  0  0
    0.5336   -0.0651    1.7173 C   0  0  0  0  0  0  0  0  0  0  0  0
    1.6635    0.0824    0.7663 C   0  0  0  0  0  0  0  0  0  0  0  0
    3.0784    0.1941    1.2107 C   0  0  0  0  0  0  0  0  0  0  0  0
    3.3462    0.1647    2.4128 O   0  0  0  0  0  0  0  0  0  0  0  0
    4.0124    0.3267    0.1840 N   0  0  0  0  0  0  0  0  0  0  0  0
    5.3664    0.4400    0.4763 C   0  0  0  0  0  0  0  0  0  0  0  0
    6.3793    0.5708   -0.3602 N   0  0  0  0  0  0  0  0  0  0  0  0
    7.5434    0.6473    0.3713 N   0  0  0  0  0  0  0  0  0  0  0  0
    7.2200    0.5620    1.6392 C   0  0  0  0  0  0  0  0  0  0  0  0
    5.8733    0.4316    1.7529 N   0  0  0  0  0  0  0  0  0  0  0  0
    3.6675    0.3535   -1.1535 C   0  0  0  0  0  0  0  0  0  0  0  0
    2.3869    0.2509   -1.5326 C   0  0  0  0  0  0  0  0  0  0  0  0
    1.3370    0.1094   -0.5397 C   0  0  0  0  0  0  0  0  0  0  0  0
   -2.2145   -0.1985   -0.6256 C   0  0  0  0  0  0  0  0  0  0  0  0
   -3.5207   -0.3204   -0.0002 C   0  0  0  0  0  0  0  0  0  0  0  0
   -3.7597   -1.2947    0.9775 C   0  0  0  0  0  0  0  0  0  0  0  0
   -5.0226   -1.4187    1.5616 C   0  0  0  0  0  0  0  0  0  0  0  0
   -6.0571   -0.5694    1.1741 C   0  0  0  0  0  0  0  0  0  0  0  0
   -5.8296    0.4065    0.2056 C   0  0  0  0  0  0  0  0  0  0  0  0
   -4.5668    0.5313   -0.3792 C   0  0  0  0  0  0  0  0  0  0  0  0
   -2.1847   -0.4565   -4.0842 H   0  0  0  0  0  0  0  0  0  0  0  0
   -3.5428   -0.9002   -3.0451 H   0  0  0  0  0  0  0  0  0  0  0  0
   -3.1918    0.8125   -3.3656 H   0  0  0  0  0  0  0  0  0  0  0  0
    0.8073   -0.0871    2.7858 H   0  0  0  0  0  0  0  0  0  0  0  0
    7.8970    0.5884    2.4807 H   0  0  0  0  0  0  0  0  0  0  0  0
    5.3213    0.3435    2.5965 H   0  0  0  0  0  0  0  0  0  0  0  0
    4.4610    0.4601   -1.8910 H   0  0  0  0  0  0  0  0  0  0  0  0
    2.1155    0.2721   -2.5857 H   0  0  0  0  0  0  0  0  0  0  0  0
   -2.9625   -1.9640    1.2935 H   0  0  0  0  0  0  0  0  0  0  0  0
   -5.1952   -2.1767    2.3210 H   0  0  0  0  0  0  0  0  0  0  0  0
   -7.0386   -0.6645    1.6312 H   0  0  0  0  0  0  0  0  0  0  0  0
   -6.6336    1.0751   -0.0911 H   0  0  0  0  0  0  0  0  0  0  0  0
   -4.4066    1.3101   -1.1205 H   0  0  0  0  0  0  0  0  0  0  0  0
  1  2  1  0
  2  3  2  0
  3  4  1  0
  4  5  1  0
  5  6  1  0
  6  7  2  0
  7  8  1  0
  8  9  1  0
  9 10  2  0
  9 11  1  0
 11 12  1  0
 12 13  2  0
 13 14  1  0
 14 15  2  0
 15 16  1  0
 11 17  1  0
 17 18  2  0
 18 19  1  0
  5 20  2  0
 20 21  1  0
 21 22  2  0
 22 23  1  0
 23 24  2  0
 24 25  1  0
 25 26  2  0
 20  2  1  0
 26 21  1  0
 19  4  1  0
 19  8  2  0
 16 12  1  0
  1 27  1  0
  1 28  1  0
  1 29  1  0
  7 30  1  0
 15 31  1  0
 16 32  1  0
 17 33  1  0
 18 34  1  0
 22 35  1  0
 23 36  1  0
 24 37  1  0
 25 38  1  0
 26 39  1  0
M  END
$$$$
