
     RDKit          3D

 31 32  0  0  0  0  0  0  0  0999 V2000
   -6.0764   -0.5949    0.3476 C   0  0  0  0  0  0  0  0  0  0  0  0
   -4.5797   -0.5042    0.3465 C   0  0  0  0  0  0  0  0  0  0  0  0
   -3.8464   -0.8212    1.4931 C   0  0  0  0  0  0  0  0  0  0  0  0
   -2.4528   -0.7037    1.4970 C   0  0  0  0  0  0  0  0  0  0  0  0
   -1.7692   -0.2540    0.3611 C   0  0  0  0  0  0  0  0  0  0  0  0
   -0.3653   -0.1726    0.4420 N   0  0  0  0  0  0  0  0  0  0  0  0
    0.5026    0.3574   -0.4865 C   0  0  0  0  0  0  0  0  0  0  0  0
    0.2132    0.9347   -1.5253 O   0  0  0  0  0  0  0  0  0  0  0  0
    1.8104    0.1726   -0.0851 N   0  0  0  0  0  0  0  0  0  0  0  0
    2.8732    0.5960   -0.9688 C   0  0  0  0  0  0  0  0  0  0  0  0
    4.1712    0.4334   -0.2469 C   0  0  0  0  0  0  0  0  0  0  0  0
    4.8116    1.3413    0.5745 C   0  0  0  0  0  0  0  0  0  0  0  0
    6.0376    0.8335    1.0930 C   0  0  0  0  0  0  0  0  0  0  0  0
    6.2924   -0.4456    0.6523 C   0  0  0  0  0  0  0  0  0  0  0  0
    5.0582   -1.0279   -0.3776 S   0  0  0  0  0  0  0  0  0  0  0  0
   -2.5025    0.0708   -0.7799 C   0  0  0  0  0  0  0  0  0  0  0  0
   -3.8974   -0.0464   -0.7850 C   0  0  0  0  0  0  0  0  0  0  0  0
   -6.4543   -0.8300   -0.6530 H   0  0  0  0  0  0  0  0  0  0  0  0
   -6.4192   -1.3896    1.0186 H   0  0  0  0  0  0  0  0  0  0  0  0
   -6.5087    0.3556    0.6751 H   0  0  0  0  0  0  0  0  0  0  0  0
   -4.3542   -1.1629    2.3922 H   0  0  0  0  0  0  0  0  0  0  0  0
   -1.9138   -0.9644    2.4038 H   0  0  0  0  0  0  0  0  0  0  0  0
    0.0493   -0.4037    1.3319 H   0  0  0  0  0  0  0  0  0  0  0  0
    1.9820   -0.6905    0.4081 H   0  0  0  0  0  0  0  0  0  0  0  0
    2.8299   -0.0063   -1.8835 H   0  0  0  0  0  0  0  0  0  0  0  0
    2.7114    1.6432   -1.2489 H   0  0  0  0  0  0  0  0  0  0  0  0
    4.4157    2.3263    0.7932 H   0  0  0  0  0  0  0  0  0  0  0  0
    6.6991    1.3793    1.7546 H   0  0  0  0  0  0  0  0  0  0  0  0
    7.1453   -1.0686    0.8848 H   0  0  0  0  0  0  0  0  0  0  0  0
   -2.0189    0.4190   -1.6874 H   0  0  0  0  0  0  0  0  0  0  0  0
   -4.4443    0.2234   -1.6860 H   0  0  0  0  0  0  0  0  0  0  0  0
  1  2  1  0
  2  3  2  0
  3  4  1  0
  4  5  2  0
  5  6  1  0
  6  7  1  0
  7  8  2  0
  7  9  1  0
  9 10  1  0
 10 11  1  0
 11 12  2  0
 12 13  1  0
 13 14  2  0
 14 15  1  0
  5 16  1  0
 16 17  2  0
 17  2  1  0
 15 11  1  0
  1 18  1  0
  1 19  1  0
  1 20  1  0
  3 21  1  0
  4 22  1  0
  6 23  1  0
  9 24  1  0
 10 25  1  0
 10 26  1  0
 12 27  1  0
 13 28  1  0
 14 29  1  0
 16 30  1  0
 17 31  1  0
M  END
$$$$
