
     RDKit          3D

 34 35  0  0  0  0  0  0  0  0999 V2000
   -6.0511   -0.2338   -1.4438 C   0  0  0  0  0  0  0  0  0  0  0  0
   -4.7666   -0.2363   -0.7905 N   0  0  0  0  0  0  0  0  0  0  0  0
   -3.7708   -1.1095   -1.1956 C   0  0  0  0  0  0  0  0  0  0  0  0
   -3.9239   -1.8378   -2.1736 O   0  0  0  0  0  0  0  0  0  0  0  0
   -2.5699   -1.0919   -0.3674 C   0  0  0  0  0  0  0  0  0  0  0  0
   -2.1327   -0.1504    0.5490 C   0  0  0  0  0  0  0  0  0  0  0  0
   -0.8942   -0.5178    1.1600 C   0  0  0  0  0  0  0  0  0  0  0  0
   -0.0713    0.4651    2.3253 S   0  0  0  0  0  6  0  0  0  0  0  0
    0.8509   -0.4222    2.9984 O   0  0  0  0  0  0  0  0  0  0  0  0
   -1.1359    1.1317    3.0443 O   0  0  0  0  0  0  0  0  0  0  0  0
    0.8032    1.6711    1.5101 N   0  0  0  0  0  0  0  0  0  0  0  0
    1.8386    1.2046    0.6415 C   0  0  0  0  0  0  0  0  0  0  0  0
    1.5488    1.0023   -0.7065 C   0  0  0  0  0  0  0  0  0  0  0  0
    2.5266    0.4862   -1.5551 C   0  0  0  0  0  0  0  0  0  0  0  0
    3.7905    0.1703   -1.0540 C   0  0  0  0  0  0  0  0  0  0  0  0
    4.0902    0.3745    0.2990 C   0  0  0  0  0  0  0  0  0  0  0  0
    5.4329   -0.0117    0.8460 C   0  0  0  0  0  0  0  0  0  0  0  0
    3.0980    0.8807    1.1489 C   0  0  0  0  0  0  0  0  0  0  0  0
   -0.4168   -1.7202    0.6897 C   0  0  0  0  0  0  0  0  0  0  0  0
   -1.4515   -2.3920   -0.4920 S   0  0  0  0  0  0  0  0  0  0  0  0
   -6.6097   -1.1176   -1.1243 H   0  0  0  0  0  0  0  0  0  0  0  0
   -6.5886    0.6707   -1.1500 H   0  0  0  0  0  0  0  0  0  0  0  0
   -5.9242   -0.2553   -2.5295 H   0  0  0  0  0  0  0  0  0  0  0  0
   -4.7093    0.1641    0.1348 H   0  0  0  0  0  0  0  0  0  0  0  0
   -2.6585    0.7701    0.7745 H   0  0  0  0  0  0  0  0  0  0  0  0
    1.1443    2.3291    2.2122 H   0  0  0  0  0  0  0  0  0  0  0  0
    0.5672    1.2443   -1.1044 H   0  0  0  0  0  0  0  0  0  0  0  0
    2.3029    0.3236   -2.6067 H   0  0  0  0  0  0  0  0  0  0  0  0
    4.5405   -0.2420   -1.7263 H   0  0  0  0  0  0  0  0  0  0  0  0
    5.4128   -1.0515    1.1867 H   0  0  0  0  0  0  0  0  0  0  0  0
    6.2113    0.0963    0.0834 H   0  0  0  0  0  0  0  0  0  0  0  0
    5.7112    0.6319    1.6872 H   0  0  0  0  0  0  0  0  0  0  0  0
    3.3087    1.0027    2.2088 H   0  0  0  0  0  0  0  0  0  0  0  0
    0.4963   -2.2293    0.9720 H   0  0  0  0  0  0  0  0  0  0  0  0
  1  2  1  0
  2  3  1  0
  3  4  2  0
  3  5  1  0
  5  6  2  0
  6  7  1  0
  7  8  1  0
  8  9  2  0
  8 10  2  0
  8 11  1  0
 11 12  1  0
 12 13  2  0
 13 14  1  0
 14 15  2  0
 15 16  1  0
 16 17  1  0
 16 18  2  0
  7 19  2  0
 19 20  1  0
 20  5  1  0
 18 12  1  0
  1 21  1  0
  1 22  1  0
  1 23  1  0
  2 24  1  0
  6 25  1  0
 11 26  1  0
 13 27  1  0
 14 28  1  0
 15 29  1  0
 17 30  1  0
 17 31  1  0
 17 32  1  0
 18 33  1  0
 19 34  1  0
M  END
$$$$
