
     RDKit          3D

 47 48  0  0  0  0  0  0  0  0999 V2000
    8.9402   -0.9108    0.1681 C   0  0  0  0  0  0  0  0  0  0  0  0
    8.1671    0.2128    0.5707 O   0  0  0  0  0  0  0  0  0  0  0  0
    6.8116    0.1161    0.4250 C   0  0  0  0  0  0  0  0  0  0  0  0
    6.1141   -0.9813   -0.0787 C   0  0  0  0  0  0  0  0  0  0  0  0
    4.7152   -0.9503   -0.1754 C   0  0  0  0  0  0  0  0  0  0  0  0
    4.0049    0.1792    0.2313 C   0  0  0  0  0  0  0  0  0  0  0  0
    2.6474    0.3365    0.1893 O   0  0  0  0  0  0  0  0  0  0  0  0
    1.8870   -0.7587   -0.3172 C   0  0  0  0  0  0  0  0  0  0  0  0
    0.3873   -0.4442   -0.3079 C   0  0  0  0  0  0  0  0  0  0  0  0
   -0.4326   -1.2978   -0.6376 O   0  0  0  0  0  0  0  0  0  0  0  0
    0.1079    0.8479    0.0989 N   0  0  0  0  0  0  0  0  0  0  0  0
   -1.1470    1.4755    0.2042 C   0  0  0  0  0  0  0  0  0  0  0  0
   -1.1702    2.7697    0.7390 C   0  0  0  0  0  0  0  0  0  0  0  0
   -2.3742    3.4628    0.8754 C   0  0  0  0  0  0  0  0  0  0  0  0
   -3.5682    2.8631    0.4815 C   0  0  0  0  0  0  0  0  0  0  0  0
   -3.5624    1.5675   -0.0488 C   0  0  0  0  0  0  0  0  0  0  0  0
   -4.8651    0.9696   -0.4603 C   0  0  0  0  0  0  0  0  0  0  0  0
   -5.8201    1.6970   -0.7112 O   0  0  0  0  0  0  0  0  0  0  0  0
   -4.9282   -0.4093   -0.5026 N   0  0  0  0  0  0  0  0  0  0  0  0
   -6.1779   -1.1061   -0.7722 C   0  0  0  0  0  0  0  0  0  0  0  0
   -5.8902   -2.4893   -1.3469 C   0  0  0  0  0  0  0  0  0  0  0  0
   -7.0196   -1.2115    0.4976 C   0  0  0  0  0  0  0  0  0  0  0  0
   -2.3464    0.8840   -0.2007 C   0  0  0  0  0  0  0  0  0  0  0  0
    4.7049    1.2760    0.7351 C   0  0  0  0  0  0  0  0  0  0  0  0
    6.0981    1.2441    0.8310 C   0  0  0  0  0  0  0  0  0  0  0  0
    8.6921   -1.7947    0.7650 H   0  0  0  0  0  0  0  0  0  0  0  0
    8.8204   -1.1094   -0.9021 H   0  0  0  0  0  0  0  0  0  0  0  0
    9.9933   -0.6734    0.3468 H   0  0  0  0  0  0  0  0  0  0  0  0
    6.6262   -1.8801   -0.4066 H   0  0  0  0  0  0  0  0  0  0  0  0
    4.2189   -1.8293   -0.5740 H   0  0  0  0  0  0  0  0  0  0  0  0
    2.1641   -0.9641   -1.3577 H   0  0  0  0  0  0  0  0  0  0  0  0
    2.0328   -1.6422    0.3150 H   0  0  0  0  0  0  0  0  0  0  0  0
    0.9222    1.3849    0.3866 H   0  0  0  0  0  0  0  0  0  0  0  0
   -0.2516    3.2576    1.0560 H   0  0  0  0  0  0  0  0  0  0  0  0
   -2.3825    4.4690    1.2872 H   0  0  0  0  0  0  0  0  0  0  0  0
   -4.5057    3.4062    0.5868 H   0  0  0  0  0  0  0  0  0  0  0  0
   -4.1834   -0.9423   -0.0729 H   0  0  0  0  0  0  0  0  0  0  0  0
   -6.7386   -0.5268   -1.5155 H   0  0  0  0  0  0  0  0  0  0  0  0
   -5.3218   -3.1043   -0.6402 H   0  0  0  0  0  0  0  0  0  0  0  0
   -6.8202   -3.0150   -1.5866 H   0  0  0  0  0  0  0  0  0  0  0  0
   -5.2982   -2.4111   -2.2655 H   0  0  0  0  0  0  0  0  0  0  0  0
   -6.4872   -1.7625    1.2808 H   0  0  0  0  0  0  0  0  0  0  0  0
   -7.2559   -0.2194    0.8969 H   0  0  0  0  0  0  0  0  0  0  0  0
   -7.9644   -1.7276    0.2980 H   0  0  0  0  0  0  0  0  0  0  0  0
   -2.3440   -0.0932   -0.6681 H   0  0  0  0  0  0  0  0  0  0  0  0
    4.1692    2.1649    1.0571 H   0  0  0  0  0  0  0  0  0  0  0  0
    6.6309    2.1059    1.2255 H   0  0  0  0  0  0  0  0  0  0  0  0
  1  2  1  0
  2  3  1  0
  3  4  2  0
  4  5  1  0
  5  6  2  0
  6  7  1  0
  7  8  1  0
  8  9  1  0
  9 10  2  0
  9 11  1  0
 11 12  1  0
 12 13  2  0
 13 14  1  0
 14 15  2  0
 15 16  1  0
 16 17  1  0
 17 18  2  0
 17 19  1  0
 19 20  1  0
 20 21  1  0
 20 22  1  0
 16 23  2  0
  6 24  1  0
 24 25  2  0
 25  3  1  0
 23 12  1  0
  1 26  1  0
  1 27  1  0
  1 28  1  0
  4 29  1  0
  5 30  1  0
  8 31  1  0
  8 32  1  0
 11 33  1  0
 13 34  1  0
 14 35  1  0
 15 36  1  0
 19 37  1  0
 20 38  1  0
 21 39  1  0
 21 40  1  0
 21 41  1  0
 22 42  1  0
 22 43  1  0
 22 44  1  0
 23 45  1  0
 24 46  1  0
 25 47  1  0
M  END
$$$$
