
     RDKit          3D

 42 43  0  0  0  0  0  0  0  0999 V2000
    6.1570   -0.8898   -0.2779 C   0  0  0  0  0  0  0  0  0  0  0  0
    4.8074   -0.1765   -0.2646 C   0  0  0  0  0  0  0  0  0  0  0  0
    4.7762    0.9124    0.8198 C   0  0  0  0  0  0  0  0  0  0  0  0
    3.4034    1.5805    0.8751 C   0  0  0  0  0  0  0  0  0  0  0  0
    2.2921    0.5499    1.0744 C   0  0  0  0  0  0  0  0  0  0  0  0
    2.3644   -0.5069    0.0604 N   0  0  0  0  0  0  0  0  0  0  0  0
    1.2581   -1.1006   -0.5327 C   0  0  0  0  0  0  0  0  0  0  0  0
    1.3633   -2.0895   -1.2518 O   0  0  0  0  0  0  0  0  0  0  0  0
   -0.0886   -0.4394   -0.3046 C   0  0  0  0  0  0  0  0  0  0  0  0
   -1.2029   -1.1985   -1.0339 C   0  0  0  0  0  0  0  0  0  0  0  0
   -2.4700   -0.4933   -0.9502 N   0  0  0  0  0  0  0  0  0  0  0  0
   -3.3300   -0.6377    0.1203 C   0  0  0  0  0  0  0  0  0  0  0  0
   -3.0398   -1.3187    1.1086 O   0  0  0  0  0  0  0  0  0  0  0  0
   -4.6443    0.0821    0.0773 C   0  0  0  0  0  0  0  0  0  0  0  0
   -5.3456    0.1419    1.3001 C   0  0  0  0  0  0  0  0  0  0  0  0
   -6.5858    0.7771    1.3975 C   0  0  0  0  0  0  0  0  0  0  0  0
   -7.1515    1.3665    0.2757 C   0  0  0  0  0  0  0  0  0  0  0  0
   -6.4791    1.3136   -0.9435 C   0  0  0  0  0  0  0  0  0  0  0  0
   -5.2345    0.6721   -1.0520 C   0  0  0  0  0  0  0  0  0  0  0  0
   -4.5493    0.6515   -2.6461 Cl  0  0  0  0  0  0  0  0  0  0  0  0
    3.6606   -1.1820   -0.0609 C   0  0  0  0  0  0  0  0  0  0  0  0
    6.3604   -1.3685    0.6843 H   0  0  0  0  0  0  0  0  0  0  0  0
    6.1809   -1.6635   -1.0492 H   0  0  0  0  0  0  0  0  0  0  0  0
    6.9694   -0.1840   -0.4839 H   0  0  0  0  0  0  0  0  0  0  0  0
    4.6711    0.3114   -1.2403 H   0  0  0  0  0  0  0  0  0  0  0  0
    5.0066    0.4766    1.8008 H   0  0  0  0  0  0  0  0  0  0  0  0
    5.5452    1.6705    0.6151 H   0  0  0  0  0  0  0  0  0  0  0  0
    3.2337    2.1202   -0.0671 H   0  0  0  0  0  0  0  0  0  0  0  0
    3.3779    2.3229    1.6820 H   0  0  0  0  0  0  0  0  0  0  0  0
    2.3857    0.0625    2.0527 H   0  0  0  0  0  0  0  0  0  0  0  0
    1.3281    1.0623    1.0629 H   0  0  0  0  0  0  0  0  0  0  0  0
   -0.0339    0.5859   -0.6950 H   0  0  0  0  0  0  0  0  0  0  0  0
   -0.3073   -0.4026    0.7708 H   0  0  0  0  0  0  0  0  0  0  0  0
   -0.9737   -1.3071   -2.1118 H   0  0  0  0  0  0  0  0  0  0  0  0
   -1.3255   -2.2139   -0.6113 H   0  0  0  0  0  0  0  0  0  0  0  0
   -2.7425    0.0738   -1.7495 H   0  0  0  0  0  0  0  0  0  0  0  0
   -4.9240   -0.3177    2.1924 H   0  0  0  0  0  0  0  0  0  0  0  0
   -7.1105    0.7986    2.3477 H   0  0  0  0  0  0  0  0  0  0  0  0
   -8.1188    1.8575    0.3431 H   0  0  0  0  0  0  0  0  0  0  0  0
   -6.9409    1.7651   -1.8196 H   0  0  0  0  0  0  0  0  0  0  0  0
    3.8047   -1.7642    0.8644 H   0  0  0  0  0  0  0  0  0  0  0  0
    3.6520   -1.9004   -0.8971 H   0  0  0  0  0  0  0  0  0  0  0  0
  1  2  1  0
  2  3  1  0
  3  4  1  0
  4  5  1  0
  5  6  1  0
  6  7  1  0
  7  8  2  0
  7  9  1  0
  9 10  1  0
 10 11  1  0
 11 12  1  0
 12 13  2  0
 12 14  1  0
 14 15  2  0
 15 16  1  0
 16 17  2  0
 17 18  1  0
 18 19  2  0
 19 20  1  0
  6 21  1  0
 21  2  1  0
 19 14  1  0
  1 22  1  0
  1 23  1  0
  1 24  1  0
  2 25  1  0
  3 26  1  0
  3 27  1  0
  4 28  1  0
  4 29  1  0
  5 30  1  0
  5 31  1  0
  9 32  1  0
  9 33  1  0
 10 34  1  0
 10 35  1  0
 11 36  1  0
 15 37  1  0
 16 38  1  0
 17 39  1  0
 18 40  1  0
 21 41  1  0
 21 42  1  0
M  END
$$$$
