
     RDKit          3D

 44 46  0  0  0  0  0  0  0  0999 V2000
   -3.1748   -1.8846   -0.2444 O   0  0  0  0  0  0  0  0  0  0  0  0
   -3.4539   -0.7204    0.0308 C   0  0  0  0  0  0  0  0  0  0  0  0
   -4.8598   -0.2730    0.0186 C   0  0  0  0  0  0  0  0  0  0  0  0
   -5.8994   -1.1679   -0.2609 C   0  0  0  0  0  0  0  0  0  0  0  0
   -7.2170   -0.7117   -0.2646 C   0  0  0  0  0  0  0  0  0  0  0  0
   -7.4882    0.6291    0.0086 C   0  0  0  0  0  0  0  0  0  0  0  0
   -6.4421    1.5144    0.2850 C   0  0  0  0  0  0  0  0  0  0  0  0
   -5.1176    1.0712    0.2924 C   0  0  0  0  0  0  0  0  0  0  0  0
   -4.0972    1.9924    0.5694 N   0  0  0  0  0  0  0  0  0  0  0  0
   -2.8847    1.5522    0.5850 C   0  0  0  0  0  0  0  0  0  0  0  0
   -2.5137    0.2481    0.3559 N   0  0  0  0  0  0  0  0  0  0  0  0
   -1.1014   -0.1142    0.3675 C   0  0  0  0  0  0  0  0  0  0  0  0
   -0.4690    0.0570   -1.0144 C   0  0  0  0  0  0  0  0  0  0  0  0
    0.9743   -0.4472   -1.0875 C   0  0  0  0  0  0  0  0  0  0  0  0
    1.8532    0.3215   -0.2059 N   0  0  0  0  0  0  0  0  0  0  0  0
    3.2805    0.1206   -0.4986 C   0  0  0  0  0  0  0  0  0  0  0  0
    3.7897   -1.2789   -0.1328 C   0  0  0  0  0  0  0  0  0  0  0  0
    5.2644   -1.4647   -0.5082 C   0  0  0  0  0  0  0  0  0  0  0  0
    6.0535   -0.1573   -0.5740 C   0  0  0  0  0  0  0  0  0  0  0  0
    5.5595    0.8483    0.4547 C   0  0  0  0  0  0  0  0  0  0  0  0
    4.0776    1.1921    0.2730 C   0  0  0  0  0  0  0  0  0  0  0  0
   -5.6834   -2.2122   -0.4740 H   0  0  0  0  0  0  0  0  0  0  0  0
   -8.0308   -1.3998   -0.4804 H   0  0  0  0  0  0  0  0  0  0  0  0
   -8.5144    0.9888    0.0061 H   0  0  0  0  0  0  0  0  0  0  0  0
   -6.6569    2.5591    0.4957 H   0  0  0  0  0  0  0  0  0  0  0  0
   -2.0492    2.2392    0.7961 H   0  0  0  0  0  0  0  0  0  0  0  0
   -0.5900    0.5206    1.1001 H   0  0  0  0  0  0  0  0  0  0  0  0
   -1.0001   -1.1533    0.7015 H   0  0  0  0  0  0  0  0  0  0  0  0
   -1.0619   -0.4916   -1.7574 H   0  0  0  0  0  0  0  0  0  0  0  0
   -0.5109    1.1127   -1.3122 H   0  0  0  0  0  0  0  0  0  0  0  0
    1.0025   -1.5116   -0.8291 H   0  0  0  0  0  0  0  0  0  0  0  0
    1.3055   -0.3496   -2.1284 H   0  0  0  0  0  0  0  0  0  0  0  0
    1.6805    0.0691    0.7669 H   0  0  0  0  0  0  0  0  0  0  0  0
    3.4477    0.2924   -1.5706 H   0  0  0  0  0  0  0  0  0  0  0  0
    3.2061   -2.0634   -0.6271 H   0  0  0  0  0  0  0  0  0  0  0  0
    3.6721   -1.4405    0.9471 H   0  0  0  0  0  0  0  0  0  0  0  0
    5.7284   -2.1424    0.2190 H   0  0  0  0  0  0  0  0  0  0  0  0
    5.3378   -1.9662   -1.4809 H   0  0  0  0  0  0  0  0  0  0  0  0
    5.9596    0.2768   -1.5774 H   0  0  0  0  0  0  0  0  0  0  0  0
    7.1192   -0.3631   -0.4230 H   0  0  0  0  0  0  0  0  0  0  0  0
    5.7100    0.4318    1.4590 H   0  0  0  0  0  0  0  0  0  0  0  0
    6.1584    1.7649    0.4077 H   0  0  0  0  0  0  0  0  0  0  0  0
    3.9882    2.1477   -0.2602 H   0  0  0  0  0  0  0  0  0  0  0  0
    3.6479    1.3636    1.2691 H   0  0  0  0  0  0  0  0  0  0  0  0
  1  2  2  0
  2  3  1  0
  3  4  2  0
  4  5  1  0
  5  6  2  0
  6  7  1  0
  7  8  2  0
  8  9  1  0
  9 10  2  0
 10 11  1  0
 11 12  1  0
 12 13  1  0
 13 14  1  0
 14 15  1  0
 15 16  1  0
 16 17  1  0
 17 18  1  0
 18 19  1  0
 19 20  1  0
 20 21  1  0
 11  2  1  0
 21 16  1  0
  8  3  1  0
  4 22  1  0
  5 23  1  0
  6 24  1  0
  7 25  1  0
 10 26  1  0
 12 27  1  0
 12 28  1  0
 13 29  1  0
 13 30  1  0
 14 31  1  0
 14 32  1  0
 15 33  1  0
 16 34  1  0
 17 35  1  0
 17 36  1  0
 18 37  1  0
 18 38  1  0
 19 39  1  0
 19 40  1  0
 20 41  1  0
 20 42  1  0
 21 43  1  0
 21 44  1  0
M  END
$$$$
