
     RDKit          3D

 43 44  0  0  0  0  0  0  0  0999 V2000
    7.1713   -1.3898    0.3456 C   0  0  0  0  0  0  0  0  0  0  0  0
    5.7946   -1.5565    0.6544 O   0  0  0  0  0  0  0  0  0  0  0  0
    5.1078   -0.3273    0.8865 C   0  0  0  0  0  0  0  0  0  0  0  0
    4.7860    0.4020   -0.4160 C   0  0  0  0  0  0  0  0  0  0  0  0
    3.9635    1.6665   -0.1825 C   0  0  0  0  0  0  0  0  0  0  0  0
    2.6118    1.3860    0.2582 N   0  0  0  0  0  0  0  0  0  0  0  0
    1.6095    1.0670   -0.6348 C   0  0  0  0  0  0  0  0  0  0  0  0
    1.7709    1.0347   -1.8490 O   0  0  0  0  0  0  0  0  0  0  0  0
    0.2916    0.7651    0.0407 C   0  0  0  0  0  0  0  0  0  0  0  0
   -0.7867    0.4420   -0.9868 C   0  0  0  0  0  0  0  0  0  0  0  0
   -2.0627    0.1569   -0.3518 N   0  0  0  0  0  0  0  0  0  0  0  0
   -2.9653    1.1216    0.0068 C   0  0  0  0  0  0  0  0  0  0  0  0
   -2.8792    2.3180   -0.2203 O   0  0  0  0  0  0  0  0  0  0  0  0
   -4.0163    0.4638    0.8702 C   0  0  0  0  0  0  0  0  0  0  0  0
   -5.4053    1.0778    0.7581 C   0  0  0  0  0  0  0  0  0  0  0  0
   -6.3031    0.4235   -0.2429 C   0  0  0  0  0  0  0  0  0  0  0  0
   -6.0082   -0.7143   -0.8808 C   0  0  0  0  0  0  0  0  0  0  0  0
   -4.7439   -1.4841   -0.6752 C   0  0  0  0  0  0  0  0  0  0  0  0
   -3.8828   -1.0150    0.5042 C   0  0  0  0  0  0  0  0  0  0  0  0
   -2.4367   -1.0843    0.0832 C   0  0  0  0  0  0  0  0  0  0  0  0
   -1.7528   -2.0953    0.0948 O   0  0  0  0  0  0  0  0  0  0  0  0
    7.6801   -0.8286    1.1352 H   0  0  0  0  0  0  0  0  0  0  0  0
    7.2990   -0.8890   -0.6174 H   0  0  0  0  0  0  0  0  0  0  0  0
    7.6275   -2.3813    0.2771 H   0  0  0  0  0  0  0  0  0  0  0  0
    4.1773   -0.5883    1.4018 H   0  0  0  0  0  0  0  0  0  0  0  0
    5.6872    0.3061    1.5686 H   0  0  0  0  0  0  0  0  0  0  0  0
    5.7194    0.6830   -0.9166 H   0  0  0  0  0  0  0  0  0  0  0  0
    4.2690   -0.2814   -1.1004 H   0  0  0  0  0  0  0  0  0  0  0  0
    3.9110    2.2419   -1.1136 H   0  0  0  0  0  0  0  0  0  0  0  0
    4.4314    2.3014    0.5772 H   0  0  0  0  0  0  0  0  0  0  0  0
    2.4243    1.3273    1.2512 H   0  0  0  0  0  0  0  0  0  0  0  0
   -0.0030    1.6348    0.6397 H   0  0  0  0  0  0  0  0  0  0  0  0
    0.4330   -0.0819    0.7222 H   0  0  0  0  0  0  0  0  0  0  0  0
   -0.9222    1.2871   -1.6720 H   0  0  0  0  0  0  0  0  0  0  0  0
   -0.4936   -0.4312   -1.5816 H   0  0  0  0  0  0  0  0  0  0  0  0
   -3.6592    0.6119    1.9005 H   0  0  0  0  0  0  0  0  0  0  0  0
   -5.3400    2.1471    0.5267 H   0  0  0  0  0  0  0  0  0  0  0  0
   -5.9030    1.0013    1.7332 H   0  0  0  0  0  0  0  0  0  0  0  0
   -7.2509    0.9178   -0.4488 H   0  0  0  0  0  0  0  0  0  0  0  0
   -6.7163   -1.1161   -1.6035 H   0  0  0  0  0  0  0  0  0  0  0  0
   -5.0021   -2.5383   -0.5121 H   0  0  0  0  0  0  0  0  0  0  0  0
   -4.1824   -1.4612   -1.6184 H   0  0  0  0  0  0  0  0  0  0  0  0
   -4.0504   -1.6395    1.3885 H   0  0  0  0  0  0  0  0  0  0  0  0
  1  2  1  0
  2  3  1  0
  3  4  1  0
  4  5  1  0
  5  6  1  0
  6  7  1  0
  7  8  2  0
  7  9  1  0
  9 10  1  0
 10 11  1  0
 11 12  1  0
 12 13  2  0
 12 14  1  0
 14 15  1  0
 15 16  1  0
 16 17  2  0
 17 18  1  0
 18 19  1  0
 19 20  1  0
 20 21  2  0
 20 11  1  0
 19 14  1  0
  1 22  1  0
  1 23  1  0
  1 24  1  0
  3 25  1  0
  3 26  1  0
  4 27  1  0
  4 28  1  0
  5 29  1  0
  5 30  1  0
  6 31  1  0
  9 32  1  0
  9 33  1  0
 10 34  1  0
 10 35  1  0
 14 36  1  0
 15 37  1  0
 15 38  1  0
 16 39  1  0
 17 40  1  0
 18 41  1  0
 18 42  1  0
 19 43  1  0
M  END
$$$$
