
     RDKit          3D

 49 52  0  0  0  0  0  0  0  0999 V2000
    8.2879   -0.7872    0.6229 C   0  0  0  0  0  0  0  0  0  0  0  0
    7.4664   -0.5733   -0.5173 O   0  0  0  0  0  0  0  0  0  0  0  0
    6.1992   -0.0947   -0.3140 C   0  0  0  0  0  0  0  0  0  0  0  0
    5.6378    0.1301    0.9497 C   0  0  0  0  0  0  0  0  0  0  0  0
    4.3321    0.6147    1.0720 C   0  0  0  0  0  0  0  0  0  0  0  0
    3.5793    0.8731   -0.0748 C   0  0  0  0  0  0  0  0  0  0  0  0
    1.9237    1.4896    0.1047 S   0  0  0  0  0  6  0  0  0  0  0  0
    1.9829    2.5742    1.0606 O   0  0  0  0  0  0  0  0  0  0  0  0
    1.3670    1.6874   -1.2160 O   0  0  0  0  0  0  0  0  0  0  0  0
    1.1236    0.1761    0.8306 N   0  0  0  0  0  0  0  0  0  0  0  0
    0.9742   -1.0684    0.0156 C   0  0  0  0  0  0  0  0  0  0  0  0
   -0.2327   -1.0083   -0.9436 C   0  0  0  0  0  0  0  0  0  0  0  0
   -1.4980   -0.6701   -0.2579 N   0  0  0  0  0  0  0  0  0  0  0  0
   -2.5906   -0.5705   -1.2412 C   0  0  0  0  0  0  0  0  0  0  0  0
   -3.9607   -0.4905   -0.5993 C   0  0  0  0  0  0  0  0  0  0  0  0
   -4.4179   -1.5387    0.2353 C   0  0  0  0  0  0  0  0  0  0  0  0
   -5.6809   -1.4876    0.8328 C   0  0  0  0  0  0  0  0  0  0  0  0
   -6.4637   -0.3834    0.5788 C   0  0  0  0  0  0  0  0  0  0  0  0
   -6.0312    0.6395   -0.2317 C   0  0  0  0  0  0  0  0  0  0  0  0
   -4.7912    0.6175   -0.8351 C   0  0  0  0  0  0  0  0  0  0  0  0
   -6.9534    1.6321   -0.3512 O   0  0  0  0  0  0  0  0  0  0  0  0
   -8.0154    1.1160    0.4778 C   0  0  0  0  0  0  0  0  0  0  0  0
   -7.7119   -0.1633    1.0715 O   0  0  0  0  0  0  0  0  0  0  0  0
   -1.3318    0.5963    0.4915 C   0  0  0  0  0  0  0  0  0  0  0  0
   -0.1702    0.5165    1.4981 C   0  0  0  0  0  0  0  0  0  0  0  0
    4.1188    0.6667   -1.3440 C   0  0  0  0  0  0  0  0  0  0  0  0
    5.4248    0.1788   -1.4574 C   0  0  0  0  0  0  0  0  0  0  0  0
    6.1696   -0.1243   -3.3994 I   0  0  0  0  0  0  0  0  0  0  0  0
    9.2645   -1.1329    0.2706 H   0  0  0  0  0  0  0  0  0  0  0  0
    7.8713   -1.5684    1.2669 H   0  0  0  0  0  0  0  0  0  0  0  0
    8.4449    0.1435    1.1779 H   0  0  0  0  0  0  0  0  0  0  0  0
    6.1903   -0.0619    1.8643 H   0  0  0  0  0  0  0  0  0  0  0  0
    3.9075    0.7892    2.0592 H   0  0  0  0  0  0  0  0  0  0  0  0
    0.8497   -1.9072    0.7126 H   0  0  0  0  0  0  0  0  0  0  0  0
    1.8896   -1.2769   -0.5461 H   0  0  0  0  0  0  0  0  0  0  0  0
   -0.0334   -0.2951   -1.7513 H   0  0  0  0  0  0  0  0  0  0  0  0
   -0.3321   -1.9951   -1.4126 H   0  0  0  0  0  0  0  0  0  0  0  0
   -2.6004   -1.4656   -1.8779 H   0  0  0  0  0  0  0  0  0  0  0  0
   -2.4320    0.2822   -1.9149 H   0  0  0  0  0  0  0  0  0  0  0  0
   -3.7732   -2.3959    0.4225 H   0  0  0  0  0  0  0  0  0  0  0  0
   -6.0319   -2.2870    1.4749 H   0  0  0  0  0  0  0  0  0  0  0  0
   -4.4774    1.4402   -1.4685 H   0  0  0  0  0  0  0  0  0  0  0  0
   -8.9188    1.0127   -0.1343 H   0  0  0  0  0  0  0  0  0  0  0  0
   -8.2151    1.8359    1.2798 H   0  0  0  0  0  0  0  0  0  0  0  0
   -2.2414    0.8162    1.0619 H   0  0  0  0  0  0  0  0  0  0  0  0
   -1.1694    1.4344   -0.1977 H   0  0  0  0  0  0  0  0  0  0  0  0
   -0.3765   -0.2576    2.2485 H   0  0  0  0  0  0  0  0  0  0  0  0
   -0.0824    1.4564    2.0530 H   0  0  0  0  0  0  0  0  0  0  0  0
    3.5286    0.8844   -2.2310 H   0  0  0  0  0  0  0  0  0  0  0  0
  1  2  1  0
  2  3  1  0
  3  4  2  0
  4  5  1  0
  5  6  2  0
  6  7  1  0
  7  8  2  0
  7  9  2  0
  7 10  1  0
 10 11  1  0
 11 12  1  0
 12 13  1  0
 13 14  1  0
 14 15  1  0
 15 16  2  0
 16 17  1  0
 17 18  2  0
 18 19  1  0
 19 20  2  0
 19 21  1  0
 21 22  1  0
 22 23  1  0
 13 24  1  0
 24 25  1  0
  6 26  1  0
 26 27  2  0
 27 28  1  0
 27  3  1  0
 25 10  1  0
 20 15  1  0
 23 18  1  0
  1 29  1  0
  1 30  1  0
  1 31  1  0
  4 32  1  0
  5 33  1  0
 11 34  1  0
 11 35  1  0
 12 36  1  0
 12 37  1  0
 14 38  1  0
 14 39  1  0
 16 40  1  0
 17 41  1  0
 20 42  1  0
 22 43  1  0
 22 44  1  0
 24 45  1  0
 24 46  1  0
 25 47  1  0
 25 48  1  0
 26 49  1  0
M  END
$$$$
