
     RDKit          3D

 55 57  0  0  0  0  0  0  0  0999 V2000
   -5.7992   -1.9288    1.0028 C   0  0  0  0  0  0  0  0  0  0  0  0
   -6.3302   -0.9893   -0.0679 C   0  0  0  0  0  0  0  0  0  0  0  0
   -6.1966    0.4159    0.3974 N   0  0  0  0  0  0  0  0  0  0  0  0
   -7.4054    0.9436    1.0869 C   0  0  0  0  0  0  0  0  0  0  0  0
   -8.5028    1.3869    0.1311 C   0  0  0  0  0  0  0  0  0  0  0  0
   -5.4125    1.5007   -0.6609 S   0  0  0  0  0  6  0  0  0  0  0  0
   -5.3367    2.7980   -0.0218 O   0  0  0  0  0  0  0  0  0  0  0  0
   -6.0015    1.3372   -1.9748 O   0  0  0  0  0  0  0  0  0  0  0  0
   -3.7563    0.8518   -0.7031 C   0  0  0  0  0  0  0  0  0  0  0  0
   -3.2504    0.2919   -1.8802 C   0  0  0  0  0  0  0  0  0  0  0  0
   -1.9471   -0.2092   -1.8924 C   0  0  0  0  0  0  0  0  0  0  0  0
   -1.1490   -0.1304   -0.7404 C   0  0  0  0  0  0  0  0  0  0  0  0
    0.2367   -0.6666   -0.8054 C   0  0  0  0  0  0  0  0  0  0  0  0
    0.4896   -1.6251   -1.5299 O   0  0  0  0  0  0  0  0  0  0  0  0
    1.1794    0.0006   -0.0469 N   0  0  0  0  0  0  0  0  0  0  0  0
    2.5940   -0.3199   -0.1359 C   0  0  0  0  0  0  0  0  0  0  0  0
    3.1621   -0.8060    1.2084 C   0  0  0  0  0  0  0  0  0  0  0  0
    4.5830   -1.1341    1.1073 N   0  0  0  0  0  0  0  0  0  0  0  0
    5.5227   -0.1489    1.0395 C   0  0  0  0  0  0  0  0  0  0  0  0
    5.2926    1.1337    1.3699 N   0  0  0  0  0  0  0  0  0  0  0  0
    6.6640    1.8095    1.0726 S   0  0  0  0  0  6  0  0  0  0  0  0
    6.4394    2.9338   -0.0680 O   0  0  0  0  0  0  0  0  0  0  0  0
    7.1740    2.7047    2.3094 O   0  0  0  0  0  0  0  0  0  0  0  0
    7.7264    0.7050    0.5734 C   0  0  0  0  0  0  0  0  0  0  0  0
    9.0762    0.7007    0.2016 C   0  0  0  0  0  0  0  0  0  0  0  0
    9.6430   -0.5154   -0.1894 C   0  0  0  0  0  0  0  0  0  0  0  0
    8.8896   -1.6855   -0.2009 C   0  0  0  0  0  0  0  0  0  0  0  0
    7.5418   -1.6760    0.1808 C   0  0  0  0  0  0  0  0  0  0  0  0
    6.9250   -0.4629    0.5811 C   0  0  0  0  0  0  0  0  0  0  0  0
   -1.6670    0.4291    0.4373 C   0  0  0  0  0  0  0  0  0  0  0  0
   -2.9723    0.9262    0.4549 C   0  0  0  0  0  0  0  0  0  0  0  0
   -4.7568   -1.6979    1.2474 H   0  0  0  0  0  0  0  0  0  0  0  0
   -6.3859   -1.8550    1.9248 H   0  0  0  0  0  0  0  0  0  0  0  0
   -5.8480   -2.9649    0.6520 H   0  0  0  0  0  0  0  0  0  0  0  0
   -5.7658   -1.1570   -0.9911 H   0  0  0  0  0  0  0  0  0  0  0  0
   -7.3743   -1.2316   -0.2941 H   0  0  0  0  0  0  0  0  0  0  0  0
   -7.7980    0.1710    1.7588 H   0  0  0  0  0  0  0  0  0  0  0  0
   -7.1104    1.7790    1.7336 H   0  0  0  0  0  0  0  0  0  0  0  0
   -9.4085    1.6394    0.6937 H   0  0  0  0  0  0  0  0  0  0  0  0
   -8.2088    2.2793   -0.4297 H   0  0  0  0  0  0  0  0  0  0  0  0
   -8.7585    0.6044   -0.5902 H   0  0  0  0  0  0  0  0  0  0  0  0
   -3.8558    0.2411   -2.7838 H   0  0  0  0  0  0  0  0  0  0  0  0
   -1.5478   -0.6520   -2.8046 H   0  0  0  0  0  0  0  0  0  0  0  0
    0.9347    0.8926    0.3672 H   0  0  0  0  0  0  0  0  0  0  0  0
    2.7674   -1.0819   -0.9097 H   0  0  0  0  0  0  0  0  0  0  0  0
    3.1009    0.5977   -0.4677 H   0  0  0  0  0  0  0  0  0  0  0  0
    2.9873   -0.0575    1.9927 H   0  0  0  0  0  0  0  0  0  0  0  0
    2.6236   -1.7081    1.5270 H   0  0  0  0  0  0  0  0  0  0  0  0
    4.7603   -2.0384    0.6732 H   0  0  0  0  0  0  0  0  0  0  0  0
    9.6613    1.6156    0.2154 H   0  0  0  0  0  0  0  0  0  0  0  0
   10.6899   -0.5468   -0.4863 H   0  0  0  0  0  0  0  0  0  0  0  0
    9.3545   -2.6224   -0.5057 H   0  0  0  0  0  0  0  0  0  0  0  0
    6.9802   -2.6063    0.1767 H   0  0  0  0  0  0  0  0  0  0  0  0
   -1.0767    0.4642    1.3502 H   0  0  0  0  0  0  0  0  0  0  0  0
   -3.3775    1.3641    1.3665 H   0  0  0  0  0  0  0  0  0  0  0  0
  1  2  1  0
  2  3  1  0
  3  4  1  0
  4  5  1  0
  3  6  1  0
  6  7  2  0
  6  8  2  0
  6  9  1  0
  9 10  2  0
 10 11  1  0
 11 12  2  0
 12 13  1  0
 13 14  2  0
 13 15  1  0
 15 16  1  0
 16 17  1  0
 17 18  1  0
 18 19  1  0
 19 20  2  0
 20 21  1  0
 21 22  2  0
 21 23  2  0
 21 24  1  0
 24 25  2  0
 25 26  1  0
 26 27  2  0
 27 28  1  0
 28 29  2  0
 12 30  1  0
 30 31  2  0
 31  9  1  0
 29 19  1  0
 29 24  1  0
  1 32  1  0
  1 33  1  0
  1 34  1  0
  2 35  1  0
  2 36  1  0
  4 37  1  0
  4 38  1  0
  5 39  1  0
  5 40  1  0
  5 41  1  0
 10 42  1  0
 11 43  1  0
 15 44  1  0
 16 45  1  0
 16 46  1  0
 17 47  1  0
 17 48  1  0
 18 49  1  0
 25 50  1  0
 26 51  1  0
 27 52  1  0
 28 53  1  0
 30 54  1  0
 31 55  1  0
M  END
$$$$
