
     RDKit          3D

 39 40  0  0  0  0  0  0  0  0999 V2000
   -3.2312    0.9317   -0.9765 C   0  0  0  0  0  0  0  0  0  0  0  0
   -3.5051    0.1633    0.2828 C   0  0  0  0  0  0  0  0  0  0  0  0
   -4.4833    0.6145    1.1786 C   0  0  0  0  0  0  0  0  0  0  0  0
   -4.7421   -0.0813    2.3609 C   0  0  0  0  0  0  0  0  0  0  0  0
   -4.0302   -1.2399    2.6604 C   0  0  0  0  0  0  0  0  0  0  0  0
   -3.0450   -1.6913    1.7857 C   0  0  0  0  0  0  0  0  0  0  0  0
   -2.7683   -0.9769    0.6183 C   0  0  0  0  0  0  0  0  0  0  0  0
   -1.8062   -1.4402   -0.2390 O   0  0  0  0  0  0  0  0  0  0  0  0
   -0.4878   -1.1519    0.2386 C   0  0  0  0  0  0  0  0  0  0  0  0
    0.2891   -2.4637    0.2805 C   0  0  0  0  0  0  0  0  0  0  0  0
    0.2401   -0.1642   -0.6947 C   0  0  0  0  0  0  0  0  0  0  0  0
   -0.1369    0.1054   -1.8324 O   0  0  0  0  0  0  0  0  0  0  0  0
    1.3724    0.4044   -0.1339 N   0  0  0  0  0  0  0  0  0  0  0  0
    2.2329    1.2880   -0.9049 C   0  0  0  0  0  0  0  0  0  0  0  0
    3.2294    0.5039   -1.7562 C   0  0  0  0  0  0  0  0  0  0  0  0
    4.4282    0.2352   -0.8464 C   0  0  0  0  0  0  0  0  0  0  0  0
    4.2735    1.1634    0.3598 C   0  0  0  0  0  0  0  0  0  0  0  0
    3.1397    2.1157    0.0011 C   0  0  0  0  0  0  0  0  0  0  0  0
   -4.0699    1.5858   -1.2300 H   0  0  0  0  0  0  0  0  0  0  0  0
   -2.3389    1.5533   -0.8477 H   0  0  0  0  0  0  0  0  0  0  0  0
   -3.0855    0.2561   -1.8255 H   0  0  0  0  0  0  0  0  0  0  0  0
   -5.0582    1.5100    0.9549 H   0  0  0  0  0  0  0  0  0  0  0  0
   -5.5106    0.2740    3.0410 H   0  0  0  0  0  0  0  0  0  0  0  0
   -4.2456   -1.7918    3.5720 H   0  0  0  0  0  0  0  0  0  0  0  0
   -2.5015   -2.6032    2.0109 H   0  0  0  0  0  0  0  0  0  0  0  0
   -0.4987   -0.7093    1.2451 H   0  0  0  0  0  0  0  0  0  0  0  0
    0.3506   -2.9117   -0.7181 H   0  0  0  0  0  0  0  0  0  0  0  0
    1.3086   -2.3206    0.6519 H   0  0  0  0  0  0  0  0  0  0  0  0
   -0.2160   -3.1909    0.9235 H   0  0  0  0  0  0  0  0  0  0  0  0
    1.7206    0.0329    0.7408 H   0  0  0  0  0  0  0  0  0  0  0  0
    1.6009    1.9287   -1.5294 H   0  0  0  0  0  0  0  0  0  0  0  0
    3.5574    1.1274   -2.5964 H   0  0  0  0  0  0  0  0  0  0  0  0
    2.8195   -0.4226   -2.1704 H   0  0  0  0  0  0  0  0  0  0  0  0
    4.4517   -0.8122   -0.5254 H   0  0  0  0  0  0  0  0  0  0  0  0
    5.3620    0.4337   -1.3797 H   0  0  0  0  0  0  0  0  0  0  0  0
    5.1999    1.7011    0.5873 H   0  0  0  0  0  0  0  0  0  0  0  0
    4.0089    0.5740    1.2486 H   0  0  0  0  0  0  0  0  0  0  0  0
    3.5442    2.9682   -0.5587 H   0  0  0  0  0  0  0  0  0  0  0  0
    2.6314    2.5008    0.8888 H   0  0  0  0  0  0  0  0  0  0  0  0
  1  2  1  0
  2  3  2  0
  3  4  1  0
  4  5  2  0
  5  6  1  0
  6  7  2  0
  7  8  1  0
  8  9  1  0
  9 10  1  0
  9 11  1  0
 11 12  2  0
 11 13  1  0
 13 14  1  0
 14 15  1  0
 15 16  1  0
 16 17  1  0
 17 18  1  0
  7  2  1  0
 18 14  1  0
  1 19  1  0
  1 20  1  0
  1 21  1  0
  3 22  1  0
  4 23  1  0
  5 24  1  0
  6 25  1  0
  9 26  1  0
 10 27  1  0
 10 28  1  0
 10 29  1  0
 13 30  1  0
 14 31  1  0
 15 32  1  0
 15 33  1  0
 16 34  1  0
 16 35  1  0
 17 36  1  0
 17 37  1  0
 18 38  1  0
 18 39  1  0
M  END
$$$$
