
     RDKit          3D

 43 44  0  0  0  0  0  0  0  0999 V2000
   -5.7623    0.0063    0.6848 N   0  0  0  0  0  0  0  0  0  0  0  0
   -5.3378    0.0678   -0.6100 C   0  0  0  0  0  0  0  0  0  0  0  0
   -6.1352   -0.1234   -1.5221 O   0  0  0  0  0  0  0  0  0  0  0  0
   -3.8581    0.3221   -0.8449 C   0  0  0  0  0  0  0  0  0  0  0  0
   -3.3603    1.5993   -0.1463 C   0  0  0  0  0  0  0  0  0  0  0  0
   -2.4211    1.2836    1.0153 C   0  0  0  0  0  0  0  0  0  0  0  0
   -1.2241    0.4463    0.5630 C   0  0  0  0  0  0  0  0  0  0  0  0
   -1.6035   -0.6284   -0.3990 N   0  0  0  0  0  0  0  0  0  0  0  0
   -0.8191   -0.6380   -1.9114 S   0  0  0  0  0  6  0  0  0  0  0  0
   -0.5939    0.7331   -2.3141 O   0  0  0  0  0  0  0  0  0  0  0  0
   -1.5378   -1.5505   -2.7763 O   0  0  0  0  0  0  0  0  0  0  0  0
    0.7495   -1.4225   -1.5522 C   0  0  0  0  0  0  0  0  0  0  0  0
    1.6826   -0.6079   -0.6722 C   0  0  0  0  0  0  0  0  0  0  0  0
    3.0752   -1.2389   -0.6194 C   0  0  0  0  0  0  0  0  0  0  0  0
    3.9904   -0.4759    0.3047 C   0  0  0  0  0  0  0  0  0  0  0  0
    4.1574   -0.8816    1.6355 C   0  0  0  0  0  0  0  0  0  0  0  0
    4.9903   -0.1625    2.4943 C   0  0  0  0  0  0  0  0  0  0  0  0
    5.6593    0.9695    2.0329 C   0  0  0  0  0  0  0  0  0  0  0  0
    5.4956    1.3845    0.7127 C   0  0  0  0  0  0  0  0  0  0  0  0
    4.6637    0.6667   -0.1478 C   0  0  0  0  0  0  0  0  0  0  0  0
   -3.0660   -0.9166   -0.4271 C   0  0  0  0  0  0  0  0  0  0  0  0
   -6.7649   -0.0816    0.8058 H   0  0  0  0  0  0  0  0  0  0  0  0
   -5.2507    0.4408    1.4391 H   0  0  0  0  0  0  0  0  0  0  0  0
   -3.7435    0.4760   -1.9266 H   0  0  0  0  0  0  0  0  0  0  0  0
   -4.1913    2.2230    0.2027 H   0  0  0  0  0  0  0  0  0  0  0  0
   -2.8118    2.2085   -0.8767 H   0  0  0  0  0  0  0  0  0  0  0  0
   -2.9707    0.7487    1.7993 H   0  0  0  0  0  0  0  0  0  0  0  0
   -2.0637    2.2135    1.4725 H   0  0  0  0  0  0  0  0  0  0  0  0
   -0.4757    1.1176    0.1309 H   0  0  0  0  0  0  0  0  0  0  0  0
   -0.7590   -0.0237    1.4366 H   0  0  0  0  0  0  0  0  0  0  0  0
    1.2132   -1.5984   -2.5300 H   0  0  0  0  0  0  0  0  0  0  0  0
    0.5315   -2.3999   -1.1089 H   0  0  0  0  0  0  0  0  0  0  0  0
    1.7556    0.4208   -1.0447 H   0  0  0  0  0  0  0  0  0  0  0  0
    1.2782   -0.5481    0.3431 H   0  0  0  0  0  0  0  0  0  0  0  0
    3.0049   -2.2825   -0.2873 H   0  0  0  0  0  0  0  0  0  0  0  0
    3.5182   -1.2697   -1.6229 H   0  0  0  0  0  0  0  0  0  0  0  0
    3.6415   -1.7618    2.0120 H   0  0  0  0  0  0  0  0  0  0  0  0
    5.1182   -0.4862    3.5240 H   0  0  0  0  0  0  0  0  0  0  0  0
    6.3085    1.5284    2.7017 H   0  0  0  0  0  0  0  0  0  0  0  0
    6.0161    2.2680    0.3524 H   0  0  0  0  0  0  0  0  0  0  0  0
    4.5439    1.0051   -1.1748 H   0  0  0  0  0  0  0  0  0  0  0  0
   -3.3549   -1.2663    0.5732 H   0  0  0  0  0  0  0  0  0  0  0  0
   -3.2890   -1.7653   -1.0832 H   0  0  0  0  0  0  0  0  0  0  0  0
  1  2  1  0
  2  3  2  0
  2  4  1  0
  4  5  1  0
  5  6  1  0
  6  7  1  0
  7  8  1  0
  8  9  1  0
  9 10  2  0
  9 11  2  0
  9 12  1  0
 12 13  1  0
 13 14  1  0
 14 15  1  0
 15 16  2  0
 16 17  1  0
 17 18  2  0
 18 19  1  0
 19 20  2  0
  8 21  1  0
 21  4  1  0
 20 15  1  0
  1 22  1  0
  1 23  1  0
  4 24  1  0
  5 25  1  0
  5 26  1  0
  6 27  1  0
  6 28  1  0
  7 29  1  0
  7 30  1  0
 12 31  1  0
 12 32  1  0
 13 33  1  0
 13 34  1  0
 14 35  1  0
 14 36  1  0
 16 37  1  0
 17 38  1  0
 18 39  1  0
 19 40  1  0
 20 41  1  0
 21 42  1  0
 21 43  1  0
M  END
$$$$
