
     RDKit          3D

 38 39  0  0  0  0  0  0  0  0999 V2000
    3.7506    0.0429    3.8292 C   0  0  0  0  0  0  0  0  0  0  0  0
    3.5818   -1.2015    3.1498 O   0  0  0  0  0  0  0  0  0  0  0  0
    2.4038   -1.1965    2.4449 C   0  0  0  0  0  0  0  0  0  0  0  0
    1.3279   -1.8900    2.9975 C   0  0  0  0  0  0  0  0  0  0  0  0
    0.1158   -1.9424    2.3124 C   0  0  0  0  0  0  0  0  0  0  0  0
   -0.0327   -1.2963    1.0799 C   0  0  0  0  0  0  0  0  0  0  0  0
   -1.2694   -1.4368    0.3967 N   0  0  0  0  0  0  0  0  0  0  0  0
   -1.7572   -0.5751   -0.6048 C   0  0  0  0  0  0  0  0  0  0  0  0
   -2.0315   -1.1888   -1.7807 N   0  0  0  0  0  0  0  0  0  0  0  0
   -2.5027   -0.4446   -2.8069 C   0  0  0  0  0  0  0  0  0  0  0  0
   -2.7815   -1.1533   -4.0990 C   0  0  0  0  0  0  0  0  0  0  0  0
   -2.7173    0.9238   -2.6997 C   0  0  0  0  0  0  0  0  0  0  0  0
   -2.4528    1.5636   -1.4843 C   0  0  0  0  0  0  0  0  0  0  0  0
   -2.7098    3.0406   -1.3526 C   0  0  0  0  0  0  0  0  0  0  0  0
   -1.9711    0.7945   -0.4075 C   0  0  0  0  0  0  0  0  0  0  0  0
   -1.7410    1.4022    0.8713 C   0  0  0  0  0  0  0  0  0  0  0  0
   -1.5711    1.9508    1.8810 N   0  0  0  0  0  0  0  0  0  0  0  0
    1.0781   -0.6535    0.5064 C   0  0  0  0  0  0  0  0  0  0  0  0
    2.3032   -0.5957    1.1814 C   0  0  0  0  0  0  0  0  0  0  0  0
    3.4387    0.0020    0.6995 O   0  0  0  0  0  0  0  0  0  0  0  0
    3.3998    0.5083   -0.6284 C   0  0  0  0  0  0  0  0  0  0  0  0
    2.9231    0.2284    4.5240 H   0  0  0  0  0  0  0  0  0  0  0  0
    3.8535    0.8790    3.1291 H   0  0  0  0  0  0  0  0  0  0  0  0
    4.6739   -0.0198    4.4137 H   0  0  0  0  0  0  0  0  0  0  0  0
    1.4348   -2.3836    3.9589 H   0  0  0  0  0  0  0  0  0  0  0  0
   -0.7214   -2.4788    2.7508 H   0  0  0  0  0  0  0  0  0  0  0  0
   -1.2735   -2.3560   -0.0522 H   0  0  0  0  0  0  0  0  0  0  0  0
   -2.6322   -2.2330   -3.9908 H   0  0  0  0  0  0  0  0  0  0  0  0
   -2.1053   -0.7913   -4.8796 H   0  0  0  0  0  0  0  0  0  0  0  0
   -3.8173   -0.9836   -4.4102 H   0  0  0  0  0  0  0  0  0  0  0  0
   -3.0966    1.4813   -3.5522 H   0  0  0  0  0  0  0  0  0  0  0  0
   -3.5103    3.2245   -0.6291 H   0  0  0  0  0  0  0  0  0  0  0  0
   -1.8005    3.5613   -1.0353 H   0  0  0  0  0  0  0  0  0  0  0  0
   -3.0186    3.4792   -2.3075 H   0  0  0  0  0  0  0  0  0  0  0  0
    0.9724   -0.2112   -0.4774 H   0  0  0  0  0  0  0  0  0  0  0  0
    2.6918    1.3398   -0.7107 H   0  0  0  0  0  0  0  0  0  0  0  0
    3.1685   -0.2841   -1.3485 H   0  0  0  0  0  0  0  0  0  0  0  0
    4.3959    0.8939   -0.8689 H   0  0  0  0  0  0  0  0  0  0  0  0
  1  2  1  0
  2  3  1  0
  3  4  2  0
  4  5  1  0
  5  6  2  0
  6  7  1  0
  7  8  1  0
  8  9  2  0
  9 10  1  0
 10 11  1  0
 10 12  2  0
 12 13  1  0
 13 14  1  0
 13 15  2  0
 15 16  1  0
 16 17  3  0
  6 18  1  0
 18 19  2  0
 19 20  1  0
 20 21  1  0
 19  3  1  0
 15  8  1  0
  1 22  1  0
  1 23  1  0
  1 24  1  0
  4 25  1  0
  5 26  1  0
  7 27  1  0
 11 28  1  0
 11 29  1  0
 11 30  1  0
 12 31  1  0
 14 32  1  0
 14 33  1  0
 14 34  1  0
 18 35  1  0
 21 36  1  0
 21 37  1  0
 21 38  1  0
M  END
$$$$
