
     RDKit          3D

 52 54  0  0  0  0  0  0  0  0999 V2000
    8.6844   -0.8926   -1.1020 C   0  0  0  0  0  0  0  0  0  0  0  0
    7.5154    0.0850   -1.0015 C   0  0  0  0  0  0  0  0  0  0  0  0
    7.7284    1.2522   -1.9608 C   0  0  0  0  0  0  0  0  0  0  0  0
    6.3392   -0.6408   -1.3719 O   0  0  0  0  0  0  0  0  0  0  0  0
    5.1366   -0.2837   -0.8333 C   0  0  0  0  0  0  0  0  0  0  0  0
    4.8734    0.8466   -0.0651 C   0  0  0  0  0  0  0  0  0  0  0  0
    3.5792    1.0845    0.4178 C   0  0  0  0  0  0  0  0  0  0  0  0
    2.5297    0.2005    0.1380 C   0  0  0  0  0  0  0  0  0  0  0  0
    1.2617    0.5195    0.6684 N   0  0  0  0  0  0  0  0  0  0  0  0
    0.0834   -0.1875    0.5231 C   0  0  0  0  0  0  0  0  0  0  0  0
   -0.0622   -1.2272   -0.1117 O   0  0  0  0  0  0  0  0  0  0  0  0
   -1.1247    0.3742    1.2012 C   0  0  0  0  0  0  0  0  0  0  0  0
   -2.3035   -0.3909    1.1955 C   0  0  0  0  0  0  0  0  0  0  0  0
   -3.4656    0.1077    1.7949 C   0  0  0  0  0  0  0  0  0  0  0  0
   -4.9409   -0.8862    1.7800 S   0  0  0  0  0  6  0  0  0  0  0  0
   -4.5375   -2.2304    2.1374 O   0  0  0  0  0  0  0  0  0  0  0  0
   -5.9482   -0.1811    2.5476 O   0  0  0  0  0  0  0  0  0  0  0  0
   -5.4582   -0.8964    0.0836 C   0  0  0  0  0  0  0  0  0  0  0  0
   -6.7302   -1.7289   -0.1130 C   0  0  0  0  0  0  0  0  0  0  0  0
   -7.1698   -1.4897   -1.5502 C   0  0  0  0  0  0  0  0  0  0  0  0
   -6.7768    0.2210   -1.8785 S   0  0  0  0  0  6  0  0  0  0  0  0
   -5.9036    0.2802   -3.0311 O   0  0  0  0  0  0  0  0  0  0  0  0
   -7.9809    1.0148   -1.7701 O   0  0  0  0  0  0  0  0  0  0  0  0
   -5.7871    0.4977   -0.4265 C   0  0  0  0  0  0  0  0  0  0  0  0
   -3.4680    1.3544    2.4245 C   0  0  0  0  0  0  0  0  0  0  0  0
   -2.2981    2.1132    2.4365 C   0  0  0  0  0  0  0  0  0  0  0  0
   -1.1411    1.6240    1.8275 C   0  0  0  0  0  0  0  0  0  0  0  0
   -0.0419    2.3925    1.8648 F   0  0  0  0  0  0  0  0  0  0  0  0
    2.7961   -0.9256   -0.6373 C   0  0  0  0  0  0  0  0  0  0  0  0
    4.0895   -1.1611   -1.1195 C   0  0  0  0  0  0  0  0  0  0  0  0
    8.5284   -1.7419   -0.4276 H   0  0  0  0  0  0  0  0  0  0  0  0
    9.6309   -0.4099   -0.8403 H   0  0  0  0  0  0  0  0  0  0  0  0
    8.7678   -1.3065   -2.1134 H   0  0  0  0  0  0  0  0  0  0  0  0
    7.4711    0.4306    0.0376 H   0  0  0  0  0  0  0  0  0  0  0  0
    6.8926    1.9577   -1.9198 H   0  0  0  0  0  0  0  0  0  0  0  0
    7.7870    0.9008   -2.9970 H   0  0  0  0  0  0  0  0  0  0  0  0
    8.6483    1.7953   -1.7234 H   0  0  0  0  0  0  0  0  0  0  0  0
    5.6434    1.5719    0.1720 H   0  0  0  0  0  0  0  0  0  0  0  0
    3.4080    1.9771    1.0146 H   0  0  0  0  0  0  0  0  0  0  0  0
    1.2256    1.3744    1.2134 H   0  0  0  0  0  0  0  0  0  0  0  0
   -2.3045   -1.3792    0.7356 H   0  0  0  0  0  0  0  0  0  0  0  0
   -4.6463   -1.3396   -0.5059 H   0  0  0  0  0  0  0  0  0  0  0  0
   -7.5166   -1.3948    0.5754 H   0  0  0  0  0  0  0  0  0  0  0  0
   -6.5610   -2.7932    0.0796 H   0  0  0  0  0  0  0  0  0  0  0  0
   -6.5927   -2.1059   -2.2455 H   0  0  0  0  0  0  0  0  0  0  0  0
   -8.2384   -1.6601   -1.6957 H   0  0  0  0  0  0  0  0  0  0  0  0
   -6.3900    1.0757    0.2800 H   0  0  0  0  0  0  0  0  0  0  0  0
   -4.8964    1.0695   -0.6972 H   0  0  0  0  0  0  0  0  0  0  0  0
   -4.3621    1.7379    2.9137 H   0  0  0  0  0  0  0  0  0  0  0  0
   -2.2770    3.0853    2.9228 H   0  0  0  0  0  0  0  0  0  0  0  0
    2.0248   -1.6456   -0.8895 H   0  0  0  0  0  0  0  0  0  0  0  0
    4.2785   -2.0452   -1.7244 H   0  0  0  0  0  0  0  0  0  0  0  0
  1  2  1  0
  2  3  1  0
  2  4  1  0
  4  5  1  0
  5  6  2  0
  6  7  1  0
  7  8  2  0
  8  9  1  0
  9 10  1  0
 10 11  2  0
 10 12  1  0
 12 13  2  0
 13 14  1  0
 14 15  1  0
 15 16  2  0
 15 17  2  0
 15 18  1  0
 18 19  1  0
 19 20  1  0
 20 21  1  0
 21 22  2  0
 21 23  2  0
 21 24  1  0
 14 25  2  0
 25 26  1  0
 26 27  2  0
 27 28  1  0
  8 29  1  0
 29 30  2  0
 30  5  1  0
 27 12  1  0
 24 18  1  0
  1 31  1  0
  1 32  1  0
  1 33  1  0
  2 34  1  0
  3 35  1  0
  3 36  1  0
  3 37  1  0
  6 38  1  0
  7 39  1  0
  9 40  1  0
 13 41  1  0
 18 42  1  0
 19 43  1  0
 19 44  1  0
 20 45  1  0
 20 46  1  0
 24 47  1  0
 24 48  1  0
 25 49  1  0
 26 50  1  0
 29 51  1  0
 30 52  1  0
M  END
$$$$
