
     RDKit          3D

 42 45  0  0  0  0  0  0  0  0999 V2000
   -0.2329    2.1150   -2.6215 C   0  0  0  0  0  0  0  0  0  0  0  0
   -0.7113    1.2528   -1.4982 C   0  0  0  0  0  0  0  0  0  0  0  0
    0.0110    0.6446   -0.5418 C   0  0  0  0  0  0  0  0  0  0  0  0
    1.3312    0.6251   -0.1853 N   0  0  0  0  0  0  0  0  0  0  0  0
    2.3598    1.4520   -0.5729 C   0  0  0  0  0  0  0  0  0  0  0  0
    2.2550    2.4184   -1.3181 O   0  0  0  0  0  0  0  0  0  0  0  0
    3.6476    1.1167    0.0130 C   0  0  0  0  0  0  0  0  0  0  0  0
    4.8813    1.7617   -0.2114 C   0  0  0  0  0  0  0  0  0  0  0  0
    5.8919    1.2224    0.4727 N   0  0  0  0  0  0  0  0  0  0  0  0
    5.3250    0.2073    1.1643 N   0  0  0  0  0  0  0  0  0  0  0  0
    5.9495   -0.6739    2.0373 C   0  0  0  0  0  0  0  0  0  0  0  0
    5.2415   -1.6304    2.6508 C   0  0  0  0  0  0  0  0  0  0  0  0
    5.9306   -2.8708    3.8343 Br  0  0  0  0  0  0  0  0  0  0  0  0
    3.7837   -1.6537    2.3196 C   0  0  0  0  0  0  0  0  0  0  0  0
    3.1678   -0.8436    1.5063 N   0  0  0  0  0  0  0  0  0  0  0  0
    3.9521    0.1106    0.9106 C   0  0  0  0  0  0  0  0  0  0  0  0
   -0.9655   -0.1943    0.2287 C   0  0  0  0  0  0  0  0  0  0  0  0
   -0.6176   -0.9305    1.1413 O   0  0  0  0  0  0  0  0  0  0  0  0
   -2.2187    0.0152   -0.3516 N   0  0  0  0  0  0  0  0  0  0  0  0
   -3.3218   -0.8750   -0.2844 C   0  0  0  0  0  0  0  0  0  0  0  0
   -3.4949   -1.7232    0.8180 C   0  0  0  0  0  0  0  0  0  0  0  0
   -4.5834   -2.5993    0.8903 C   0  0  0  0  0  0  0  0  0  0  0  0
   -5.5144   -2.6448   -0.1429 C   0  0  0  0  0  0  0  0  0  0  0  0
   -5.3558   -1.8172   -1.2500 C   0  0  0  0  0  0  0  0  0  0  0  0
   -4.2679   -0.9410   -1.3193 C   0  0  0  0  0  0  0  0  0  0  0  0
   -2.0886    0.9641   -1.4065 N   0  0  0  0  0  0  0  0  0  0  0  0
   -3.0055    2.1130   -1.2706 C   0  0  0  0  0  0  0  0  0  0  0  0
   -0.1190    3.1525   -2.2944 H   0  0  0  0  0  0  0  0  0  0  0  0
   -0.9481    2.1017   -3.4519 H   0  0  0  0  0  0  0  0  0  0  0  0
    0.7093    1.7473   -3.0371 H   0  0  0  0  0  0  0  0  0  0  0  0
    1.5540   -0.0571    0.5451 H   0  0  0  0  0  0  0  0  0  0  0  0
    5.0757    2.6113   -0.8558 H   0  0  0  0  0  0  0  0  0  0  0  0
    7.0124   -0.5274    2.1740 H   0  0  0  0  0  0  0  0  0  0  0  0
    3.1905   -2.4375    2.8211 H   0  0  0  0  0  0  0  0  0  0  0  0
   -2.7980   -1.7084    1.6520 H   0  0  0  0  0  0  0  0  0  0  0  0
   -4.6991   -3.2450    1.7572 H   0  0  0  0  0  0  0  0  0  0  0  0
   -6.3575   -3.3283   -0.0878 H   0  0  0  0  0  0  0  0  0  0  0  0
   -6.0717   -1.8577   -2.0669 H   0  0  0  0  0  0  0  0  0  0  0  0
   -4.1545   -0.3344   -2.2135 H   0  0  0  0  0  0  0  0  0  0  0  0
   -2.7449    2.7173   -0.3938 H   0  0  0  0  0  0  0  0  0  0  0  0
   -2.9523    2.7495   -2.1600 H   0  0  0  0  0  0  0  0  0  0  0  0
   -4.0465    1.7951   -1.1654 H   0  0  0  0  0  0  0  0  0  0  0  0
  1  2  1  0
  2  3  2  0
  3  4  1  0
  4  5  1  0
  5  6  2  0
  5  7  1  0
  7  8  1  0
  8  9  2  0
  9 10  1  0
 10 11  1  0
 11 12  2  0
 12 13  1  0
 12 14  1  0
 14 15  2  0
 15 16  1  0
  3 17  1  0
 17 18  2  0
 17 19  1  0
 19 20  1  0
 20 21  2  0
 21 22  1  0
 22 23  2  0
 23 24  1  0
 24 25  2  0
 19 26  1  0
 26 27  1  0
 26  2  1  0
 16  7  2  0
 25 20  1  0
 16 10  1  0
  1 28  1  0
  1 29  1  0
  1 30  1  0
  4 31  1  0
  8 32  1  0
 11 33  1  0
 14 34  1  0
 21 35  1  0
 22 36  1  0
 23 37  1  0
 24 38  1  0
 25 39  1  0
 27 40  1  0
 27 41  1  0
 27 42  1  0
M  END
$$$$
