
     RDKit          3D

 35 36  0  0  0  0  0  0  0  0999 V2000
   -1.9109    2.6229   -1.5337 C   0  0  0  0  0  0  0  0  0  0  0  0
   -2.6424    1.5103   -0.8828 C   0  0  0  0  0  0  0  0  0  0  0  0
   -3.5572    1.7739    0.0565 N   0  0  0  0  0  0  0  0  0  0  0  0
   -4.0403    0.5489    0.4687 O   0  0  0  0  0  0  0  0  0  0  0  0
   -3.4176   -0.4411   -0.2215 C   0  0  0  0  0  0  0  0  0  0  0  0
   -3.8142   -1.8219    0.1136 C   0  0  0  0  0  0  0  0  0  0  0  0
   -2.5062    0.1104   -1.0978 C   0  0  0  0  0  0  0  0  0  0  0  0
   -1.5934   -0.5993   -2.0339 C   0  0  0  0  0  0  0  0  0  0  0  0
   -0.5156   -1.3608   -1.2825 C   0  0  0  0  0  0  0  0  0  0  0  0
   -0.5835   -2.5702   -1.0815 O   0  0  0  0  0  0  0  0  0  0  0  0
    0.5339   -0.5778   -0.8529 N   0  0  0  0  0  0  0  0  0  0  0  0
    1.5383   -1.1103    0.0514 C   0  0  0  0  0  0  0  0  0  0  0  0
    2.7501   -0.1731    0.1263 C   0  0  0  0  0  0  0  0  0  0  0  0
    3.7775   -0.6189    1.1559 C   0  0  0  0  0  0  0  0  0  0  0  0
    3.3600    0.1387    2.3922 C   0  0  0  0  0  0  0  0  0  0  0  0
    2.8834    1.4489    1.8079 C   0  0  0  0  0  0  0  0  0  0  0  0
    2.2923    1.1373    0.5384 O   0  0  0  0  0  0  0  0  0  0  0  0
   -0.8644    2.6263   -1.2094 H   0  0  0  0  0  0  0  0  0  0  0  0
   -1.9361    2.5156   -2.6233 H   0  0  0  0  0  0  0  0  0  0  0  0
   -2.3475    3.5958   -1.2831 H   0  0  0  0  0  0  0  0  0  0  0  0
   -4.7809   -1.8430    0.6261 H   0  0  0  0  0  0  0  0  0  0  0  0
   -3.9017   -2.4312   -0.7907 H   0  0  0  0  0  0  0  0  0  0  0  0
   -3.0700   -2.2839    0.7691 H   0  0  0  0  0  0  0  0  0  0  0  0
   -2.1565   -1.3129   -2.6469 H   0  0  0  0  0  0  0  0  0  0  0  0
   -1.1145    0.1016   -2.7279 H   0  0  0  0  0  0  0  0  0  0  0  0
    0.3731    0.4203   -0.7628 H   0  0  0  0  0  0  0  0  0  0  0  0
    1.0521   -1.2030    1.0291 H   0  0  0  0  0  0  0  0  0  0  0  0
    1.8342   -2.1113   -0.2813 H   0  0  0  0  0  0  0  0  0  0  0  0
    3.2022   -0.0769   -0.8674 H   0  0  0  0  0  0  0  0  0  0  0  0
    3.8194   -1.7025    1.2995 H   0  0  0  0  0  0  0  0  0  0  0  0
    4.7747   -0.2841    0.8448 H   0  0  0  0  0  0  0  0  0  0  0  0
    2.5276   -0.3791    2.8820 H   0  0  0  0  0  0  0  0  0  0  0  0
    4.1623    0.2638    3.1233 H   0  0  0  0  0  0  0  0  0  0  0  0
    2.1504    1.9551    2.4427 H   0  0  0  0  0  0  0  0  0  0  0  0
    3.7213    2.1313    1.6281 H   0  0  0  0  0  0  0  0  0  0  0  0
  1  2  1  0
  2  3  2  0
  3  4  1  0
  4  5  1  0
  5  6  1  0
  5  7  2  0
  7  8  1  0
  8  9  1  0
  9 10  2  0
  9 11  1  0
 11 12  1  0
 12 13  1  0
 13 14  1  0
 14 15  1  0
 15 16  1  0
 16 17  1  0
  7  2  1  0
 17 13  1  0
  1 18  1  0
  1 19  1  0
  1 20  1  0
  6 21  1  0
  6 22  1  0
  6 23  1  0
  8 24  1  0
  8 25  1  0
 11 26  1  0
 12 27  1  0
 12 28  1  0
 13 29  1  0
 14 30  1  0
 14 31  1  0
 15 32  1  0
 15 33  1  0
 16 34  1  0
 16 35  1  0
M  END
$$$$
