
     RDKit          3D

 39 41  0  0  0  0  0  0  0  0999 V2000
    0.1587    1.3458   -2.2656 C   0  0  0  0  0  0  0  0  0  0  0  0
    0.9535    0.5552   -1.2837 C   0  0  0  0  0  0  0  0  0  0  0  0
    2.3415    0.4359   -1.2638 C   0  0  0  0  0  0  0  0  0  0  0  0
    3.3521    1.0170   -2.1958 C   0  0  0  0  0  0  0  0  0  0  0  0
    2.6765   -0.3251   -0.1591 N   0  0  0  0  0  0  0  0  0  0  0  0
    4.0240   -0.6759    0.2750 C   0  0  0  0  0  0  0  0  0  0  0  0
    4.7497    0.4792    0.9618 C   0  0  0  0  0  0  0  0  0  0  0  0
    4.2995    0.6424    2.3017 O   0  0  0  0  0  0  0  0  0  0  0  0
    1.5356   -0.7524    0.4753 C   0  0  0  0  0  0  0  0  0  0  0  0
    1.5117   -1.5479    1.5566 N   0  0  0  0  0  0  0  0  0  0  0  0
    0.2662   -1.7844    1.9759 C   0  0  0  0  0  0  0  0  0  0  0  0
   -0.8820   -1.3441    1.4374 N   0  0  0  0  0  0  0  0  0  0  0  0
   -0.8424   -0.5549    0.3336 C   0  0  0  0  0  0  0  0  0  0  0  0
   -2.0274   -0.1147   -0.2777 N   0  0  0  0  0  0  0  0  0  0  0  0
   -3.3830   -0.2303    0.0730 C   0  0  0  0  0  0  0  0  0  0  0  0
   -4.3527    0.1552   -0.8721 C   0  0  0  0  0  0  0  0  0  0  0  0
   -5.7190    0.0568   -0.5932 C   0  0  0  0  0  0  0  0  0  0  0  0
   -6.1294   -0.4313    0.6380 C   0  0  0  0  0  0  0  0  0  0  0  0
   -7.4374   -0.5268    0.9096 F   0  0  0  0  0  0  0  0  0  0  0  0
   -5.1995   -0.8204    1.5902 C   0  0  0  0  0  0  0  0  0  0  0  0
   -3.8331   -0.7200    1.3052 C   0  0  0  0  0  0  0  0  0  0  0  0
    0.4356   -0.2255   -0.1886 C   0  0  0  0  0  0  0  0  0  0  0  0
   -0.5352    2.0153   -1.7472 H   0  0  0  0  0  0  0  0  0  0  0  0
    0.7932    1.9719   -2.8994 H   0  0  0  0  0  0  0  0  0  0  0  0
   -0.4130    0.6780   -2.9177 H   0  0  0  0  0  0  0  0  0  0  0  0
    3.6837    1.9940   -1.8309 H   0  0  0  0  0  0  0  0  0  0  0  0
    2.9298    1.1530   -3.1963 H   0  0  0  0  0  0  0  0  0  0  0  0
    4.2275    0.3725   -2.3110 H   0  0  0  0  0  0  0  0  0  0  0  0
    3.9573   -1.5407    0.9436 H   0  0  0  0  0  0  0  0  0  0  0  0
    4.5702   -0.9980   -0.6173 H   0  0  0  0  0  0  0  0  0  0  0  0
    4.6112    1.4258    0.4312 H   0  0  0  0  0  0  0  0  0  0  0  0
    5.8214    0.2600    1.0046 H   0  0  0  0  0  0  0  0  0  0  0  0
    4.7268    1.4382    2.6612 H   0  0  0  0  0  0  0  0  0  0  0  0
    0.1689   -2.4110    2.8566 H   0  0  0  0  0  0  0  0  0  0  0  0
   -1.8665    0.3402   -1.1613 H   0  0  0  0  0  0  0  0  0  0  0  0
   -4.0501    0.5345   -1.8448 H   0  0  0  0  0  0  0  0  0  0  0  0
   -6.4592    0.3551   -1.3280 H   0  0  0  0  0  0  0  0  0  0  0  0
   -5.5345   -1.1992    2.5500 H   0  0  0  0  0  0  0  0  0  0  0  0
   -3.1304   -1.0235    2.0747 H   0  0  0  0  0  0  0  0  0  0  0  0
  1  2  1  0
  2  3  2  0
  3  4  1  0
  3  5  1  0
  5  6  1  0
  6  7  1  0
  7  8  1  0
  5  9  1  0
  9 10  2  0
 10 11  1  0
 11 12  2  0
 12 13  1  0
 13 14  1  0
 14 15  1  0
 15 16  2  0
 16 17  1  0
 17 18  2  0
 18 19  1  0
 18 20  1  0
 20 21  2  0
 13 22  2  0
 22  2  1  0
 22  9  1  0
 21 15  1  0
  1 23  1  0
  1 24  1  0
  1 25  1  0
  4 26  1  0
  4 27  1  0
  4 28  1  0
  6 29  1  0
  6 30  1  0
  7 31  1  0
  7 32  1  0
  8 33  1  0
 11 34  1  0
 14 35  1  0
 16 36  1  0
 17 37  1  0
 20 38  1  0
 21 39  1  0
M  END
$$$$
