
     RDKit          3D

 49 50  0  0  0  0  0  0  0  0999 V2000
    7.8180   -2.5722    0.3558 C   0  0  0  0  0  0  0  0  0  0  0  0
    7.8840   -1.1412   -0.1485 C   0  0  0  0  0  0  0  0  0  0  0  0
    6.8715   -0.3424    0.4621 O   0  0  0  0  0  0  0  0  0  0  0  0
    5.6506   -0.2471   -0.1430 C   0  0  0  0  0  0  0  0  0  0  0  0
    5.2140   -0.9779   -1.2473 C   0  0  0  0  0  0  0  0  0  0  0  0
    3.9262   -0.7778   -1.7587 C   0  0  0  0  0  0  0  0  0  0  0  0
    3.0603    0.1449   -1.1607 C   0  0  0  0  0  0  0  0  0  0  0  0
    1.6980    0.3230   -1.7397 C   0  0  0  0  0  0  0  0  0  0  0  0
    1.5587    0.1839   -2.9488 O   0  0  0  0  0  0  0  0  0  0  0  0
    0.7034    0.5897   -0.8160 N   0  0  0  0  0  0  0  0  0  0  0  0
   -0.6561    0.8607   -1.0780 C   0  0  0  0  0  0  0  0  0  0  0  0
   -1.1877    1.0195   -2.3611 C   0  0  0  0  0  0  0  0  0  0  0  0
   -2.5435    1.3180   -2.5428 C   0  0  0  0  0  0  0  0  0  0  0  0
   -3.3852    1.4498   -1.4415 C   0  0  0  0  0  0  0  0  0  0  0  0
   -2.8650    1.2644   -0.1602 C   0  0  0  0  0  0  0  0  0  0  0  0
   -3.7236    1.4144    1.0315 C   0  0  0  0  0  0  0  0  0  0  0  0
   -3.4226    2.3025    1.8265 O   0  0  0  0  0  0  0  0  0  0  0  0
   -4.8084    0.5505    1.2084 N   0  0  0  0  0  0  0  0  0  0  0  0
   -5.0031   -0.6988    0.4620 C   0  0  0  0  0  0  0  0  0  0  0  0
   -6.2290   -0.6556   -0.4375 C   0  0  0  0  0  0  0  0  0  0  0  0
   -5.6466    0.7653    2.3887 C   0  0  0  0  0  0  0  0  0  0  0  0
   -5.0812    0.0965    3.6335 C   0  0  0  0  0  0  0  0  0  0  0  0
   -1.5042    0.9953    0.0263 C   0  0  0  0  0  0  0  0  0  0  0  0
    3.5001    0.8889   -0.0612 C   0  0  0  0  0  0  0  0  0  0  0  0
    4.7872    0.6836    0.4443 C   0  0  0  0  0  0  0  0  0  0  0  0
    8.6379   -3.1660   -0.0584 H   0  0  0  0  0  0  0  0  0  0  0  0
    7.8836   -2.5963    1.4487 H   0  0  0  0  0  0  0  0  0  0  0  0
    6.8714   -3.0493    0.0853 H   0  0  0  0  0  0  0  0  0  0  0  0
    7.8659   -1.0811   -1.2423 H   0  0  0  0  0  0  0  0  0  0  0  0
    8.8440   -0.7110    0.1590 H   0  0  0  0  0  0  0  0  0  0  0  0
    5.8423   -1.7150   -1.7355 H   0  0  0  0  0  0  0  0  0  0  0  0
    3.5981   -1.3488   -2.6257 H   0  0  0  0  0  0  0  0  0  0  0  0
    0.9564    0.5264    0.1618 H   0  0  0  0  0  0  0  0  0  0  0  0
   -0.5652    0.9377   -3.2475 H   0  0  0  0  0  0  0  0  0  0  0  0
   -2.9326    1.4590   -3.5484 H   0  0  0  0  0  0  0  0  0  0  0  0
   -4.4296    1.7111   -1.5823 H   0  0  0  0  0  0  0  0  0  0  0  0
   -4.1203   -0.9319   -0.1390 H   0  0  0  0  0  0  0  0  0  0  0  0
   -5.1026   -1.5158    1.1852 H   0  0  0  0  0  0  0  0  0  0  0  0
   -7.1480   -0.5336    0.1438 H   0  0  0  0  0  0  0  0  0  0  0  0
   -6.3134   -1.5877   -1.0049 H   0  0  0  0  0  0  0  0  0  0  0  0
   -6.1753    0.1736   -1.1482 H   0  0  0  0  0  0  0  0  0  0  0  0
   -5.7337    1.8427    2.5711 H   0  0  0  0  0  0  0  0  0  0  0  0
   -6.6558    0.3939    2.1847 H   0  0  0  0  0  0  0  0  0  0  0  0
   -5.7254    0.2955    4.4954 H   0  0  0  0  0  0  0  0  0  0  0  0
   -4.0780    0.4691    3.8642 H   0  0  0  0  0  0  0  0  0  0  0  0
   -5.0117   -0.9881    3.5048 H   0  0  0  0  0  0  0  0  0  0  0  0
   -1.1259    0.8952    1.0405 H   0  0  0  0  0  0  0  0  0  0  0  0
    2.8735    1.6498    0.3953 H   0  0  0  0  0  0  0  0  0  0  0  0
    5.1289    1.2649    1.2983 H   0  0  0  0  0  0  0  0  0  0  0  0
  1  2  1  0
  2  3  1  0
  3  4  1  0
  4  5  2  0
  5  6  1  0
  6  7  2  0
  7  8  1  0
  8  9  2  0
  8 10  1  0
 10 11  1  0
 11 12  2  0
 12 13  1  0
 13 14  2  0
 14 15  1  0
 15 16  1  0
 16 17  2  0
 16 18  1  0
 18 19  1  0
 19 20  1  0
 18 21  1  0
 21 22  1  0
 15 23  2  0
  7 24  1  0
 24 25  2  0
 25  4  1  0
 23 11  1  0
  1 26  1  0
  1 27  1  0
  1 28  1  0
  2 29  1  0
  2 30  1  0
  5 31  1  0
  6 32  1  0
 10 33  1  0
 12 34  1  0
 13 35  1  0
 14 36  1  0
 19 37  1  0
 19 38  1  0
 20 39  1  0
 20 40  1  0
 20 41  1  0
 21 42  1  0
 21 43  1  0
 22 44  1  0
 22 45  1  0
 22 46  1  0
 23 47  1  0
 24 48  1  0
 25 49  1  0
M  END
$$$$
