
     RDKit          3D

 42 43  0  0  0  0  0  0  0  0999 V2000
    3.1276   -1.0958   -2.1180 C   0  0  0  0  0  0  0  0  0  0  0  0
    3.6915   -0.1154   -1.1260 C   0  0  0  0  0  0  0  0  0  0  0  0
    5.0792   -0.0467   -0.9288 C   0  0  0  0  0  0  0  0  0  0  0  0
    5.6196    0.8549   -0.0146 C   0  0  0  0  0  0  0  0  0  0  0  0
    4.7781    1.6938    0.7091 C   0  0  0  0  0  0  0  0  0  0  0  0
    3.3944    1.6349    0.5206 C   0  0  0  0  0  0  0  0  0  0  0  0
    2.8408    0.7354   -0.3945 C   0  0  0  0  0  0  0  0  0  0  0  0
    1.5051    0.5923   -0.6565 O   0  0  0  0  0  0  0  0  0  0  0  0
    0.5543    1.3986    0.0389 C   0  0  0  0  0  0  0  0  0  0  0  0
    0.1846    0.7992    1.3970 C   0  0  0  0  0  0  0  0  0  0  0  0
   -0.4288   -0.6045    1.2935 C   0  0  0  0  0  0  0  0  0  0  0  0
   -1.6918   -0.6392    0.5434 N   0  0  0  0  0  0  0  0  0  0  0  0
   -2.0141   -2.0276    0.1374 C   0  0  0  0  0  0  0  0  0  0  0  0
   -3.4892   -2.2262   -0.2958 C   0  0  0  0  0  0  0  0  0  0  0  0
   -4.1306   -0.9705   -0.7174 N   0  0  0  0  0  0  0  0  0  0  0  0
   -4.1231   -0.0138    0.4179 C   0  0  0  0  0  0  0  0  0  0  0  0
   -4.3158    1.3928   -0.1560 C   0  0  0  0  0  0  0  0  0  0  0  0
   -2.8316   -0.0805    1.2945 C   0  0  0  0  0  0  0  0  0  0  0  0
    3.9179   -1.6878   -2.5916 H   0  0  0  0  0  0  0  0  0  0  0  0
    2.4469   -1.7924   -1.6178 H   0  0  0  0  0  0  0  0  0  0  0  0
    2.5895   -0.5658   -2.9106 H   0  0  0  0  0  0  0  0  0  0  0  0
    5.7467   -0.6972   -1.4892 H   0  0  0  0  0  0  0  0  0  0  0  0
    6.6953    0.9023    0.1320 H   0  0  0  0  0  0  0  0  0  0  0  0
    5.1979    2.3977    1.4231 H   0  0  0  0  0  0  0  0  0  0  0  0
    2.7803    2.3063    1.1097 H   0  0  0  0  0  0  0  0  0  0  0  0
   -0.3382    1.4461   -0.5957 H   0  0  0  0  0  0  0  0  0  0  0  0
    0.8925    2.4366    0.1320 H   0  0  0  0  0  0  0  0  0  0  0  0
    1.0833    0.7172    2.0192 H   0  0  0  0  0  0  0  0  0  0  0  0
   -0.4925    1.4817    1.9211 H   0  0  0  0  0  0  0  0  0  0  0  0
    0.3076   -1.2535    0.8017 H   0  0  0  0  0  0  0  0  0  0  0  0
   -0.5721   -1.0124    2.3026 H   0  0  0  0  0  0  0  0  0  0  0  0
   -1.3629   -2.2877   -0.7060 H   0  0  0  0  0  0  0  0  0  0  0  0
   -1.8014   -2.7359    0.9488 H   0  0  0  0  0  0  0  0  0  0  0  0
   -3.5318   -2.9449   -1.1216 H   0  0  0  0  0  0  0  0  0  0  0  0
   -4.0654   -2.6618    0.5302 H   0  0  0  0  0  0  0  0  0  0  0  0
   -3.5163   -0.5737   -1.4336 H   0  0  0  0  0  0  0  0  0  0  0  0
   -4.9843   -0.2385    1.0595 H   0  0  0  0  0  0  0  0  0  0  0  0
   -4.4083    2.1283    0.6505 H   0  0  0  0  0  0  0  0  0  0  0  0
   -3.4712    1.6903   -0.7878 H   0  0  0  0  0  0  0  0  0  0  0  0
   -5.2293    1.4504   -0.7585 H   0  0  0  0  0  0  0  0  0  0  0  0
   -2.6021    0.9222    1.6698 H   0  0  0  0  0  0  0  0  0  0  0  0
   -3.0320   -0.7090    2.1733 H   0  0  0  0  0  0  0  0  0  0  0  0
  1  2  1  0
  2  3  2  0
  3  4  1  0
  4  5  2  0
  5  6  1  0
  6  7  2  0
  7  8  1  0
  8  9  1  0
  9 10  1  0
 10 11  1  0
 11 12  1  0
 12 13  1  0
 13 14  1  0
 14 15  1  0
 15 16  1  0
 16 17  1  0
 16 18  1  0
  7  2  1  0
 18 12  1  0
  1 19  1  0
  1 20  1  0
  1 21  1  0
  3 22  1  0
  4 23  1  0
  5 24  1  0
  6 25  1  0
  9 26  1  0
  9 27  1  0
 10 28  1  0
 10 29  1  0
 11 30  1  0
 11 31  1  0
 13 32  1  0
 13 33  1  0
 14 34  1  0
 14 35  1  0
 15 36  1  0
 16 37  1  0
 17 38  1  0
 17 39  1  0
 17 40  1  0
 18 41  1  0
 18 42  1  0
M  END
$$$$
