
     RDKit          3D

 44 47  0  0  0  0  0  0  0  0999 V2000
   -5.1028    3.8592    0.2305 C   0  0  0  0  0  0  0  0  0  0  0  0
   -5.2818    2.6084   -0.4225 O   0  0  0  0  0  0  0  0  0  0  0  0
   -4.0575    1.8881   -0.5893 C   0  0  0  0  0  0  0  0  0  0  0  0
   -3.6833    1.0889    0.6649 C   0  0  0  0  0  0  0  0  0  0  0  0
   -2.4071    0.4223    0.5114 N   0  0  0  0  0  0  0  0  0  0  0  0
   -2.0983   -0.8048   -0.0833 C   0  0  0  0  0  0  0  0  0  0  0  0
   -3.0164   -1.8265   -0.6016 C   0  0  0  0  0  0  0  0  0  0  0  0
   -4.2335   -1.6996   -0.6015 O   0  0  0  0  0  0  0  0  0  0  0  0
   -2.3828   -2.9348   -1.0962 N   0  0  0  0  0  0  0  0  0  0  0  0
   -1.0276   -3.1313   -1.2210 C   0  0  0  0  0  0  0  0  0  0  0  0
   -0.6158   -4.1656   -1.7412 O   0  0  0  0  0  0  0  0  0  0  0  0
   -0.2053   -2.1055   -0.7397 N   0  0  0  0  0  0  0  0  0  0  0  0
    1.2260   -2.2778   -0.8843 C   0  0  0  0  0  0  0  0  0  0  0  0
   -0.7584   -0.9761   -0.1679 C   0  0  0  0  0  0  0  0  0  0  0  0
   -0.2055    0.1878    0.3831 N   0  0  0  0  0  0  0  0  0  0  0  0
    0.9471    0.8631    0.7020 C   0  0  0  0  0  0  0  0  0  0  0  0
    2.3143    0.3976    0.5689 C   0  0  0  0  0  0  0  0  0  0  0  0
    2.8911   -0.3981    1.5652 C   0  0  0  0  0  0  0  0  0  0  0  0
    4.2140   -0.8311    1.4429 C   0  0  0  0  0  0  0  0  0  0  0  0
    4.9786   -0.4691    0.3276 C   0  0  0  0  0  0  0  0  0  0  0  0
    6.4111   -0.9020    0.2164 C   0  0  0  0  0  0  0  0  0  0  0  0
    4.4133    0.3638   -0.6453 C   0  0  0  0  0  0  0  0  0  0  0  0
    3.0910    0.7983   -0.5237 C   0  0  0  0  0  0  0  0  0  0  0  0
    0.6093    2.0557    1.1858 N   0  0  0  0  0  0  0  0  0  0  0  0
   -0.7698    2.1644    1.2290 N   0  0  0  0  0  0  0  0  0  0  0  0
   -1.2266    1.0380    0.7686 C   0  0  0  0  0  0  0  0  0  0  0  0
   -4.4312    4.5007   -0.3480 H   0  0  0  0  0  0  0  0  0  0  0  0
   -6.0771    4.3508    0.2985 H   0  0  0  0  0  0  0  0  0  0  0  0
   -4.7145    3.7228    1.2432 H   0  0  0  0  0  0  0  0  0  0  0  0
   -3.2536    2.5711   -0.8903 H   0  0  0  0  0  0  0  0  0  0  0  0
   -4.2085    1.1947   -1.4243 H   0  0  0  0  0  0  0  0  0  0  0  0
   -3.6536    1.7513    1.5386 H   0  0  0  0  0  0  0  0  0  0  0  0
   -4.4774    0.3682    0.8928 H   0  0  0  0  0  0  0  0  0  0  0  0
   -2.9716   -3.6643   -1.4694 H   0  0  0  0  0  0  0  0  0  0  0  0
    1.6345   -1.4336   -1.4423 H   0  0  0  0  0  0  0  0  0  0  0  0
    1.6718   -2.3679    0.1073 H   0  0  0  0  0  0  0  0  0  0  0  0
    1.4778   -3.1856   -1.4403 H   0  0  0  0  0  0  0  0  0  0  0  0
    2.3204   -0.6776    2.4485 H   0  0  0  0  0  0  0  0  0  0  0  0
    4.6481   -1.4446    2.2300 H   0  0  0  0  0  0  0  0  0  0  0  0
    6.7076   -1.0039   -0.8328 H   0  0  0  0  0  0  0  0  0  0  0  0
    7.0627   -0.1672    0.6991 H   0  0  0  0  0  0  0  0  0  0  0  0
    6.5621   -1.8766    0.6923 H   0  0  0  0  0  0  0  0  0  0  0  0
    5.0037    0.6896   -1.4994 H   0  0  0  0  0  0  0  0  0  0  0  0
    2.6756    1.4590   -1.2820 H   0  0  0  0  0  0  0  0  0  0  0  0
  1  2  1  0
  2  3  1  0
  3  4  1  0
  4  5  1  0
  5  6  1  0
  6  7  1  0
  7  8  2  0
  7  9  1  0
  9 10  1  0
 10 11  2  0
 10 12  1  0
 12 13  1  0
 12 14  1  0
 14 15  1  0
 15 16  1  0
 16 17  1  0
 17 18  2  0
 18 19  1  0
 19 20  2  0
 20 21  1  0
 20 22  1  0
 22 23  2  0
 16 24  2  0
 24 25  1  0
 25 26  2  0
 26  5  1  0
 14  6  2  0
 26 15  1  0
 23 17  1  0
  1 27  1  0
  1 28  1  0
  1 29  1  0
  3 30  1  0
  3 31  1  0
  4 32  1  0
  4 33  1  0
  9 34  1  0
 13 35  1  0
 13 36  1  0
 13 37  1  0
 18 38  1  0
 19 39  1  0
 21 40  1  0
 21 41  1  0
 21 42  1  0
 22 43  1  0
 23 44  1  0
M  END
$$$$
