
     RDKit          3D

 51 54  0  0  0  0  0  0  0  0999 V2000
    5.0140    2.1649   -2.1968 C   0  0  0  0  0  0  0  0  0  0  0  0
    4.4762    1.3361   -1.0727 C   0  0  0  0  0  0  0  0  0  0  0  0
    3.1946    1.5248   -0.7187 N   0  0  0  0  0  0  0  0  0  0  0  0
    2.6815    0.7637    0.2629 C   0  0  0  0  0  0  0  0  0  0  0  0
    1.3547    0.9599    0.6413 N   0  0  0  0  0  0  0  0  0  0  0  0
    0.5039   -0.2193    0.8841 C   0  0  0  0  0  0  0  0  0  0  0  0
   -0.7985   -0.1903    0.0580 C   0  0  0  0  0  0  0  0  0  0  0  0
   -1.5507    1.0630    0.1964 N   0  0  0  0  0  0  0  0  0  0  0  0
   -2.9349    1.1892    0.1515 C   0  0  0  0  0  0  0  0  0  0  0  0
   -3.4865    2.2224    0.5209 O   0  0  0  0  0  0  0  0  0  0  0  0
   -3.5799    0.0829   -0.3559 N   0  0  0  0  0  0  0  0  0  0  0  0
   -4.9726   -0.1670   -0.3975 C   0  0  0  0  0  0  0  0  0  0  0  0
   -5.8884    0.5935    0.3395 C   0  0  0  0  0  0  0  0  0  0  0  0
   -7.2573    0.3186    0.2892 C   0  0  0  0  0  0  0  0  0  0  0  0
   -7.7298   -0.7269   -0.4936 C   0  0  0  0  0  0  0  0  0  0  0  0
   -6.8320   -1.5039   -1.2227 C   0  0  0  0  0  0  0  0  0  0  0  0
   -5.4507   -1.2407   -1.1817 C   0  0  0  0  0  0  0  0  0  0  0  0
   -4.5334   -2.1224   -1.9868 C   0  0  0  0  0  0  0  0  0  0  0  0
   -0.7618    2.2494    0.5460 C   0  0  0  0  0  0  0  0  0  0  0  0
    0.6912    2.1430    0.0588 C   0  0  0  0  0  0  0  0  0  0  0  0
    3.4711   -0.1688    0.9148 C   0  0  0  0  0  0  0  0  0  0  0  0
    4.7780   -0.3077    0.4874 C   0  0  0  0  0  0  0  0  0  0  0  0
    5.6452   -1.2504    1.1077 N   0  0  0  0  0  0  0  0  0  0  0  0
    6.9553   -1.4937    0.7501 C   0  0  0  0  0  0  0  0  0  0  0  0
    7.4066   -2.4733    1.6001 C   0  0  0  0  0  0  0  0  0  0  0  0
    6.4221   -2.8477    2.4716 N   0  0  0  0  0  0  0  0  0  0  0  0
    5.3854   -2.0993    2.1595 C   0  0  0  0  0  0  0  0  0  0  0  0
    5.2915    0.4280   -0.5201 N   0  0  0  0  0  0  0  0  0  0  0  0
    4.5464    3.1548   -2.2022 H   0  0  0  0  0  0  0  0  0  0  0  0
    6.0958    2.2978   -2.0953 H   0  0  0  0  0  0  0  0  0  0  0  0
    4.8066    1.6707   -3.1510 H   0  0  0  0  0  0  0  0  0  0  0  0
    1.0194   -1.1601    0.6583 H   0  0  0  0  0  0  0  0  0  0  0  0
    0.2512   -0.2354    1.9514 H   0  0  0  0  0  0  0  0  0  0  0  0
   -0.5629   -0.2962   -1.0074 H   0  0  0  0  0  0  0  0  0  0  0  0
   -1.4246   -1.0395    0.3504 H   0  0  0  0  0  0  0  0  0  0  0  0
   -3.0103   -0.4945   -0.9503 H   0  0  0  0  0  0  0  0  0  0  0  0
   -5.5642    1.4109    0.9765 H   0  0  0  0  0  0  0  0  0  0  0  0
   -7.9504    0.9264    0.8655 H   0  0  0  0  0  0  0  0  0  0  0  0
   -8.7942   -0.9393   -0.5353 H   0  0  0  0  0  0  0  0  0  0  0  0
   -7.2195   -2.3217   -1.8279 H   0  0  0  0  0  0  0  0  0  0  0  0
   -3.9998   -1.5300   -2.7370 H   0  0  0  0  0  0  0  0  0  0  0  0
   -5.0863   -2.9039   -2.5183 H   0  0  0  0  0  0  0  0  0  0  0  0
   -3.8135   -2.6199   -1.3289 H   0  0  0  0  0  0  0  0  0  0  0  0
   -1.2326    3.1420    0.1196 H   0  0  0  0  0  0  0  0  0  0  0  0
   -0.7918    2.3445    1.6383 H   0  0  0  0  0  0  0  0  0  0  0  0
    1.2276    3.0541    0.3505 H   0  0  0  0  0  0  0  0  0  0  0  0
    0.6899    2.0770   -1.0374 H   0  0  0  0  0  0  0  0  0  0  0  0
    3.0613   -0.7342    1.7391 H   0  0  0  0  0  0  0  0  0  0  0  0
    7.4340   -0.9598   -0.0585 H   0  0  0  0  0  0  0  0  0  0  0  0
    8.3886   -2.9286    1.6275 H   0  0  0  0  0  0  0  0  0  0  0  0
    4.4345   -2.1427    2.6710 H   0  0  0  0  0  0  0  0  0  0  0  0
  1  2  1  0
  2  3  2  0
  3  4  1  0
  4  5  1  0
  5  6  1  0
  6  7  1  0
  7  8  1  0
  8  9  1  0
  9 10  2  0
  9 11  1  0
 11 12  1  0
 12 13  2  0
 13 14  1  0
 14 15  2  0
 15 16  1  0
 16 17  2  0
 17 18  1  0
  8 19  1  0
 19 20  1  0
  4 21  2  0
 21 22  1  0
 22 23  1  0
 23 24  1  0
 24 25  2  0
 25 26  1  0
 26 27  2  0
 22 28  2  0
 28  2  1  0
 20  5  1  0
 27 23  1  0
 17 12  1  0
  1 29  1  0
  1 30  1  0
  1 31  1  0
  6 32  1  0
  6 33  1  0
  7 34  1  0
  7 35  1  0
 11 36  1  0
 13 37  1  0
 14 38  1  0
 15 39  1  0
 16 40  1  0
 18 41  1  0
 18 42  1  0
 18 43  1  0
 19 44  1  0
 19 45  1  0
 20 46  1  0
 20 47  1  0
 21 48  1  0
 24 49  1  0
 25 50  1  0
 27 51  1  0
M  END
$$$$
