
     RDKit          3D

 49 51  0  0  0  0  0  0  0  0999 V2000
   -4.5818   -2.1210    0.0449 C   0  0  0  0  0  0  0  0  0  0  0  0
   -3.7607   -1.1511    0.9011 C   0  0  0  0  0  0  0  0  0  0  0  0
   -4.5795    0.0983    1.2561 C   0  0  0  0  0  0  0  0  0  0  0  0
   -4.0153    1.1013    0.2966 C   0  0  0  0  0  0  0  0  0  0  0  0
   -4.5245    2.3668    0.0436 C   0  0  0  0  0  0  0  0  0  0  0  0
   -3.8338    3.1930   -0.8348 C   0  0  0  0  0  0  0  0  0  0  0  0
   -2.6592    2.7406   -1.4435 C   0  0  0  0  0  0  0  0  0  0  0  0
   -2.1541    1.4613   -1.1760 C   0  0  0  0  0  0  0  0  0  0  0  0
   -2.8310    0.6404   -0.2912 C   0  0  0  0  0  0  0  0  0  0  0  0
   -2.5595   -0.6689    0.1698 N   0  0  0  0  0  0  0  0  0  0  0  0
   -1.4673   -1.5091    0.0548 C   0  0  0  0  0  0  0  0  0  0  0  0
   -1.5291   -2.6583    0.5148 O   0  0  0  0  0  0  0  0  0  0  0  0
   -0.1667   -1.0305   -0.5916 C   0  0  0  0  0  0  0  0  0  0  0  0
    0.8079   -2.2094   -0.8137 C   0  0  0  0  0  0  0  0  0  0  0  0
    2.2440   -1.7408   -1.0301 C   0  0  0  0  0  0  0  0  0  0  0  0
    2.7000   -0.9227    0.1018 N   0  0  0  0  0  0  0  0  0  0  0  0
    4.2946   -0.9809    0.5912 S   0  0  0  0  0  6  0  0  0  0  0  0
    5.0878   -1.6499   -0.4182 O   0  0  0  0  0  0  0  0  0  0  0  0
    4.3296   -1.3848    1.9767 O   0  0  0  0  0  0  0  0  0  0  0  0
    4.6650    0.6813    0.5178 N   0  0  0  0  0  0  0  0  0  0  0  0
    4.6187    1.2597   -0.8425 C   0  0  0  0  0  0  0  0  0  0  0  0
    5.9229    1.0166    1.2168 C   0  0  0  0  0  0  0  0  0  0  0  0
    1.6879   -0.4092    1.0381 C   0  0  0  0  0  0  0  0  0  0  0  0
    0.4914    0.0883    0.2360 C   0  0  0  0  0  0  0  0  0  0  0  0
   -5.4610   -2.4702    0.5936 H   0  0  0  0  0  0  0  0  0  0  0  0
   -3.9936   -2.9985   -0.2364 H   0  0  0  0  0  0  0  0  0  0  0  0
   -4.9249   -1.6473   -0.8787 H   0  0  0  0  0  0  0  0  0  0  0  0
   -3.4485   -1.6656    1.8165 H   0  0  0  0  0  0  0  0  0  0  0  0
   -4.3675    0.4240    2.2848 H   0  0  0  0  0  0  0  0  0  0  0  0
   -5.6565   -0.0454    1.1322 H   0  0  0  0  0  0  0  0  0  0  0  0
   -5.4329    2.7109    0.5257 H   0  0  0  0  0  0  0  0  0  0  0  0
   -4.2078    4.1893   -1.0463 H   0  0  0  0  0  0  0  0  0  0  0  0
   -2.1335    3.3934   -2.1331 H   0  0  0  0  0  0  0  0  0  0  0  0
   -1.2573    1.1645   -1.6960 H   0  0  0  0  0  0  0  0  0  0  0  0
   -0.4211   -0.6641   -1.5897 H   0  0  0  0  0  0  0  0  0  0  0  0
    0.4762   -2.7949   -1.6786 H   0  0  0  0  0  0  0  0  0  0  0  0
    0.7993   -2.8963    0.0401 H   0  0  0  0  0  0  0  0  0  0  0  0
    2.8824   -2.6250   -1.1671 H   0  0  0  0  0  0  0  0  0  0  0  0
    2.3096   -1.1302   -1.9406 H   0  0  0  0  0  0  0  0  0  0  0  0
    4.9195    2.3207   -0.8212 H   0  0  0  0  0  0  0  0  0  0  0  0
    3.5939    1.2242   -1.2272 H   0  0  0  0  0  0  0  0  0  0  0  0
    5.2918    0.7244   -1.5258 H   0  0  0  0  0  0  0  0  0  0  0  0
    6.7747    0.5088    0.7553 H   0  0  0  0  0  0  0  0  0  0  0  0
    5.8581    0.7494    2.2765 H   0  0  0  0  0  0  0  0  0  0  0  0
    6.0981    2.0944    1.1739 H   0  0  0  0  0  0  0  0  0  0  0  0
    2.0963    0.4343    1.6114 H   0  0  0  0  0  0  0  0  0  0  0  0
    1.3871   -1.1901    1.7500 H   0  0  0  0  0  0  0  0  0  0  0  0
   -0.2123    0.5707    0.9178 H   0  0  0  0  0  0  0  0  0  0  0  0
    0.8428    0.8613   -0.4555 H   0  0  0  0  0  0  0  0  0  0  0  0
  1  2  1  0
  2  3  1  0
  3  4  1  0
  4  5  2  0
  5  6  1  0
  6  7  2  0
  7  8  1  0
  8  9  2  0
  9 10  1  0
 10 11  1  0
 11 12  2  0
 11 13  1  0
 13 14  1  0
 14 15  1  0
 15 16  1  0
 16 17  1  0
 17 18  2  0
 17 19  2  0
 17 20  1  0
 20 21  1  0
 20 22  1  0
 16 23  1  0
 23 24  1  0
 10  2  1  0
 24 13  1  0
  9  4  1  0
  1 25  1  0
  1 26  1  0
  1 27  1  0
  2 28  1  0
  3 29  1  0
  3 30  1  0
  5 31  1  0
  6 32  1  0
  7 33  1  0
  8 34  1  0
 13 35  1  0
 14 36  1  0
 14 37  1  0
 15 38  1  0
 15 39  1  0
 21 40  1  0
 21 41  1  0
 21 42  1  0
 22 43  1  0
 22 44  1  0
 22 45  1  0
 23 46  1  0
 23 47  1  0
 24 48  1  0
 24 49  1  0
M  END
$$$$
