
     RDKit          3D

 45 48  0  0  0  0  0  0  0  0999 V2000
   -5.9544    1.9896   -0.0681 O   0  0  0  0  0  0  0  0  0  0  0  0
   -5.2582    0.8578   -0.6409 S   0  0  0  0  0  6  0  0  0  0  0  0
   -5.6374    0.2791   -1.9118 O   0  0  0  0  0  0  0  0  0  0  0  0
   -5.4635   -0.4602    0.5423 C   0  0  0  0  0  0  0  0  0  0  0  0
   -4.5835   -1.1945    1.3156 C   0  0  0  0  0  0  0  0  0  0  0  0
   -5.2460   -2.1624    2.1267 C   0  0  0  0  0  0  0  0  0  0  0  0
   -6.6102   -2.1380    1.9453 C   0  0  0  0  0  0  0  0  0  0  0  0
   -7.0844   -0.9565    0.8040 S   0  0  0  0  0  0  0  0  0  0  0  0
   -3.6244    1.2571   -0.7258 N   0  0  0  0  0  0  0  0  0  0  0  0
   -3.0210    2.0097    0.4074 C   0  0  0  0  0  0  0  0  0  0  0  0
   -1.6217    1.4903    0.7856 C   0  0  0  0  0  0  0  0  0  0  0  0
   -0.7300    1.4442   -0.3846 N   0  0  0  0  0  0  0  0  0  0  0  0
    0.5849    1.0659   -0.1157 C   0  0  0  0  0  0  0  0  0  0  0  0
    1.5740    1.1530   -1.0862 C   0  0  0  0  0  0  0  0  0  0  0  0
    2.8893    0.7827   -0.7911 C   0  0  0  0  0  0  0  0  0  0  0  0
    3.2055    0.3236    0.4742 C   0  0  0  0  0  0  0  0  0  0  0  0
    4.4994   -0.0418    0.8554 N   0  0  0  0  0  0  0  0  0  0  0  0
    5.5376   -0.6825    0.1553 C   0  0  0  0  0  0  0  0  0  0  0  0
    6.8260   -0.6434    0.6964 C   0  0  0  0  0  0  0  0  0  0  0  0
    7.8673   -1.2432    0.0057 C   0  0  0  0  0  0  0  0  0  0  0  0
    7.7157   -1.8747   -1.1750 N   0  0  0  0  0  0  0  0  0  0  0  0
    6.4679   -1.9038   -1.6844 C   0  0  0  0  0  0  0  0  0  0  0  0
    5.3664   -1.3269   -1.0690 C   0  0  0  0  0  0  0  0  0  0  0  0
    2.2441    0.2795    1.4129 N   0  0  0  0  0  0  0  0  0  0  0  0
    0.9396    0.6496    1.1165 N   0  0  0  0  0  0  0  0  0  0  0  0
   -1.3299    1.0054   -1.6588 C   0  0  0  0  0  0  0  0  0  0  0  0
   -2.7123    0.3521   -1.4607 C   0  0  0  0  0  0  0  0  0  0  0  0
   -3.5120   -1.0514    1.3048 H   0  0  0  0  0  0  0  0  0  0  0  0
   -4.7482   -2.8428    2.8077 H   0  0  0  0  0  0  0  0  0  0  0  0
   -7.3553   -2.7574    2.4264 H   0  0  0  0  0  0  0  0  0  0  0  0
   -2.9533    3.0606    0.1021 H   0  0  0  0  0  0  0  0  0  0  0  0
   -3.6607    1.9634    1.2949 H   0  0  0  0  0  0  0  0  0  0  0  0
   -1.2069    2.1558    1.5530 H   0  0  0  0  0  0  0  0  0  0  0  0
   -1.7158    0.4887    1.2235 H   0  0  0  0  0  0  0  0  0  0  0  0
    1.3474    1.5442   -2.0724 H   0  0  0  0  0  0  0  0  0  0  0  0
    3.6568    0.8994   -1.5481 H   0  0  0  0  0  0  0  0  0  0  0  0
    4.4957   -0.2652    1.8473 H   0  0  0  0  0  0  0  0  0  0  0  0
    7.0249   -0.1406    1.6367 H   0  0  0  0  0  0  0  0  0  0  0  0
    8.8807   -1.2264    0.3965 H   0  0  0  0  0  0  0  0  0  0  0  0
    6.3680   -2.4250   -2.6323 H   0  0  0  0  0  0  0  0  0  0  0  0
    4.3951   -1.4226   -1.5383 H   0  0  0  0  0  0  0  0  0  0  0  0
   -0.6963    0.2837   -2.1886 H   0  0  0  0  0  0  0  0  0  0  0  0
   -1.4333    1.8869   -2.3031 H   0  0  0  0  0  0  0  0  0  0  0  0
   -3.1259    0.1259   -2.4488 H   0  0  0  0  0  0  0  0  0  0  0  0
   -2.6017   -0.5889   -0.9117 H   0  0  0  0  0  0  0  0  0  0  0  0
  1  2  2  0
  2  3  2  0
  2  4  1  0
  4  5  2  0
  5  6  1  0
  6  7  2  0
  7  8  1  0
  2  9  1  0
  9 10  1  0
 10 11  1  0
 11 12  1  0
 12 13  1  0
 13 14  2  0
 14 15  1  0
 15 16  2  0
 16 17  1  0
 17 18  1  0
 18 19  2  0
 19 20  1  0
 20 21  2  0
 21 22  1  0
 22 23  2  0
 16 24  1  0
 24 25  2  0
 12 26  1  0
 26 27  1  0
  8  4  1  0
 27  9  1  0
 25 13  1  0
 23 18  1  0
  5 28  1  0
  6 29  1  0
  7 30  1  0
 10 31  1  0
 10 32  1  0
 11 33  1  0
 11 34  1  0
 14 35  1  0
 15 36  1  0
 17 37  1  0
 19 38  1  0
 20 39  1  0
 22 40  1  0
 23 41  1  0
 26 42  1  0
 26 43  1  0
 27 44  1  0
 27 45  1  0
M  END
$$$$
