
     RDKit          3D

 34 36  0  0  0  0  0  0  0  0999 V2000
   -3.4108    2.1403   -0.4652 C   0  0  0  0  0  0  0  0  0  0  0  0
   -3.7905    0.8152    0.1292 C   0  0  0  0  0  0  0  0  0  0  0  0
   -5.1481    0.5280    0.3358 C   0  0  0  0  0  0  0  0  0  0  0  0
   -5.5263   -0.6903    0.8831 C   0  0  0  0  0  0  0  0  0  0  0  0
   -4.5296   -1.5856    1.2101 C   0  0  0  0  0  0  0  0  0  0  0  0
   -3.2165   -1.3403    1.0272 N   0  0  0  0  0  0  0  0  0  0  0  0
   -2.8497   -0.1623    0.4891 C   0  0  0  0  0  0  0  0  0  0  0  0
   -1.4797    0.1064    0.3052 N   0  0  0  0  0  0  0  0  0  0  0  0
   -0.4587   -0.7996    0.5157 C   0  0  0  0  0  0  0  0  0  0  0  0
   -0.5551   -1.9963    0.7713 O   0  0  0  0  0  0  0  0  0  0  0  0
    0.9190   -0.2798    0.3385 C   0  0  0  0  0  0  0  0  0  0  0  0
    1.2451    1.0375    0.6093 C   0  0  0  0  0  0  0  0  0  0  0  0
    2.4791    1.5697    0.4355 N   0  0  0  0  0  0  0  0  0  0  0  0
    3.4630    0.7637    0.0002 C   0  0  0  0  0  0  0  0  0  0  0  0
    4.7345    1.2950   -0.1820 C   0  0  0  0  0  0  0  0  0  0  0  0
    5.8020    0.5095   -0.6241 C   0  0  0  0  0  0  0  0  0  0  0  0
    5.5915   -0.8340   -0.8874 C   0  0  0  0  0  0  0  0  0  0  0  0
    6.6099   -1.5928   -1.3109 F   0  0  0  0  0  0  0  0  0  0  0  0
    4.3358   -1.3989   -0.7170 C   0  0  0  0  0  0  0  0  0  0  0  0
    3.2560   -0.6068   -0.2733 C   0  0  0  0  0  0  0  0  0  0  0  0
    1.9570   -1.1161   -0.0816 C   0  0  0  0  0  0  0  0  0  0  0  0
    1.7473   -2.4553   -0.3236 O   0  0  0  0  0  0  0  0  0  0  0  0
   -4.2920    2.7543   -0.6798 H   0  0  0  0  0  0  0  0  0  0  0  0
   -2.7812    2.7037    0.2311 H   0  0  0  0  0  0  0  0  0  0  0  0
   -2.8756    1.9951   -1.4092 H   0  0  0  0  0  0  0  0  0  0  0  0
   -5.9162    1.2508    0.0707 H   0  0  0  0  0  0  0  0  0  0  0  0
   -6.5691   -0.9344    1.0501 H   0  0  0  0  0  0  0  0  0  0  0  0
   -4.7608   -2.5551    1.6418 H   0  0  0  0  0  0  0  0  0  0  0  0
   -1.2545    1.0045   -0.0898 H   0  0  0  0  0  0  0  0  0  0  0  0
    0.5202    1.7420    1.0063 H   0  0  0  0  0  0  0  0  0  0  0  0
    4.8999    2.3493    0.0289 H   0  0  0  0  0  0  0  0  0  0  0  0
    6.7890    0.9395   -0.7602 H   0  0  0  0  0  0  0  0  0  0  0  0
    4.1998   -2.4558   -0.9312 H   0  0  0  0  0  0  0  0  0  0  0  0
    0.8653   -2.7009    0.0436 H   0  0  0  0  0  0  0  0  0  0  0  0
  1  2  1  0
  2  3  2  0
  3  4  1  0
  4  5  2  0
  5  6  1  0
  6  7  2  0
  7  8  1  0
  8  9  1  0
  9 10  2  0
  9 11  1  0
 11 12  2  0
 12 13  1  0
 13 14  2  0
 14 15  1  0
 15 16  2  0
 16 17  1  0
 17 18  1  0
 17 19  2  0
 19 20  1  0
 20 21  2  0
 21 22  1  0
  7  2  1  0
 21 11  1  0
 20 14  1  0
  1 23  1  0
  1 24  1  0
  1 25  1  0
  3 26  1  0
  4 27  1  0
  5 28  1  0
  8 29  1  0
 12 30  1  0
 15 31  1  0
 16 32  1  0
 19 33  1  0
 22 34  1  0
M  END
$$$$
