
     RDKit          3D

 36 37  0  0  0  0  0  0  0  0999 V2000
   -5.0297    0.4991   -1.0340 C   0  0  0  0  0  0  0  0  0  0  0  0
   -3.6810    0.2576   -0.5893 N   0  0  0  0  0  0  0  0  0  0  0  0
   -3.3271   -0.9613   -0.0520 C   0  0  0  0  0  0  0  0  0  0  0  0
   -4.1375   -1.8586    0.1702 O   0  0  0  0  0  0  0  0  0  0  0  0
   -1.8420   -1.1301    0.2414 C   0  0  0  0  0  0  0  0  0  0  0  0
   -0.9840   -1.3730   -0.9497 N   0  0  0  0  0  0  0  0  0  0  0  0
   -1.5355   -2.3859   -1.8746 C   0  0  0  0  0  0  0  0  0  0  0  0
   -0.3085   -0.0090   -1.6979 S   0  0  0  0  0  6  0  0  0  0  0  0
   -1.3674    0.9719   -1.8314 O   0  0  0  0  0  0  0  0  0  0  0  0
    0.4672   -0.4402   -2.8391 O   0  0  0  0  0  0  0  0  0  0  0  0
    0.8383    0.5705   -0.4742 C   0  0  0  0  0  0  0  0  0  0  0  0
    0.6874    1.8382    0.0870 C   0  0  0  0  0  0  0  0  0  0  0  0
    1.5942    2.2671    1.0573 C   0  0  0  0  0  0  0  0  0  0  0  0
    2.6533    1.4395    1.4685 C   0  0  0  0  0  0  0  0  0  0  0  0
    3.5706    1.8601    2.4443 C   0  0  0  0  0  0  0  0  0  0  0  0
    4.6201    1.0301    2.8418 C   0  0  0  0  0  0  0  0  0  0  0  0
    4.7669   -0.2299    2.2692 C   0  0  0  0  0  0  0  0  0  0  0  0
    3.8644   -0.6647    1.2974 C   0  0  0  0  0  0  0  0  0  0  0  0
    2.8030    0.1570    0.8871 C   0  0  0  0  0  0  0  0  0  0  0  0
    1.8889   -0.2676   -0.0876 C   0  0  0  0  0  0  0  0  0  0  0  0
   -5.7434    0.1526   -0.2815 H   0  0  0  0  0  0  0  0  0  0  0  0
   -5.1535    1.5712   -1.2021 H   0  0  0  0  0  0  0  0  0  0  0  0
   -5.1940   -0.0447   -1.9682 H   0  0  0  0  0  0  0  0  0  0  0  0
   -2.9406    0.7827   -1.0595 H   0  0  0  0  0  0  0  0  0  0  0  0
   -1.4960   -0.2603    0.8099 H   0  0  0  0  0  0  0  0  0  0  0  0
   -1.7265   -1.9848    0.9194 H   0  0  0  0  0  0  0  0  0  0  0  0
   -0.7429   -2.7781   -2.5186 H   0  0  0  0  0  0  0  0  0  0  0  0
   -2.3311   -1.9630   -2.4951 H   0  0  0  0  0  0  0  0  0  0  0  0
   -1.9387   -3.2348   -1.3129 H   0  0  0  0  0  0  0  0  0  0  0  0
   -0.1211    2.4969   -0.2208 H   0  0  0  0  0  0  0  0  0  0  0  0
    1.4720    3.2576    1.4916 H   0  0  0  0  0  0  0  0  0  0  0  0
    3.4757    2.8416    2.9037 H   0  0  0  0  0  0  0  0  0  0  0  0
    5.3237    1.3690    3.5981 H   0  0  0  0  0  0  0  0  0  0  0  0
    5.5853   -0.8756    2.5775 H   0  0  0  0  0  0  0  0  0  0  0  0
    3.9983   -1.6525    0.8613 H   0  0  0  0  0  0  0  0  0  0  0  0
    1.9914   -1.2485   -0.5486 H   0  0  0  0  0  0  0  0  0  0  0  0
  1  2  1  0
  2  3  1  0
  3  4  2  0
  3  5  1  0
  5  6  1  0
  6  7  1  0
  6  8  1  0
  8  9  2  0
  8 10  2  0
  8 11  1  0
 11 12  2  0
 12 13  1  0
 13 14  2  0
 14 15  1  0
 15 16  2  0
 16 17  1  0
 17 18  2  0
 18 19  1  0
 19 20  2  0
 20 11  1  0
 19 14  1  0
  1 21  1  0
  1 22  1  0
  1 23  1  0
  2 24  1  0
  5 25  1  0
  5 26  1  0
  7 27  1  0
  7 28  1  0
  7 29  1  0
 12 30  1  0
 13 31  1  0
 15 32  1  0
 16 33  1  0
 17 34  1  0
 18 35  1  0
 20 36  1  0
M  END
$$$$
