
     RDKit          3D

 38 40  0  0  0  0  0  0  0  0999 V2000
    2.3183   -2.8180   -0.8460 O   0  0  0  0  0  0  0  0  0  0  0  0
    1.5681   -1.8462   -0.8457 C   0  0  0  0  0  0  0  0  0  0  0  0
    0.0815   -1.9951   -1.2061 C   0  0  0  0  0  0  0  0  0  0  0  0
   -0.7353   -0.9156   -0.5959 N   0  0  0  0  0  0  0  0  0  0  0  0
   -0.9577   -1.1715    0.8421 C   0  0  0  0  0  0  0  0  0  0  0  0
   -1.6441    0.0344    1.4980 C   0  0  0  0  0  0  0  0  0  0  0  0
   -2.8461    0.5071    0.7206 C   0  0  0  0  0  0  0  0  0  0  0  0
   -3.7695    1.3782    1.3135 C   0  0  0  0  0  0  0  0  0  0  0  0
   -4.8648    1.8436    0.5869 C   0  0  0  0  0  0  0  0  0  0  0  0
   -5.0424    1.4476   -0.7366 C   0  0  0  0  0  0  0  0  0  0  0  0
   -4.1221    0.5886   -1.3381 C   0  0  0  0  0  0  0  0  0  0  0  0
   -3.0102    0.1214   -0.6218 C   0  0  0  0  0  0  0  0  0  0  0  0
   -2.0447   -0.8436   -1.2763 C   0  0  0  0  0  0  0  0  0  0  0  0
    1.9215   -0.5349   -0.5960 N   0  0  0  0  0  0  0  0  0  0  0  0
    3.1836   -0.0109   -0.2653 C   0  0  0  0  0  0  0  0  0  0  0  0
    4.3535   -0.7679   -0.1999 C   0  0  0  0  0  0  0  0  0  0  0  0
    5.5690   -0.1591    0.1373 C   0  0  0  0  0  0  0  0  0  0  0  0
    5.6248    1.2082    0.4106 C   0  0  0  0  0  0  0  0  0  0  0  0
    4.4629    1.9726    0.3473 C   0  0  0  0  0  0  0  0  0  0  0  0
    3.2585    1.3603    0.0113 C   0  0  0  0  0  0  0  0  0  0  0  0
    2.1456    2.1100   -0.0428 F   0  0  0  0  0  0  0  0  0  0  0  0
    0.0352   -1.9347   -2.3006 H   0  0  0  0  0  0  0  0  0  0  0  0
   -0.2689   -2.9868   -0.8971 H   0  0  0  0  0  0  0  0  0  0  0  0
   -1.5660   -2.0753    0.9853 H   0  0  0  0  0  0  0  0  0  0  0  0
   -0.0080   -1.3408    1.3631 H   0  0  0  0  0  0  0  0  0  0  0  0
   -1.9436   -0.2397    2.5165 H   0  0  0  0  0  0  0  0  0  0  0  0
   -0.9323    0.8667    1.5680 H   0  0  0  0  0  0  0  0  0  0  0  0
   -3.6369    1.6998    2.3438 H   0  0  0  0  0  0  0  0  0  0  0  0
   -5.5787    2.5174    1.0532 H   0  0  0  0  0  0  0  0  0  0  0  0
   -5.8975    1.8095   -1.3014 H   0  0  0  0  0  0  0  0  0  0  0  0
   -4.2756    0.2865   -2.3715 H   0  0  0  0  0  0  0  0  0  0  0  0
   -2.5232   -1.8318   -1.3056 H   0  0  0  0  0  0  0  0  0  0  0  0
   -1.8779   -0.5157   -2.3101 H   0  0  0  0  0  0  0  0  0  0  0  0
    1.1369    0.1186   -0.5960 H   0  0  0  0  0  0  0  0  0  0  0  0
    4.3543   -1.8335   -0.4081 H   0  0  0  0  0  0  0  0  0  0  0  0
    6.4746   -0.7600    0.1846 H   0  0  0  0  0  0  0  0  0  0  0  0
    6.5720    1.6736    0.6713 H   0  0  0  0  0  0  0  0  0  0  0  0
    4.4848    3.0372    0.5560 H   0  0  0  0  0  0  0  0  0  0  0  0
  1  2  2  0
  2  3  1  0
  3  4  1  0
  4  5  1  0
  5  6  1  0
  6  7  1  0
  7  8  2  0
  8  9  1  0
  9 10  2  0
 10 11  1  0
 11 12  2  0
 12 13  1  0
  2 14  1  0
 14 15  1  0
 15 16  2  0
 16 17  1  0
 17 18  2  0
 18 19  1  0
 19 20  2  0
 20 21  1  0
 13  4  1  0
 20 15  1  0
 12  7  1  0
  3 22  1  0
  3 23  1  0
  5 24  1  0
  5 25  1  0
  6 26  1  0
  6 27  1  0
  8 28  1  0
  9 29  1  0
 10 30  1  0
 11 31  1  0
 13 32  1  0
 13 33  1  0
 14 34  1  0
 16 35  1  0
 17 36  1  0
 18 37  1  0
 19 38  1  0
M  END
$$$$
