
     RDKit          3D

 37 39  0  0  0  0  0  0  0  0999 V2000
    2.1600   -1.0183    1.4853 N   0  0  0  0  0  0  0  0  0  0  0  0
    1.5341   -0.4876    0.3930 C   0  0  0  0  0  0  0  0  0  0  0  0
    0.1928   -0.5021    0.0423 C   0  0  0  0  0  0  0  0  0  0  0  0
   -0.9191   -1.0663    0.7947 C   0  0  0  0  0  0  0  0  0  0  0  0
   -0.7765   -1.6420    1.8706 O   0  0  0  0  0  0  0  0  0  0  0  0
   -2.1425   -0.8920    0.1814 N   0  0  0  0  0  0  0  0  0  0  0  0
   -3.3910   -1.2649    0.8188 C   0  0  0  0  0  0  0  0  0  0  0  0
   -4.5327   -1.3322   -0.1903 C   0  0  0  0  0  0  0  0  0  0  0  0
   -5.0049    0.1122   -0.3496 C   0  0  0  0  0  0  0  0  0  0  0  0
   -4.5342    0.8573    0.9007 C   0  0  0  0  0  0  0  0  0  0  0  0
   -3.8763   -0.1923    1.7909 C   0  0  0  0  0  0  0  0  0  0  0  0
    0.0364    0.0670   -1.1953 N   0  0  0  0  0  0  0  0  0  0  0  0
    1.2286    0.4302   -1.6377 N   0  0  0  0  0  0  0  0  0  0  0  0
    2.1531    0.1873   -0.6666 N   0  0  0  0  0  0  0  0  0  0  0  0
    3.4971    0.6261   -0.8379 C   0  0  0  0  0  0  0  0  0  0  0  0
    3.9249    1.0398   -2.1128 C   0  0  0  0  0  0  0  0  0  0  0  0
    5.2389    1.4704   -2.3168 C   0  0  0  0  0  0  0  0  0  0  0  0
    6.1344    1.5038   -1.2504 C   0  0  0  0  0  0  0  0  0  0  0  0
    5.7078    1.1180    0.0185 C   0  0  0  0  0  0  0  0  0  0  0  0
    6.8096    1.1831    1.3404 Cl  0  0  0  0  0  0  0  0  0  0  0  0
    4.3960    0.6860    0.2337 C   0  0  0  0  0  0  0  0  0  0  0  0
    3.0620   -1.4764    1.3599 H   0  0  0  0  0  0  0  0  0  0  0  0
    1.5691   -1.5805    2.1098 H   0  0  0  0  0  0  0  0  0  0  0  0
   -2.1551   -0.3161   -0.6547 H   0  0  0  0  0  0  0  0  0  0  0  0
   -3.2462   -2.2234    1.3280 H   0  0  0  0  0  0  0  0  0  0  0  0
   -4.2406   -1.7752   -1.1484 H   0  0  0  0  0  0  0  0  0  0  0  0
   -5.3531   -1.9327    0.2222 H   0  0  0  0  0  0  0  0  0  0  0  0
   -6.0934    0.1596   -0.4649 H   0  0  0  0  0  0  0  0  0  0  0  0
   -4.5609    0.5659   -1.2435 H   0  0  0  0  0  0  0  0  0  0  0  0
   -3.8066    1.6284    0.6215 H   0  0  0  0  0  0  0  0  0  0  0  0
   -5.3615    1.3579    1.4148 H   0  0  0  0  0  0  0  0  0  0  0  0
   -4.6316   -0.6189    2.4615 H   0  0  0  0  0  0  0  0  0  0  0  0
   -3.0808    0.2356    2.4079 H   0  0  0  0  0  0  0  0  0  0  0  0
    3.2496    1.0230   -2.9681 H   0  0  0  0  0  0  0  0  0  0  0  0
    5.5617    1.7797   -3.3086 H   0  0  0  0  0  0  0  0  0  0  0  0
    7.1558    1.8402   -1.4119 H   0  0  0  0  0  0  0  0  0  0  0  0
    4.0951    0.4495    1.2491 H   0  0  0  0  0  0  0  0  0  0  0  0
  1  2  1  0
  2  3  2  0
  3  4  1  0
  4  5  2  0
  4  6  1  0
  6  7  1  0
  7  8  1  0
  8  9  1  0
  9 10  1  0
 10 11  1  0
  3 12  1  0
 12 13  2  0
 13 14  1  0
 14 15  1  0
 15 16  2  0
 16 17  1  0
 17 18  2  0
 18 19  1  0
 19 20  1  0
 19 21  2  0
 14  2  1  0
 21 15  1  0
 11  7  1  0
  1 22  1  0
  1 23  1  0
  6 24  1  0
  7 25  1  0
  8 26  1  0
  8 27  1  0
  9 28  1  0
  9 29  1  0
 10 30  1  0
 10 31  1  0
 11 32  1  0
 11 33  1  0
 16 34  1  0
 17 35  1  0
 18 36  1  0
 21 37  1  0
M  END
$$$$
