
     RDKit          3D

 49 52  0  0  0  0  0  0  0  0999 V2000
   -5.3522    2.5596    0.3478 C   0  0  0  0  0  0  0  0  0  0  0  0
   -4.5131    1.4203    0.2007 O   0  0  0  0  0  0  0  0  0  0  0  0
   -5.1026    0.2690   -0.2728 C   0  0  0  0  0  0  0  0  0  0  0  0
   -6.4571    0.1374   -0.5944 C   0  0  0  0  0  0  0  0  0  0  0  0
   -6.9501   -1.0811   -1.0656 C   0  0  0  0  0  0  0  0  0  0  0  0
   -6.0961   -2.1709   -1.2135 C   0  0  0  0  0  0  0  0  0  0  0  0
   -4.7423   -2.0498   -0.8944 C   0  0  0  0  0  0  0  0  0  0  0  0
   -4.2349   -0.8341   -0.4311 C   0  0  0  0  0  0  0  0  0  0  0  0
   -2.8803   -0.6381   -0.0755 N   0  0  0  0  0  0  0  0  0  0  0  0
   -1.8087   -1.4562   -0.3317 C   0  0  0  0  0  0  0  0  0  0  0  0
   -1.8589   -2.4610   -1.0382 O   0  0  0  0  0  0  0  0  0  0  0  0
   -0.6168   -1.0698    0.2793 N   0  0  0  0  0  0  0  0  0  0  0  0
    0.6239   -1.6648   -0.2356 C   0  0  0  0  0  0  0  0  0  0  0  0
    1.7113   -1.8167    0.8416 C   0  0  0  0  0  0  0  0  0  0  0  0
    1.9475   -0.5447    1.5606 N   0  0  0  0  0  0  0  0  0  0  0  0
    2.7372    0.3978    0.8849 C   0  0  0  0  0  0  0  0  0  0  0  0
    4.0240    0.0626    0.4929 C   0  0  0  0  0  0  0  0  0  0  0  0
    4.7692    1.0317   -0.1540 C   0  0  0  0  0  0  0  0  0  0  0  0
    6.0958    0.7518   -0.5817 N   0  0  0  0  0  0  0  0  0  0  0  0
    6.8226   -0.4123   -0.4559 C   0  0  0  0  0  0  0  0  0  0  0  0
    8.0438   -0.1567   -1.0362 C   0  0  0  0  0  0  0  0  0  0  0  0
    8.0978    1.1208   -1.5161 N   0  0  0  0  0  0  0  0  0  0  0  0
    6.9236    1.6410   -1.2314 C   0  0  0  0  0  0  0  0  0  0  0  0
    4.2885    2.2668   -0.4033 N   0  0  0  0  0  0  0  0  0  0  0  0
    3.0486    2.5049    0.0318 C   0  0  0  0  0  0  0  0  0  0  0  0
    2.2555    1.6334    0.6680 N   0  0  0  0  0  0  0  0  0  0  0  0
    0.6997   -0.0150    2.1509 C   0  0  0  0  0  0  0  0  0  0  0  0
   -0.4380    0.1283    1.1188 C   0  0  0  0  0  0  0  0  0  0  0  0
   -4.7340    3.3826    0.7192 H   0  0  0  0  0  0  0  0  0  0  0  0
   -5.7723    2.8681   -0.6151 H   0  0  0  0  0  0  0  0  0  0  0  0
   -6.1400    2.3768    1.0859 H   0  0  0  0  0  0  0  0  0  0  0  0
   -7.1562    0.9598   -0.4904 H   0  0  0  0  0  0  0  0  0  0  0  0
   -8.0034   -1.1815   -1.3158 H   0  0  0  0  0  0  0  0  0  0  0  0
   -6.4806   -3.1210   -1.5764 H   0  0  0  0  0  0  0  0  0  0  0  0
   -4.1075   -2.9228   -1.0094 H   0  0  0  0  0  0  0  0  0  0  0  0
   -2.6875    0.3131    0.2013 H   0  0  0  0  0  0  0  0  0  0  0  0
    0.4297   -2.6459   -0.6814 H   0  0  0  0  0  0  0  0  0  0  0  0
    0.9757   -1.0084   -1.0410 H   0  0  0  0  0  0  0  0  0  0  0  0
    2.6261   -2.2226    0.3965 H   0  0  0  0  0  0  0  0  0  0  0  0
    1.3784   -2.5600    1.5776 H   0  0  0  0  0  0  0  0  0  0  0  0
    4.4179   -0.9156    0.7265 H   0  0  0  0  0  0  0  0  0  0  0  0
    6.4430   -1.3046    0.0169 H   0  0  0  0  0  0  0  0  0  0  0  0
    8.8869   -0.8293   -1.1322 H   0  0  0  0  0  0  0  0  0  0  0  0
    6.6113    2.6504   -1.4676 H   0  0  0  0  0  0  0  0  0  0  0  0
    2.6453    3.4959   -0.1459 H   0  0  0  0  0  0  0  0  0  0  0  0
    0.3759   -0.7283    2.9205 H   0  0  0  0  0  0  0  0  0  0  0  0
    0.8686    0.9316    2.6793 H   0  0  0  0  0  0  0  0  0  0  0  0
   -0.2558    0.9660    0.4374 H   0  0  0  0  0  0  0  0  0  0  0  0
   -1.3594    0.3443    1.6681 H   0  0  0  0  0  0  0  0  0  0  0  0
  1  2  1  0
  2  3  1  0
  3  4  2  0
  4  5  1  0
  5  6  2  0
  6  7  1  0
  7  8  2  0
  8  9  1  0
  9 10  1  0
 10 11  2  0
 10 12  1  0
 12 13  1  0
 13 14  1  0
 14 15  1  0
 15 16  1  0
 16 17  2  0
 17 18  1  0
 18 19  1  0
 19 20  1  0
 20 21  2  0
 21 22  1  0
 22 23  2  0
 18 24  2  0
 24 25  1  0
 25 26  2  0
 15 27  1  0
 27 28  1  0
  8  3  1  0
 28 12  1  0
 26 16  1  0
 23 19  1  0
  1 29  1  0
  1 30  1  0
  1 31  1  0
  4 32  1  0
  5 33  1  0
  6 34  1  0
  7 35  1  0
  9 36  1  0
 13 37  1  0
 13 38  1  0
 14 39  1  0
 14 40  1  0
 17 41  1  0
 20 42  1  0
 21 43  1  0
 23 44  1  0
 25 45  1  0
 27 46  1  0
 27 47  1  0
 28 48  1  0
 28 49  1  0
M  END
$$$$
