
     RDKit          3D

 53 55  0  0  0  0  0  0  0  0999 V2000
   -6.4086    0.4989   -0.5970 C   0  0  0  0  0  0  0  0  0  0  0  0
   -5.9072   -0.8744   -0.1266 C   0  0  0  0  0  0  0  0  0  0  0  0
   -7.1398   -1.6086    0.4673 C   0  0  0  0  0  0  0  0  0  0  0  0
   -5.4055   -1.7362   -1.2946 C   0  0  0  0  0  0  0  0  0  0  0  0
   -4.8328   -0.7771    0.9931 C   0  0  0  0  0  0  0  0  0  0  0  0
   -4.9892   -1.4391    2.0280 O   0  0  0  0  0  0  0  0  0  0  0  0
   -3.6890    0.0045    0.8542 N   0  0  0  0  0  0  0  0  0  0  0  0
   -2.7869    0.0629    2.0133 C   0  0  0  0  0  0  0  0  0  0  0  0
   -1.9757    1.3539    2.0491 C   0  0  0  0  0  0  0  0  0  0  0  0
   -1.1091    1.5116    0.7918 C   0  0  0  0  0  0  0  0  0  0  0  0
    0.2756    0.8776    0.9749 C   0  0  0  0  0  0  0  0  0  0  0  0
    0.5227    0.1411    1.9222 O   0  0  0  0  0  0  0  0  0  0  0  0
    1.1422    1.2377   -0.0350 N   0  0  0  0  0  0  0  0  0  0  0  0
    2.4404    0.8281   -0.2024 C   0  0  0  0  0  0  0  0  0  0  0  0
    3.1597    1.2943   -1.1946 N   0  0  0  0  0  0  0  0  0  0  0  0
    4.4234    0.7294   -1.1600 C   0  0  0  0  0  0  0  0  0  0  0  0
    5.4703    0.9877   -2.0694 C   0  0  0  0  0  0  0  0  0  0  0  0
    6.7035    0.3451   -1.9149 C   0  0  0  0  0  0  0  0  0  0  0  0
    6.8951   -0.5426   -0.8570 C   0  0  0  0  0  0  0  0  0  0  0  0
    8.4617   -1.3708   -0.6805 S   0  0  0  0  0  6  0  0  0  0  0  0
    9.3257   -0.3632    0.4960 C   0  0  0  0  0  0  0  0  0  0  0  0
    9.1528   -1.2723   -1.9518 O   0  0  0  0  0  0  0  0  0  0  0  0
    8.2005   -2.6607   -0.0722 O   0  0  0  0  0  0  0  0  0  0  0  0
    5.8713   -0.8344    0.0540 C   0  0  0  0  0  0  0  0  0  0  0  0
    4.6431   -0.1756   -0.1190 C   0  0  0  0  0  0  0  0  0  0  0  0
    3.2045   -0.2960    0.8168 S   0  0  0  0  0  0  0  0  0  0  0  0
   -1.7897    0.9175   -0.4517 C   0  0  0  0  0  0  0  0  0  0  0  0
   -3.3044    0.8141   -0.2988 C   0  0  0  0  0  0  0  0  0  0  0  0
   -7.3757    0.4161   -1.1071 H   0  0  0  0  0  0  0  0  0  0  0  0
   -5.7363    0.9768   -1.3125 H   0  0  0  0  0  0  0  0  0  0  0  0
   -6.5365    1.1824    0.2498 H   0  0  0  0  0  0  0  0  0  0  0  0
   -7.5468   -1.0641    1.3278 H   0  0  0  0  0  0  0  0  0  0  0  0
   -7.9418   -1.7094   -0.2734 H   0  0  0  0  0  0  0  0  0  0  0  0
   -6.8822   -2.6188    0.8072 H   0  0  0  0  0  0  0  0  0  0  0  0
   -6.2055   -1.9165   -2.0220 H   0  0  0  0  0  0  0  0  0  0  0  0
   -5.0548   -2.7110   -0.9353 H   0  0  0  0  0  0  0  0  0  0  0  0
   -4.5749   -1.2873   -1.8408 H   0  0  0  0  0  0  0  0  0  0  0  0
   -2.1294   -0.8126    1.9575 H   0  0  0  0  0  0  0  0  0  0  0  0
   -3.3637   -0.0180    2.9415 H   0  0  0  0  0  0  0  0  0  0  0  0
   -2.6702    2.2027    2.1068 H   0  0  0  0  0  0  0  0  0  0  0  0
   -1.3702    1.3917    2.9618 H   0  0  0  0  0  0  0  0  0  0  0  0
   -0.9476    2.5880    0.6422 H   0  0  0  0  0  0  0  0  0  0  0  0
    0.8474    1.8961   -0.7421 H   0  0  0  0  0  0  0  0  0  0  0  0
    5.3078    1.6806   -2.8900 H   0  0  0  0  0  0  0  0  0  0  0  0
    7.4984    0.5418   -2.6324 H   0  0  0  0  0  0  0  0  0  0  0  0
    8.7658   -0.3478    1.4330 H   0  0  0  0  0  0  0  0  0  0  0  0
    9.4331    0.6448    0.0910 H   0  0  0  0  0  0  0  0  0  0  0  0
   10.3112   -0.8042    0.6603 H   0  0  0  0  0  0  0  0  0  0  0  0
    6.0095   -1.5486    0.8616 H   0  0  0  0  0  0  0  0  0  0  0  0
   -1.3910   -0.0841   -0.6626 H   0  0  0  0  0  0  0  0  0  0  0  0
   -1.5520    1.5330   -1.3279 H   0  0  0  0  0  0  0  0  0  0  0  0
   -3.7096    0.4043   -1.2192 H   0  0  0  0  0  0  0  0  0  0  0  0
   -3.7396    1.8105   -0.1584 H   0  0  0  0  0  0  0  0  0  0  0  0
  1  2  1  0
  2  3  1  0
  2  4  1  0
  2  5  1  0
  5  6  2  0
  5  7  1  0
  7  8  1  0
  8  9  1  0
  9 10  1  0
 10 11  1  0
 11 12  2  0
 11 13  1  0
 13 14  1  0
 14 15  2  0
 15 16  1  0
 16 17  2  0
 17 18  1  0
 18 19  2  0
 19 20  1  0
 20 21  1  0
 20 22  2  0
 20 23  2  0
 19 24  1  0
 24 25  2  0
 25 26  1  0
 10 27  1  0
 27 28  1  0
 28  7  1  0
 26 14  1  0
 25 16  1  0
  1 29  1  0
  1 30  1  0
  1 31  1  0
  3 32  1  0
  3 33  1  0
  3 34  1  0
  4 35  1  0
  4 36  1  0
  4 37  1  0
  8 38  1  0
  8 39  1  0
  9 40  1  0
  9 41  1  0
 10 42  1  0
 13 43  1  0
 17 44  1  0
 18 45  1  0
 21 46  1  0
 21 47  1  0
 21 48  1  0
 24 49  1  0
 27 50  1  0
 27 51  1  0
 28 52  1  0
 28 53  1  0
M  END
$$$$
