
     RDKit          3D

 35 35  0  0  0  0  0  0  0  0999 V2000
    6.5855    0.3161    0.2081 C   0  0  0  0  0  0  0  0  0  0  0  0
    5.5461   -0.2289    1.0088 O   0  0  0  0  0  0  0  0  0  0  0  0
    4.2556   -0.0648    0.5799 C   0  0  0  0  0  0  0  0  0  0  0  0
    3.8884    0.6015   -0.5906 C   0  0  0  0  0  0  0  0  0  0  0  0
    2.5383    0.7182   -0.9462 C   0  0  0  0  0  0  0  0  0  0  0  0
    1.5296    0.1736   -0.1428 C   0  0  0  0  0  0  0  0  0  0  0  0
    0.1996    0.3414   -0.5824 N   0  0  0  0  0  0  0  0  0  0  0  0
   -0.9609   -0.1050    0.0370 C   0  0  0  0  0  0  0  0  0  0  0  0
   -1.0176   -0.7295    1.0872 O   0  0  0  0  0  0  0  0  0  0  0  0
   -2.1963    0.2881   -0.7728 C   0  0  0  0  0  0  0  0  0  0  0  0
   -3.5814   -0.1324   -0.2236 C   0  0  0  0  0  0  0  0  0  0  0  0
   -3.8618    0.5039    1.1480 C   0  0  0  0  0  0  0  0  0  0  0  0
   -4.6521    0.3779   -1.2124 C   0  0  0  0  0  0  0  0  0  0  0  0
   -3.7118   -1.6619   -0.1318 C   0  0  0  0  0  0  0  0  0  0  0  0
    1.8924   -0.4923    1.0267 C   0  0  0  0  0  0  0  0  0  0  0  0
    3.2424   -0.6100    1.3840 C   0  0  0  0  0  0  0  0  0  0  0  0
    3.6203   -1.4505    2.8506 Cl  0  0  0  0  0  0  0  0  0  0  0  0
    6.4973    1.4050    0.1344 H   0  0  0  0  0  0  0  0  0  0  0  0
    6.6048   -0.1481   -0.7834 H   0  0  0  0  0  0  0  0  0  0  0  0
    7.5378    0.0923    0.6984 H   0  0  0  0  0  0  0  0  0  0  0  0
    4.6257    1.0437   -1.2525 H   0  0  0  0  0  0  0  0  0  0  0  0
    2.2923    1.2445   -1.8657 H   0  0  0  0  0  0  0  0  0  0  0  0
    0.0796    0.8466   -1.4515 H   0  0  0  0  0  0  0  0  0  0  0  0
   -2.0671   -0.1369   -1.7778 H   0  0  0  0  0  0  0  0  0  0  0  0
   -2.1722    1.3813   -0.8806 H   0  0  0  0  0  0  0  0  0  0  0  0
   -4.8865    0.2937    1.4758 H   0  0  0  0  0  0  0  0  0  0  0  0
   -3.7437    1.5926    1.1090 H   0  0  0  0  0  0  0  0  0  0  0  0
   -3.1934    0.1229    1.9255 H   0  0  0  0  0  0  0  0  0  0  0  0
   -4.6130    1.4687   -1.3107 H   0  0  0  0  0  0  0  0  0  0  0  0
   -5.6615    0.1109   -0.8790 H   0  0  0  0  0  0  0  0  0  0  0  0
   -4.5077   -0.0528   -2.2098 H   0  0  0  0  0  0  0  0  0  0  0  0
   -3.0402   -2.0904    0.6175 H   0  0  0  0  0  0  0  0  0  0  0  0
   -3.4857   -2.1352   -1.0938 H   0  0  0  0  0  0  0  0  0  0  0  0
   -4.7310   -1.9525    0.1484 H   0  0  0  0  0  0  0  0  0  0  0  0
    1.1483   -0.9317    1.6831 H   0  0  0  0  0  0  0  0  0  0  0  0
  1  2  1  0
  2  3  1  0
  3  4  2  0
  4  5  1  0
  5  6  2  0
  6  7  1  0
  7  8  1  0
  8  9  2  0
  8 10  1  0
 10 11  1  0
 11 12  1  0
 11 13  1  0
 11 14  1  0
  6 15  1  0
 15 16  2  0
 16 17  1  0
 16  3  1  0
  1 18  1  0
  1 19  1  0
  1 20  1  0
  4 21  1  0
  5 22  1  0
  7 23  1  0
 10 24  1  0
 10 25  1  0
 12 26  1  0
 12 27  1  0
 12 28  1  0
 13 29  1  0
 13 30  1  0
 13 31  1  0
 14 32  1  0
 14 33  1  0
 14 34  1  0
 15 35  1  0
M  END
$$$$
