
     RDKit          3D

 38 40  0  0  0  0  0  0  0  0999 V2000
   -1.7082    2.2571   -2.8114 C   0  0  0  0  0  0  0  0  0  0  0  0
   -1.9330    1.2927   -1.7498 N   0  0  0  0  0  0  0  0  0  0  0  0
   -2.9731    1.5222   -0.8622 C   0  0  0  0  0  0  0  0  0  0  0  0
   -3.7495    2.4714   -0.9412 O   0  0  0  0  0  0  0  0  0  0  0  0
   -3.1254    0.5588    0.2405 C   0  0  0  0  0  0  0  0  0  0  0  0
   -4.1133    0.7789    1.2132 C   0  0  0  0  0  0  0  0  0  0  0  0
   -4.2596   -0.1111    2.2723 C   0  0  0  0  0  0  0  0  0  0  0  0
   -3.4174   -1.2137    2.3598 C   0  0  0  0  0  0  0  0  0  0  0  0
   -2.4362   -1.4327    1.3856 C   0  0  0  0  0  0  0  0  0  0  0  0
   -2.2824   -0.5512    0.3040 C   0  0  0  0  0  0  0  0  0  0  0  0
   -1.3042   -0.7395   -0.7096 N   0  0  0  0  0  0  0  0  0  0  0  0
   -0.4496   -1.9296   -0.7175 C   0  0  0  0  0  0  0  0  0  0  0  0
    0.8194   -1.7122    0.1102 C   0  0  0  0  0  0  0  0  0  0  0  0
    0.9693   -2.2856    1.1859 O   0  0  0  0  0  0  0  0  0  0  0  0
    1.7075   -0.8370   -0.4937 N   0  0  0  0  0  0  0  0  0  0  0  0
    2.9570   -0.4028   -0.0143 C   0  0  0  0  0  0  0  0  0  0  0  0
    3.6552    0.5204   -0.8051 C   0  0  0  0  0  0  0  0  0  0  0  0
    4.9023    1.0063   -0.4014 C   0  0  0  0  0  0  0  0  0  0  0  0
    5.4572    0.5699    0.7979 C   0  0  0  0  0  0  0  0  0  0  0  0
    6.9902    1.1664    1.2996 Cl  0  0  0  0  0  0  0  0  0  0  0  0
    4.7757   -0.3480    1.5918 C   0  0  0  0  0  0  0  0  0  0  0  0
    3.5270   -0.8334    1.1857 C   0  0  0  0  0  0  0  0  0  0  0  0
   -1.0688    0.2135   -1.6907 C   0  0  0  0  0  0  0  0  0  0  0  0
   -0.1065    0.1016   -2.4589 O   0  0  0  0  0  0  0  0  0  0  0  0
   -0.7067    2.6844   -2.6948 H   0  0  0  0  0  0  0  0  0  0  0  0
   -2.4415    3.0675   -2.8061 H   0  0  0  0  0  0  0  0  0  0  0  0
   -1.7527    1.7415   -3.7764 H   0  0  0  0  0  0  0  0  0  0  0  0
   -4.7652    1.6481    1.1486 H   0  0  0  0  0  0  0  0  0  0  0  0
   -5.0199    0.0611    3.0299 H   0  0  0  0  0  0  0  0  0  0  0  0
   -3.5150   -1.9060    3.1934 H   0  0  0  0  0  0  0  0  0  0  0  0
   -1.7933   -2.2975    1.5253 H   0  0  0  0  0  0  0  0  0  0  0  0
   -0.9899   -2.8133   -0.3646 H   0  0  0  0  0  0  0  0  0  0  0  0
   -0.1498   -2.1704   -1.7456 H   0  0  0  0  0  0  0  0  0  0  0  0
    1.4010   -0.4346   -1.3811 H   0  0  0  0  0  0  0  0  0  0  0  0
    3.2376    0.8741   -1.7452 H   0  0  0  0  0  0  0  0  0  0  0  0
    5.4316    1.7211   -1.0260 H   0  0  0  0  0  0  0  0  0  0  0  0
    5.2039   -0.6918    2.5300 H   0  0  0  0  0  0  0  0  0  0  0  0
    3.0263   -1.5467    1.8330 H   0  0  0  0  0  0  0  0  0  0  0  0
  1  2  1  0
  2  3  1  0
  3  4  2  0
  3  5  1  0
  5  6  2  0
  6  7  1  0
  7  8  2  0
  8  9  1  0
  9 10  2  0
 10 11  1  0
 11 12  1  0
 12 13  1  0
 13 14  2  0
 13 15  1  0
 15 16  1  0
 16 17  2  0
 17 18  1  0
 18 19  2  0
 19 20  1  0
 19 21  1  0
 21 22  2  0
 11 23  1  0
 23 24  2  0
 23  2  1  0
 10  5  1  0
 22 16  1  0
  1 25  1  0
  1 26  1  0
  1 27  1  0
  6 28  1  0
  7 29  1  0
  8 30  1  0
  9 31  1  0
 12 32  1  0
 12 33  1  0
 15 34  1  0
 17 35  1  0
 18 36  1  0
 21 37  1  0
 22 38  1  0
M  END
$$$$
