
     RDKit          3D

 46 46  0  0  0  0  0  0  0  0999 V2000
   -1.5431    2.7601    0.8530 C   0  0  0  0  0  0  0  0  0  0  0  0
   -1.1166    1.5523    0.2146 N   0  0  0  0  0  0  0  0  0  0  0  0
   -0.5208    1.7654   -1.0534 C   0  0  0  0  0  0  0  0  0  0  0  0
    0.8114    2.4918   -0.9747 C   0  0  0  0  0  0  0  0  0  0  0  0
    1.3374    2.6700   -2.2609 O   0  0  0  0  0  0  0  0  0  0  0  0
    1.8197    1.6394   -0.2227 C   0  0  0  0  0  0  0  0  0  0  0  0
    1.9444    0.4169   -0.9224 O   0  0  0  0  0  0  0  0  0  0  0  0
    2.8029   -0.5596   -0.4648 C   0  0  0  0  0  0  0  0  0  0  0  0
    2.9238   -1.7626   -1.1578 C   0  0  0  0  0  0  0  0  0  0  0  0
    3.7752   -2.7265   -0.7013 C   0  0  0  0  0  0  0  0  0  0  0  0
    4.5221   -2.5255    0.4432 C   0  0  0  0  0  0  0  0  0  0  0  0
    5.3689   -3.5140    0.8772 F   0  0  0  0  0  0  0  0  0  0  0  0
    4.3830   -1.3340    1.1037 C   0  0  0  0  0  0  0  0  0  0  0  0
    3.5298   -0.3202    0.6800 C   0  0  0  0  0  0  0  0  0  0  0  0
   -1.8763    0.4037    0.4437 C   0  0  0  0  0  0  0  0  0  0  0  0
   -3.2931    0.3814   -0.0123 C   0  0  0  0  0  0  0  0  0  0  0  0
   -4.0047   -0.7782    0.6496 C   0  0  0  0  0  0  0  0  0  0  0  0
   -3.0973   -1.8154    1.2195 C   0  0  0  0  0  0  0  0  0  0  0  0
   -1.9202   -2.0950    0.3371 C   0  0  0  0  0  0  0  0  0  0  0  0
   -1.1958   -0.8266   -0.0971 C   0  0  0  0  0  0  0  0  0  0  0  0
    0.6871    0.0000    0.0000 Cl  0  0  0  0  0  0  0  0  0  0  0  0
   -1.4618    3.5810    0.1081 H   0  0  0  0  0  0  0  0  0  0  0  0
   -0.8228    2.9748    1.6750 H   0  0  0  0  0  0  0  0  0  0  0  0
   -2.5741    2.7507    1.1976 H   0  0  0  0  0  0  0  0  0  0  0  0
   -0.3038    0.8692   -1.6576 H   0  0  0  0  0  0  0  0  0  0  0  0
   -1.2054    2.4061   -1.6611 H   0  0  0  0  0  0  0  0  0  0  0  0
    0.7464    3.4745   -0.5019 H   0  0  0  0  0  0  0  0  0  0  0  0
    1.9708    1.9530   -2.4747 H   0  0  0  0  0  0  0  0  0  0  0  0
    1.3854    1.4248    0.7731 H   0  0  0  0  0  0  0  0  0  0  0  0
    2.7961    2.1582   -0.1313 H   0  0  0  0  0  0  0  0  0  0  0  0
    2.3195   -1.8878   -2.0569 H   0  0  0  0  0  0  0  0  0  0  0  0
    3.8873   -3.6621   -1.2162 H   0  0  0  0  0  0  0  0  0  0  0  0
    4.9578   -1.1379    2.0142 H   0  0  0  0  0  0  0  0  0  0  0  0
    3.4424    0.6090    1.2243 H   0  0  0  0  0  0  0  0  0  0  0  0
   -1.9204    0.2420    1.5660 H   0  0  0  0  0  0  0  0  0  0  0  0
   -3.8740    1.2767    0.2031 H   0  0  0  0  0  0  0  0  0  0  0  0
   -3.2664    0.1452   -1.1143 H   0  0  0  0  0  0  0  0  0  0  0  0
   -4.7181   -1.2228   -0.0803 H   0  0  0  0  0  0  0  0  0  0  0  0
   -4.6770   -0.3718    1.4632 H   0  0  0  0  0  0  0  0  0  0  0  0
   -3.6874   -2.7587    1.2840 H   0  0  0  0  0  0  0  0  0  0  0  0
   -2.7432   -1.4814    2.2093 H   0  0  0  0  0  0  0  0  0  0  0  0
   -2.2378   -2.6614   -0.5789 H   0  0  0  0  0  0  0  0  0  0  0  0
   -1.2374   -2.7864    0.8764 H   0  0  0  0  0  0  0  0  0  0  0  0
   -0.1516   -0.9378    0.2187 H   0  0  0  0  0  0  0  0  0  0  0  0
   -1.2750   -0.7807   -1.2191 H   0  0  0  0  0  0  0  0  0  0  0  0
   -0.6871    0.0000    0.0000 H   0  0  0  0  0  0  0  0  0  0  0  0
  1  2  1  0
  2  3  1  0
  3  4  1  0
  4  5  1  0
  4  6  1  0
  6  7  1  0
  7  8  1  0
  8  9  2  0
  9 10  1  0
 10 11  2  0
 11 12  1  0
 11 13  1  0
 13 14  2  0
  2 15  1  0
 15 16  1  0
 16 17  1  0
 17 18  1  0
 18 19  1  0
 19 20  1  0
 14  8  1  0
 20 15  1  0
  1 22  1  0
  1 23  1  0
  1 24  1  0
  3 25  1  0
  3 26  1  0
  4 27  1  0
  5 28  1  0
  6 29  1  0
  6 30  1  0
  9 31  1  0
 10 32  1  0
 13 33  1  0
 14 34  1  0
 15 35  1  0
 16 36  1  0
 16 37  1  0
 17 38  1  0
 17 39  1  0
 18 40  1  0
 18 41  1  0
 19 42  1  0
 19 43  1  0
 20 44  1  0
 20 45  1  0
 21 46  1  0
M  END
$$$$
