
     RDKit          3D

 34 36  0  0  0  0  0  0  0  0999 V2000
    6.6889    0.3816   -0.8613 C   0  0  0  0  0  0  0  0  0  0  0  0
    5.9016   -0.7860   -0.6708 O   0  0  0  0  0  0  0  0  0  0  0  0
    4.5690   -0.6232   -0.3978 C   0  0  0  0  0  0  0  0  0  0  0  0
    3.9219    0.6151   -0.3207 C   0  0  0  0  0  0  0  0  0  0  0  0
    2.5516    0.6862   -0.0392 C   0  0  0  0  0  0  0  0  0  0  0  0
    1.8124   -0.4851    0.1624 C   0  0  0  0  0  0  0  0  0  0  0  0
    0.3576   -0.4524    0.4697 C   0  0  0  0  0  0  0  0  0  0  0  0
   -0.1527   -1.3565    1.1232 O   0  0  0  0  0  0  0  0  0  0  0  0
   -0.3450    0.6160   -0.0568 N   0  0  0  0  0  0  0  0  0  0  0  0
   -1.7271    0.5550    0.0335 N   0  0  0  0  0  0  0  0  0  0  0  0
   -2.5070   -0.0442   -0.9198 C   0  0  0  0  0  0  0  0  0  0  0  0
   -2.1932   -0.5055   -2.0012 O   0  0  0  0  0  0  0  0  0  0  0  0
   -3.8724    0.0211   -0.3943 C   0  0  0  0  0  0  0  0  0  0  0  0
   -5.0565   -0.4399   -0.9352 C   0  0  0  0  0  0  0  0  0  0  0  0
   -6.2231   -0.2228   -0.1948 C   0  0  0  0  0  0  0  0  0  0  0  0
   -6.1796    0.4421    1.0491 C   0  0  0  0  0  0  0  0  0  0  0  0
   -4.9687    0.9025    1.5763 C   0  0  0  0  0  0  0  0  0  0  0  0
   -3.8290    0.6756    0.8298 C   0  0  0  0  0  0  0  0  0  0  0  0
   -2.4353    1.0378    1.1032 C   0  0  0  0  0  0  0  0  0  0  0  0
   -2.0662    1.6713    2.0741 O   0  0  0  0  0  0  0  0  0  0  0  0
    2.4529   -1.7256    0.1037 C   0  0  0  0  0  0  0  0  0  0  0  0
    3.8192   -1.7922   -0.1800 C   0  0  0  0  0  0  0  0  0  0  0  0
    4.5528   -3.3574   -0.2535 Cl  0  0  0  0  0  0  0  0  0  0  0  0
    7.7178    0.0633   -1.0550 H   0  0  0  0  0  0  0  0  0  0  0  0
    6.3469    0.9498   -1.7324 H   0  0  0  0  0  0  0  0  0  0  0  0
    6.6971    1.0037    0.0396 H   0  0  0  0  0  0  0  0  0  0  0  0
    4.4576    1.5484   -0.4656 H   0  0  0  0  0  0  0  0  0  0  0  0
    2.0879    1.6659    0.0488 H   0  0  0  0  0  0  0  0  0  0  0  0
    0.0150    1.1076   -0.8662 H   0  0  0  0  0  0  0  0  0  0  0  0
   -5.0773   -0.9510   -1.8924 H   0  0  0  0  0  0  0  0  0  0  0  0
   -7.1793   -0.5726   -0.5809 H   0  0  0  0  0  0  0  0  0  0  0  0
   -7.1027    0.5963    1.6058 H   0  0  0  0  0  0  0  0  0  0  0  0
   -4.9219    1.4143    2.5323 H   0  0  0  0  0  0  0  0  0  0  0  0
    1.8865   -2.6390    0.2760 H   0  0  0  0  0  0  0  0  0  0  0  0
  1  2  1  0
  2  3  1  0
  3  4  2  0
  4  5  1  0
  5  6  2  0
  6  7  1  0
  7  8  2  0
  7  9  1  0
  9 10  1  0
 10 11  1  0
 11 12  2  0
 11 13  1  0
 13 14  2  0
 14 15  1  0
 15 16  2  0
 16 17  1  0
 17 18  2  0
 18 19  1  0
 19 20  2  0
  6 21  1  0
 21 22  2  0
 22 23  1  0
 22  3  1  0
 19 10  1  0
 18 13  1  0
  1 24  1  0
  1 25  1  0
  1 26  1  0
  4 27  1  0
  5 28  1  0
  9 29  1  0
 14 30  1  0
 15 31  1  0
 16 32  1  0
 17 33  1  0
 21 34  1  0
M  END
$$$$
