
     RDKit          3D

 45 46  0  0  0  0  0  0  0  0999 V2000
   -2.7135    4.4049   -0.7794 C   0  0  0  0  0  0  0  0  0  0  0  0
   -3.0626    3.9454    0.6280 C   0  0  0  0  0  0  0  0  0  0  0  0
   -3.2216    2.5041    0.6982 N   0  0  0  0  0  0  0  0  0  0  0  0
   -2.0756    1.7283    0.6327 C   0  0  0  0  0  0  0  0  0  0  0  0
   -2.2224    0.5450    0.0524 N   0  0  0  0  0  0  0  0  0  0  0  0
   -1.1342   -0.2093   -0.0395 C   0  0  0  0  0  0  0  0  0  0  0  0
   -1.1773   -1.4433   -0.6755 N   0  0  0  0  0  0  0  0  0  0  0  0
   -2.4055   -2.2137   -0.5124 C   0  0  0  0  0  0  0  0  0  0  0  0
   -3.3534   -1.9345   -1.6785 C   0  0  0  0  0  0  0  0  0  0  0  0
   -2.0510   -3.7023   -0.4819 C   0  0  0  0  0  0  0  0  0  0  0  0
    0.0485    0.1415    0.4307 N   0  0  0  0  0  0  0  0  0  0  0  0
    0.0591    1.3104    1.0395 C   0  0  0  0  0  0  0  0  0  0  0  0
    1.2833    1.8353    1.4519 N   0  0  0  0  0  0  0  0  0  0  0  0
    2.2993    0.8199    2.2912 S   0  0  0  0  0  6  0  0  0  0  0  0
    3.3340    1.6652    2.8532 O   0  0  0  0  0  0  0  0  0  0  0  0
    1.5193   -0.0472    3.1489 O   0  0  0  0  0  0  0  0  0  0  0  0
    3.0784   -0.1530    1.0279 C   0  0  0  0  0  0  0  0  0  0  0  0
    2.8756   -1.5334    0.9827 C   0  0  0  0  0  0  0  0  0  0  0  0
    3.5031   -2.2870   -0.0126 C   0  0  0  0  0  0  0  0  0  0  0  0
    4.3681   -1.6815   -0.9304 C   0  0  0  0  0  0  0  0  0  0  0  0
    4.8962   -2.4235   -1.9927 N   0  0  0  0  0  0  0  0  0  0  0  0
    4.5207   -0.2910   -0.9000 C   0  0  0  0  0  0  0  0  0  0  0  0
    3.9002    0.4750    0.0901 C   0  0  0  0  0  0  0  0  0  0  0  0
   -0.9331    2.1758    1.1271 N   0  0  0  0  0  0  0  0  0  0  0  0
   -1.7409    4.0172   -1.0993 H   0  0  0  0  0  0  0  0  0  0  0  0
   -2.6710    5.4977   -0.8209 H   0  0  0  0  0  0  0  0  0  0  0  0
   -3.4638    4.0647   -1.5011 H   0  0  0  0  0  0  0  0  0  0  0  0
   -2.3217    4.3091    1.3496 H   0  0  0  0  0  0  0  0  0  0  0  0
   -4.0172    4.4011    0.9149 H   0  0  0  0  0  0  0  0  0  0  0  0
   -3.8960    2.1034    0.0546 H   0  0  0  0  0  0  0  0  0  0  0  0
   -0.3194   -1.9211   -0.4163 H   0  0  0  0  0  0  0  0  0  0  0  0
   -2.9054   -1.9759    0.4357 H   0  0  0  0  0  0  0  0  0  0  0  0
   -3.6514   -0.8818   -1.7119 H   0  0  0  0  0  0  0  0  0  0  0  0
   -2.8822   -2.1718   -2.6392 H   0  0  0  0  0  0  0  0  0  0  0  0
   -4.2650   -2.5349   -1.5902 H   0  0  0  0  0  0  0  0  0  0  0  0
   -2.9507   -4.3159   -0.3673 H   0  0  0  0  0  0  0  0  0  0  0  0
   -1.3824   -3.9244    0.3573 H   0  0  0  0  0  0  0  0  0  0  0  0
   -1.5409   -4.0113   -1.4014 H   0  0  0  0  0  0  0  0  0  0  0  0
    1.2080    2.7568    1.8672 H   0  0  0  0  0  0  0  0  0  0  0  0
    2.2239   -2.0247    1.7011 H   0  0  0  0  0  0  0  0  0  0  0  0
    3.3141   -3.3561   -0.0639 H   0  0  0  0  0  0  0  0  0  0  0  0
    5.0189   -3.4098   -1.7860 H   0  0  0  0  0  0  0  0  0  0  0  0
    5.7256   -2.0125   -2.4099 H   0  0  0  0  0  0  0  0  0  0  0  0
    5.1307    0.2079   -1.6488 H   0  0  0  0  0  0  0  0  0  0  0  0
    4.0515    1.5512    0.1165 H   0  0  0  0  0  0  0  0  0  0  0  0
  1  2  1  0
  2  3  1  0
  3  4  1  0
  4  5  2  0
  5  6  1  0
  6  7  1  0
  7  8  1  0
  8  9  1  0
  8 10  1  0
  6 11  2  0
 11 12  1  0
 12 13  1  0
 13 14  1  0
 14 15  2  0
 14 16  2  0
 14 17  1  0
 17 18  2  0
 18 19  1  0
 19 20  2  0
 20 21  1  0
 20 22  1  0
 22 23  2  0
 12 24  2  0
 24  4  1  0
 23 17  1  0
  1 25  1  0
  1 26  1  0
  1 27  1  0
  2 28  1  0
  2 29  1  0
  3 30  1  0
  7 31  1  0
  8 32  1  0
  9 33  1  0
  9 34  1  0
  9 35  1  0
 10 36  1  0
 10 37  1  0
 10 38  1  0
 13 39  1  0
 18 40  1  0
 19 41  1  0
 21 42  1  0
 21 43  1  0
 22 44  1  0
 23 45  1  0
M  END
$$$$
