
     RDKit          3D

 54 55  0  0  0  0  0  0  0  0999 V2000
    0.6863    0.0000    0.0000 Cl  0  0  0  0  0  0  0  0  0  0  0  0
    0.6909    0.0000    0.0000 Cl  0  0  0  0  0  0  0  0  0  0  0  0
    5.2468   -3.1323    0.3220 C   0  0  0  0  0  0  0  0  0  0  0  0
    6.0898   -2.1097   -0.0750 C   0  0  0  0  0  0  0  0  0  0  0  0
    5.6226   -0.8248   -0.2468 C   0  0  0  0  0  0  0  0  0  0  0  0
    4.3049   -0.5146   -0.0301 C   0  0  0  0  0  0  0  0  0  0  0  0
    3.7971    0.8793   -0.2129 C   0  0  0  0  0  0  0  0  0  0  0  0
    2.3917    0.8966   -0.0652 O   0  0  0  0  0  0  0  0  0  0  0  0
    1.7265    2.1108   -0.1975 C   0  0  0  0  0  0  0  0  0  0  0  0
    2.4157    3.2921   -0.4689 C   0  0  0  0  0  0  0  0  0  0  0  0
    1.6801    4.4590   -0.5855 C   0  0  0  0  0  0  0  0  0  0  0  0
    0.3246    4.4887   -0.4455 C   0  0  0  0  0  0  0  0  0  0  0  0
   -0.3191    3.2876   -0.1758 C   0  0  0  0  0  0  0  0  0  0  0  0
    0.3559    2.1068   -0.0507 C   0  0  0  0  0  0  0  0  0  0  0  0
   -0.3482    0.8418    0.2313 C   0  0  0  0  0  0  0  0  0  0  0  0
   -1.7811    1.0267    0.3565 N   0  0  0  0  0  0  0  0  0  0  0  0
   -2.3761   -0.2468    0.6187 C   0  0  0  0  0  0  0  0  0  0  0  0
   -2.1367   -1.1908   -0.5529 C   0  0  0  0  0  0  0  0  0  0  0  0
   -3.2985   -2.0425   -0.7106 N   0  0  0  0  0  0  0  0  0  0  0  0
   -4.4164   -1.3173   -1.2771 C   0  0  0  0  0  0  0  0  0  0  0  0
   -4.6224   -0.0633   -0.4727 C   0  0  0  0  0  0  0  0  0  0  0  0
   -3.8734   -0.1556    0.8471 C   0  0  0  0  0  0  0  0  0  0  0  0
   -4.2873   -1.4896    1.4666 C   0  0  0  0  0  0  0  0  0  0  0  0
   -3.6388   -2.5634    0.6012 C   0  0  0  0  0  0  0  0  0  0  0  0
    3.4423   -1.5056    0.3642 C   0  0  0  0  0  0  0  0  0  0  0  0
    3.9254   -2.7780    0.5298 C   0  0  0  0  0  0  0  0  0  0  0  0
   -0.6863    0.0000    0.0000 H   0  0  0  0  0  0  0  0  0  0  0  0
   -0.6909    0.0000    0.0000 H   0  0  0  0  0  0  0  0  0  0  0  0
    5.5705   -4.1482    0.4686 H   0  0  0  0  0  0  0  0  0  0  0  0
    7.1250   -2.3663   -0.2418 H   0  0  0  0  0  0  0  0  0  0  0  0
    6.3015   -0.0339   -0.5606 H   0  0  0  0  0  0  0  0  0  0  0  0
    4.0450    1.2585   -1.2249 H   0  0  0  0  0  0  0  0  0  0  0  0
    4.2236    1.5516    0.5788 H   0  0  0  0  0  0  0  0  0  0  0  0
    3.4785    3.2446   -0.5738 H   0  0  0  0  0  0  0  0  0  0  0  0
    2.2223    5.3786   -0.7978 H   0  0  0  0  0  0  0  0  0  0  0  0
   -0.2090    5.4213   -0.5453 H   0  0  0  0  0  0  0  0  0  0  0  0
   -1.3942    3.3197   -0.0669 H   0  0  0  0  0  0  0  0  0  0  0  0
    0.0928    0.3719    1.1283 H   0  0  0  0  0  0  0  0  0  0  0  0
   -0.1136    0.1567   -0.6276 H   0  0  0  0  0  0  0  0  0  0  0  0
   -2.1522    1.3723   -0.5585 H   0  0  0  0  0  0  0  0  0  0  0  0
   -1.9350   -0.6758    1.5395 H   0  0  0  0  0  0  0  0  0  0  0  0
   -1.2721   -1.8635   -0.3227 H   0  0  0  0  0  0  0  0  0  0  0  0
   -1.9144   -0.5991   -1.4433 H   0  0  0  0  0  0  0  0  0  0  0  0
   -4.1993   -1.0757   -2.3297 H   0  0  0  0  0  0  0  0  0  0  0  0
   -5.2949   -1.9915   -1.2666 H   0  0  0  0  0  0  0  0  0  0  0  0
   -4.3676    0.8541   -1.0285 H   0  0  0  0  0  0  0  0  0  0  0  0
   -5.7017    0.0059   -0.2207 H   0  0  0  0  0  0  0  0  0  0  0  0
   -4.1319    0.6925    1.4816 H   0  0  0  0  0  0  0  0  0  0  0  0
   -5.3832   -1.5580    1.4608 H   0  0  0  0  0  0  0  0  0  0  0  0
   -3.8616   -1.5376    2.4978 H   0  0  0  0  0  0  0  0  0  0  0  0
   -4.3156   -3.4215    0.4554 H   0  0  0  0  0  0  0  0  0  0  0  0
   -2.7062   -2.9447    1.0457 H   0  0  0  0  0  0  0  0  0  0  0  0
    2.4082   -1.2777    0.5371 H   0  0  0  0  0  0  0  0  0  0  0  0
    3.2597   -3.5894    0.8448 H   0  0  0  0  0  0  0  0  0  0  0  0
  3  4  2  0
  4  5  1  0
  5  6  2  0
  6  7  1  0
  7  8  1  0
  8  9  1  0
  9 10  2  0
 10 11  1  0
 11 12  2  0
 12 13  1  0
 13 14  2  0
 14 15  1  0
 15 16  1  0
 16 17  1  0
 17 18  1  0
 18 19  1  0
 19 20  1  0
 20 21  1  0
 21 22  1  0
 22 23  1  0
 23 24  1  0
  6 25  1  0
 25 26  2  0
 26  3  1  0
 14  9  1  0
 22 17  1  0
 24 19  1  0
  1 27  1  0
  2 28  1  0
  3 29  1  0
  4 30  1  0
  5 31  1  0
  7 32  1  0
  7 33  1  0
 10 34  1  0
 11 35  1  0
 12 36  1  0
 13 37  1  0
 15 38  1  0
 15 39  1  0
 16 40  1  0
 17 41  1  0
 18 42  1  0
 18 43  1  0
 20 44  1  0
 20 45  1  0
 21 46  1  0
 21 47  1  0
 22 48  1  0
 23 49  1  0
 23 50  1  0
 24 51  1  0
 24 52  1  0
 25 53  1  0
 26 54  1  0
M  END
$$$$
