
     RDKit          3D

 47 49  0  0  0  0  0  0  0  0999 V2000
    5.7523   -1.5112    2.7797 C   0  0  0  0  0  0  0  0  0  0  0  0
    4.5851   -1.2423    1.8428 C   0  0  0  0  0  0  0  0  0  0  0  0
    4.9078   -0.1064    0.9855 N   0  0  0  0  0  0  0  0  0  0  0  0
    3.9543    0.1561   -0.0044 C   0  0  0  0  0  0  0  0  0  0  0  0
    2.6417    0.4564    0.2994 C   0  0  0  0  0  0  0  0  0  0  0  0
    1.7716    0.7099   -0.7451 C   0  0  0  0  0  0  0  0  0  0  0  0
    0.4376    1.0260   -0.5186 N   0  0  0  0  0  0  0  0  0  0  0  0
   -0.3471    1.4575   -1.6874 C   0  0  0  0  0  0  0  0  0  0  0  0
   -1.7430    1.9362   -1.2592 C   0  0  0  0  0  0  0  0  0  0  0  0
   -2.4917    0.9117   -0.5253 N   0  0  0  0  0  0  0  0  0  0  0  0
   -3.8650    1.0756   -0.3964 C   0  0  0  0  0  0  0  0  0  0  0  0
   -4.4640    2.0765   -0.7814 O   0  0  0  0  0  0  0  0  0  0  0  0
   -4.6611   -0.0030    0.2315 C   0  0  0  0  0  0  0  0  0  0  0  0
   -4.6070   -1.3133   -0.2588 C   0  0  0  0  0  0  0  0  0  0  0  0
   -5.3863   -2.3077    0.3371 C   0  0  0  0  0  0  0  0  0  0  0  0
   -6.2242   -1.9850    1.4059 C   0  0  0  0  0  0  0  0  0  0  0  0
   -7.1808   -3.2128    2.1388 Cl  0  0  0  0  0  0  0  0  0  0  0  0
   -6.2985   -0.6747    1.8800 C   0  0  0  0  0  0  0  0  0  0  0  0
   -5.5211    0.3222    1.2863 C   0  0  0  0  0  0  0  0  0  0  0  0
   -1.6880   -0.1002    0.1737 C   0  0  0  0  0  0  0  0  0  0  0  0
   -0.2948    0.4104    0.5976 C   0  0  0  0  0  0  0  0  0  0  0  0
    2.2190    0.6923   -2.0121 N   0  0  0  0  0  0  0  0  0  0  0  0
    3.5186    0.4198   -2.2210 C   0  0  0  0  0  0  0  0  0  0  0  0
    3.9960    0.3847   -3.6386 C   0  0  0  0  0  0  0  0  0  0  0  0
    4.4089    0.1333   -1.2597 N   0  0  0  0  0  0  0  0  0  0  0  0
    5.5266   -2.3565    3.4371 H   0  0  0  0  0  0  0  0  0  0  0  0
    5.9632   -0.6368    3.4046 H   0  0  0  0  0  0  0  0  0  0  0  0
    6.6617   -1.7482    2.2174 H   0  0  0  0  0  0  0  0  0  0  0  0
    3.6938   -1.0364    2.4460 H   0  0  0  0  0  0  0  0  0  0  0  0
    4.3937   -2.1383    1.2399 H   0  0  0  0  0  0  0  0  0  0  0  0
    5.7662   -0.2705    0.4575 H   0  0  0  0  0  0  0  0  0  0  0  0
    2.3259    0.5336    1.3295 H   0  0  0  0  0  0  0  0  0  0  0  0
    0.1560    2.2851   -2.2023 H   0  0  0  0  0  0  0  0  0  0  0  0
   -0.4525    0.6235   -2.3934 H   0  0  0  0  0  0  0  0  0  0  0  0
   -1.6564    2.8053   -0.5950 H   0  0  0  0  0  0  0  0  0  0  0  0
   -2.3212    2.2463   -2.1369 H   0  0  0  0  0  0  0  0  0  0  0  0
   -3.9773   -1.5578   -1.1103 H   0  0  0  0  0  0  0  0  0  0  0  0
   -5.3457   -3.3258   -0.0416 H   0  0  0  0  0  0  0  0  0  0  0  0
   -6.9635   -0.4220    2.7018 H   0  0  0  0  0  0  0  0  0  0  0  0
   -5.5879    1.3492    1.6391 H   0  0  0  0  0  0  0  0  0  0  0  0
   -1.5702   -0.9399   -0.5217 H   0  0  0  0  0  0  0  0  0  0  0  0
   -2.2194   -0.4636    1.0584 H   0  0  0  0  0  0  0  0  0  0  0  0
    0.2468   -0.4391    1.0301 H   0  0  0  0  0  0  0  0  0  0  0  0
   -0.4104    1.1649    1.3849 H   0  0  0  0  0  0  0  0  0  0  0  0
    5.0514    0.6677   -3.6970 H   0  0  0  0  0  0  0  0  0  0  0  0
    3.8784   -0.6253   -4.0418 H   0  0  0  0  0  0  0  0  0  0  0  0
    3.4205    1.0807   -4.2564 H   0  0  0  0  0  0  0  0  0  0  0  0
  1  2  1  0
  2  3  1  0
  3  4  1  0
  4  5  2  0
  5  6  1  0
  6  7  1  0
  7  8  1  0
  8  9  1  0
  9 10  1  0
 10 11  1  0
 11 12  2  0
 11 13  1  0
 13 14  2  0
 14 15  1  0
 15 16  2  0
 16 17  1  0
 16 18  1  0
 18 19  2  0
 10 20  1  0
 20 21  1  0
  6 22  2  0
 22 23  1  0
 23 24  1  0
 23 25  2  0
 25  4  1  0
 21  7  1  0
 19 13  1  0
  1 26  1  0
  1 27  1  0
  1 28  1  0
  2 29  1  0
  2 30  1  0
  3 31  1  0
  5 32  1  0
  8 33  1  0
  8 34  1  0
  9 35  1  0
  9 36  1  0
 14 37  1  0
 15 38  1  0
 18 39  1  0
 19 40  1  0
 20 41  1  0
 20 42  1  0
 21 43  1  0
 21 44  1  0
 24 45  1  0
 24 46  1  0
 24 47  1  0
M  END
$$$$
