
     RDKit          3D

 40 41  0  0  0  0  0  0  0  0999 V2000
   -6.7373    0.0828   -1.0380 C   0  0  0  0  0  0  0  0  0  0  0  0
   -5.4154    0.3314   -1.4997 O   0  0  0  0  0  0  0  0  0  0  0  0
   -4.3968    0.0588   -0.6296 C   0  0  0  0  0  0  0  0  0  0  0  0
   -4.5319   -0.4341    0.6660 C   0  0  0  0  0  0  0  0  0  0  0  0
   -3.3941   -0.6673    1.4471 C   0  0  0  0  0  0  0  0  0  0  0  0
   -2.1139   -0.4102    0.9502 C   0  0  0  0  0  0  0  0  0  0  0  0
   -1.1012   -0.6891    1.8236 O   0  0  0  0  0  0  0  0  0  0  0  0
    0.2381   -0.3476    1.4533 C   0  0  0  0  0  0  0  0  0  0  0  0
    0.9035   -1.5014    0.6797 C   0  0  0  0  0  0  0  0  0  0  0  0
    2.2935   -1.3096    0.2521 N   0  0  0  0  0  0  0  0  0  0  0  0
    3.2520   -1.0967    1.3478 C   0  0  0  0  0  0  0  0  0  0  0  0
    3.8211    0.3364    1.4190 C   0  0  0  0  0  0  0  0  0  0  0  0
    4.4706    0.7941    0.1809 N   0  0  0  0  0  0  0  0  0  0  0  0
    3.9159    0.1327   -1.0181 C   0  0  0  0  0  0  0  0  0  0  0  0
    4.0399    1.0702   -2.2195 C   0  0  0  0  0  0  0  0  0  0  0  0
    2.4456   -0.3330   -0.8380 C   0  0  0  0  0  0  0  0  0  0  0  0
   -1.9797    0.0780   -0.3472 C   0  0  0  0  0  0  0  0  0  0  0  0
   -3.1174    0.3112   -1.1289 C   0  0  0  0  0  0  0  0  0  0  0  0
   -7.4281    0.3471   -1.8444 H   0  0  0  0  0  0  0  0  0  0  0  0
   -6.9783    0.7109   -0.1740 H   0  0  0  0  0  0  0  0  0  0  0  0
   -6.8827   -0.9782   -0.8094 H   0  0  0  0  0  0  0  0  0  0  0  0
   -5.5014   -0.6491    1.1017 H   0  0  0  0  0  0  0  0  0  0  0  0
   -3.5091   -1.0535    2.4574 H   0  0  0  0  0  0  0  0  0  0  0  0
    0.7743   -0.1911    2.3960 H   0  0  0  0  0  0  0  0  0  0  0  0
    0.2792    0.6127    0.9290 H   0  0  0  0  0  0  0  0  0  0  0  0
    0.8513   -2.4050    1.3022 H   0  0  0  0  0  0  0  0  0  0  0  0
    0.2968   -1.7568   -0.1980 H   0  0  0  0  0  0  0  0  0  0  0  0
    2.8268   -1.3741    2.3198 H   0  0  0  0  0  0  0  0  0  0  0  0
    4.0887   -1.7895    1.1888 H   0  0  0  0  0  0  0  0  0  0  0  0
    4.5489    0.3997    2.2350 H   0  0  0  0  0  0  0  0  0  0  0  0
    3.0075    1.0295    1.6667 H   0  0  0  0  0  0  0  0  0  0  0  0
    4.3791    1.8063    0.1129 H   0  0  0  0  0  0  0  0  0  0  0  0
    4.5348   -0.7510   -1.2227 H   0  0  0  0  0  0  0  0  0  0  0  0
    3.6976    0.5734   -3.1336 H   0  0  0  0  0  0  0  0  0  0  0  0
    3.4402    1.9773   -2.0846 H   0  0  0  0  0  0  0  0  0  0  0  0
    5.0815    1.3714   -2.3766 H   0  0  0  0  0  0  0  0  0  0  0  0
    2.0920   -0.7925   -1.7690 H   0  0  0  0  0  0  0  0  0  0  0  0
    1.8246    0.5544   -0.6644 H   0  0  0  0  0  0  0  0  0  0  0  0
   -1.0126    0.2821   -0.7920 H   0  0  0  0  0  0  0  0  0  0  0  0
   -3.0037    0.6916   -2.1414 H   0  0  0  0  0  0  0  0  0  0  0  0
  1  2  1  0
  2  3  1  0
  3  4  2  0
  4  5  1  0
  5  6  2  0
  6  7  1  0
  7  8  1  0
  8  9  1  0
  9 10  1  0
 10 11  1  0
 11 12  1  0
 12 13  1  0
 13 14  1  0
 14 15  1  0
 14 16  1  0
  6 17  1  0
 17 18  2  0
 18  3  1  0
 16 10  1  0
  1 19  1  0
  1 20  1  0
  1 21  1  0
  4 22  1  0
  5 23  1  0
  8 24  1  0
  8 25  1  0
  9 26  1  0
  9 27  1  0
 11 28  1  0
 11 29  1  0
 12 30  1  0
 12 31  1  0
 13 32  1  0
 14 33  1  0
 15 34  1  0
 15 35  1  0
 15 36  1  0
 16 37  1  0
 16 38  1  0
 17 39  1  0
 18 40  1  0
M  END
$$$$
