
     RDKit          3D

 37 38  0  0  0  0  0  0  0  0999 V2000
    3.0696    1.4813    2.4307 C   0  0  0  0  0  0  0  0  0  0  0  0
    2.7887    0.9362    1.0582 C   0  0  0  0  0  0  0  0  0  0  0  0
    1.9939   -0.2138    0.9211 C   0  0  0  0  0  0  0  0  0  0  0  0
    1.7119   -0.7310   -0.3493 C   0  0  0  0  0  0  0  0  0  0  0  0
    0.7242   -2.2059   -0.4999 S   0  0  0  0  0  6  0  0  0  0  0  0
    0.8881   -2.9579    0.7259 O   0  0  0  0  0  0  0  0  0  0  0  0
    1.0224   -2.7953   -1.7879 O   0  0  0  0  0  0  0  0  0  0  0  0
   -0.8509   -1.6193   -0.5497 N   0  0  0  0  0  0  0  0  0  0  0  0
   -1.5023   -1.1957    0.7085 C   0  0  0  0  0  0  0  0  0  0  0  0
   -2.9449   -0.7576    0.4135 C   0  0  0  0  0  0  0  0  0  0  0  0
   -3.6884   -0.4167    1.6976 C   0  0  0  0  0  0  0  0  0  0  0  0
   -2.9801    0.4065   -0.4240 O   0  0  0  0  0  0  0  0  0  0  0  0
   -2.0393    0.3939   -1.5091 C   0  0  0  0  0  0  0  0  0  0  0  0
   -1.0400    1.5229   -1.2738 C   0  0  0  0  0  0  0  0  0  0  0  0
   -1.3562   -0.9637   -1.7792 C   0  0  0  0  0  0  0  0  0  0  0  0
    2.2549   -0.1417   -1.4929 C   0  0  0  0  0  0  0  0  0  0  0  0
    3.0467    0.9997   -1.3648 C   0  0  0  0  0  0  0  0  0  0  0  0
    3.3077    1.5388   -0.1002 C   0  0  0  0  0  0  0  0  0  0  0  0
    4.2910    2.9563   -0.0167 Cl  0  0  0  0  0  0  0  0  0  0  0  0
    2.5761    0.8866    3.2069 H   0  0  0  0  0  0  0  0  0  0  0  0
    2.6963    2.5067    2.5181 H   0  0  0  0  0  0  0  0  0  0  0  0
    4.1446    1.4622    2.6362 H   0  0  0  0  0  0  0  0  0  0  0  0
    1.5970   -0.7097    1.8059 H   0  0  0  0  0  0  0  0  0  0  0  0
   -0.9422   -0.3679    1.1539 H   0  0  0  0  0  0  0  0  0  0  0  0
   -1.5127   -2.0371    1.4095 H   0  0  0  0  0  0  0  0  0  0  0  0
   -3.4879   -1.5589   -0.1035 H   0  0  0  0  0  0  0  0  0  0  0  0
   -4.7119   -0.0971    1.4734 H   0  0  0  0  0  0  0  0  0  0  0  0
   -3.2058    0.4171    2.2194 H   0  0  0  0  0  0  0  0  0  0  0  0
   -3.7317   -1.2762    2.3734 H   0  0  0  0  0  0  0  0  0  0  0  0
   -2.6101    0.6588   -2.4073 H   0  0  0  0  0  0  0  0  0  0  0  0
   -1.5672    2.4792   -1.1838 H   0  0  0  0  0  0  0  0  0  0  0  0
   -0.3257    1.6016   -2.0985 H   0  0  0  0  0  0  0  0  0  0  0  0
   -0.4902    1.3893   -0.3384 H   0  0  0  0  0  0  0  0  0  0  0  0
   -2.0963   -1.6502   -2.2098 H   0  0  0  0  0  0  0  0  0  0  0  0
   -0.5685   -0.8418   -2.5292 H   0  0  0  0  0  0  0  0  0  0  0  0
    2.0728   -0.5625   -2.4794 H   0  0  0  0  0  0  0  0  0  0  0  0
    3.4663    1.4631   -2.2550 H   0  0  0  0  0  0  0  0  0  0  0  0
  1  2  1  0
  2  3  2  0
  3  4  1  0
  4  5  1  0
  5  6  2  0
  5  7  2  0
  5  8  1  0
  8  9  1  0
  9 10  1  0
 10 11  1  0
 10 12  1  0
 12 13  1  0
 13 14  1  0
 13 15  1  0
  4 16  2  0
 16 17  1  0
 17 18  2  0
 18 19  1  0
 18  2  1  0
 15  8  1  0
  1 20  1  0
  1 21  1  0
  1 22  1  0
  3 23  1  0
  9 24  1  0
  9 25  1  0
 10 26  1  0
 11 27  1  0
 11 28  1  0
 11 29  1  0
 13 30  1  0
 14 31  1  0
 14 32  1  0
 14 33  1  0
 15 34  1  0
 15 35  1  0
 16 36  1  0
 17 37  1  0
M  END
$$$$
