
     RDKit          3D

 46 48  0  0  0  0  0  0  0  0999 V2000
   -5.3413    1.8365    2.3002 C   0  0  0  0  0  0  0  0  0  0  0  0
   -5.0370    1.8868    0.8127 C   0  0  0  0  0  0  0  0  0  0  0  0
   -4.7352    0.5078    0.3294 N   0  0  0  0  0  0  0  0  0  0  0  0
   -3.3890    0.3112   -0.1352 C   0  0  0  0  0  0  0  0  0  0  0  0
   -2.9329    0.8118   -1.3560 C   0  0  0  0  0  0  0  0  0  0  0  0
   -1.6003    0.6244   -1.7333 C   0  0  0  0  0  0  0  0  0  0  0  0
   -0.7105   -0.0356   -0.8765 C   0  0  0  0  0  0  0  0  0  0  0  0
    0.7009   -0.2175   -1.3189 C   0  0  0  0  0  0  0  0  0  0  0  0
    0.9108   -0.4119   -2.5094 O   0  0  0  0  0  0  0  0  0  0  0  0
    1.6432   -0.1093   -0.3125 N   0  0  0  0  0  0  0  0  0  0  0  0
    3.0402   -0.2755   -0.4270 C   0  0  0  0  0  0  0  0  0  0  0  0
    3.6859   -0.6693   -1.6021 C   0  0  0  0  0  0  0  0  0  0  0  0
    5.0767   -0.8256   -1.6318 C   0  0  0  0  0  0  0  0  0  0  0  0
    5.8292   -0.5942   -0.4853 C   0  0  0  0  0  0  0  0  0  0  0  0
    5.1955   -0.1773    0.6866 C   0  0  0  0  0  0  0  0  0  0  0  0
    3.8077   -0.0343    0.7204 C   0  0  0  0  0  0  0  0  0  0  0  0
    5.8711    0.1020    1.8480 O   0  0  0  0  0  0  0  0  0  0  0  0
    7.2753    0.2572    1.6079 C   0  0  0  0  0  0  0  0  0  0  0  0
    7.7933   -0.8554    0.7115 C   0  0  0  0  0  0  0  0  0  0  0  0
    7.1825   -0.7883   -0.5819 O   0  0  0  0  0  0  0  0  0  0  0  0
   -1.1667   -0.5279    0.3531 C   0  0  0  0  0  0  0  0  0  0  0  0
   -2.5013   -0.3418    0.7247 C   0  0  0  0  0  0  0  0  0  0  0  0
   -5.9857   -0.1983   -0.6000 S   0  0  0  0  0  6  0  0  0  0  0  0
   -5.5551   -1.9275   -0.5548 C   0  0  0  0  0  0  0  0  0  0  0  0
   -5.8912    0.2753   -1.9647 O   0  0  0  0  0  0  0  0  0  0  0  0
   -7.2189   -0.0403    0.1455 O   0  0  0  0  0  0  0  0  0  0  0  0
   -6.2022    1.1930    2.5078 H   0  0  0  0  0  0  0  0  0  0  0  0
   -5.5657    2.8391    2.6768 H   0  0  0  0  0  0  0  0  0  0  0  0
   -4.4876    1.4436    2.8624 H   0  0  0  0  0  0  0  0  0  0  0  0
   -4.1893    2.5606    0.6394 H   0  0  0  0  0  0  0  0  0  0  0  0
   -5.8855    2.3190    0.2706 H   0  0  0  0  0  0  0  0  0  0  0  0
   -3.6018    1.3465   -2.0264 H   0  0  0  0  0  0  0  0  0  0  0  0
   -1.2558    0.9996   -2.6958 H   0  0  0  0  0  0  0  0  0  0  0  0
    1.3143    0.1868    0.5971 H   0  0  0  0  0  0  0  0  0  0  0  0
    3.1358   -0.8714   -2.5160 H   0  0  0  0  0  0  0  0  0  0  0  0
    5.5652   -1.1394   -2.5504 H   0  0  0  0  0  0  0  0  0  0  0  0
    3.3420    0.2793    1.6500 H   0  0  0  0  0  0  0  0  0  0  0  0
    7.7821    0.2292    2.5775 H   0  0  0  0  0  0  0  0  0  0  0  0
    7.4453    1.2449    1.1615 H   0  0  0  0  0  0  0  0  0  0  0  0
    8.8746   -0.7577    0.5733 H   0  0  0  0  0  0  0  0  0  0  0  0
    7.5915   -1.8444    1.1416 H   0  0  0  0  0  0  0  0  0  0  0  0
   -0.5072   -1.0794    1.0179 H   0  0  0  0  0  0  0  0  0  0  0  0
   -2.8517   -0.7185    1.6829 H   0  0  0  0  0  0  0  0  0  0  0  0
   -4.6210   -2.0867   -1.0951 H   0  0  0  0  0  0  0  0  0  0  0  0
   -5.4717   -2.2445    0.4864 H   0  0  0  0  0  0  0  0  0  0  0  0
   -6.3585   -2.4825   -1.0448 H   0  0  0  0  0  0  0  0  0  0  0  0
  1  2  1  0
  2  3  1  0
  3  4  1  0
  4  5  2  0
  5  6  1  0
  6  7  2  0
  7  8  1  0
  8  9  2  0
  8 10  1  0
 10 11  1  0
 11 12  2  0
 12 13  1  0
 13 14  2  0
 14 15  1  0
 15 16  2  0
 15 17  1  0
 17 18  1  0
 18 19  1  0
 19 20  1  0
  7 21  1  0
 21 22  2  0
  3 23  1  0
 23 24  1  0
 23 25  2  0
 23 26  2  0
 22  4  1  0
 16 11  1  0
 20 14  1  0
  1 27  1  0
  1 28  1  0
  1 29  1  0
  2 30  1  0
  2 31  1  0
  5 32  1  0
  6 33  1  0
 10 34  1  0
 12 35  1  0
 13 36  1  0
 16 37  1  0
 18 38  1  0
 18 39  1  0
 19 40  1  0
 19 41  1  0
 21 42  1  0
 22 43  1  0
 24 44  1  0
 24 45  1  0
 24 46  1  0
M  END
$$$$
