
     RDKit          3D

 46 48  0  0  0  0  0  0  0  0999 V2000
   -4.0184   -2.7414    0.3600 C   0  0  0  0  0  0  0  0  0  0  0  0
   -3.7460   -1.3757    0.0580 O   0  0  0  0  0  0  0  0  0  0  0  0
   -4.7890   -0.5885   -0.3660 C   0  0  0  0  0  0  0  0  0  0  0  0
   -6.0993   -1.0707   -0.5170 C   0  0  0  0  0  0  0  0  0  0  0  0
   -7.1286   -0.2320   -0.9516 C   0  0  0  0  0  0  0  0  0  0  0  0
   -6.8658    1.0999   -1.2420 C   0  0  0  0  0  0  0  0  0  0  0  0
   -5.5705    1.5943   -1.0975 C   0  0  0  0  0  0  0  0  0  0  0  0
   -4.5166    0.7667   -0.6606 C   0  0  0  0  0  0  0  0  0  0  0  0
   -3.1632    1.4255   -0.5465 C   0  0  0  0  0  0  0  0  0  0  0  0
   -3.0652    2.6154   -0.8337 O   0  0  0  0  0  0  0  0  0  0  0  0
   -2.1191    0.6281   -0.1212 N   0  0  0  0  0  0  0  0  0  0  0  0
   -0.7690    0.9796    0.0721 C   0  0  0  0  0  0  0  0  0  0  0  0
   -0.2534    2.2756   -0.1519 C   0  0  0  0  0  0  0  0  0  0  0  0
    1.1021    2.5705    0.0579 C   0  0  0  0  0  0  0  0  0  0  0  0
    1.9133    1.5440    0.4904 C   0  0  0  0  0  0  0  0  0  0  0  0
    1.4175    0.2753    0.7115 C   0  0  0  0  0  0  0  0  0  0  0  0
    0.0865   -0.0404    0.5140 C   0  0  0  0  0  0  0  0  0  0  0  0
    2.5263   -0.5605    1.1631 C   0  0  0  0  0  0  0  0  0  0  0  0
    2.4099   -1.7319    1.4692 O   0  0  0  0  0  0  0  0  0  0  0  0
    3.6390    0.2366    1.1696 N   0  0  0  0  0  0  0  0  0  0  0  0
    4.9584   -0.2074    1.5811 C   0  0  0  0  0  0  0  0  0  0  0  0
    5.8406   -0.7526    0.4398 C   0  0  0  0  0  0  0  0  0  0  0  0
    6.1541    0.3046   -0.6190 C   0  0  0  0  0  0  0  0  0  0  0  0
    5.2514   -2.0019   -0.2150 C   0  0  0  0  0  0  0  0  0  0  0  0
    3.3412    1.5216    0.8006 C   0  0  0  0  0  0  0  0  0  0  0  0
    4.0688    2.4935    0.7349 O   0  0  0  0  0  0  0  0  0  0  0  0
   -3.0793   -3.2035    0.6795 H   0  0  0  0  0  0  0  0  0  0  0  0
   -4.7296   -2.8279    1.1878 H   0  0  0  0  0  0  0  0  0  0  0  0
   -4.3681   -3.2791   -0.5272 H   0  0  0  0  0  0  0  0  0  0  0  0
   -6.3604   -2.1027   -0.3043 H   0  0  0  0  0  0  0  0  0  0  0  0
   -8.1377   -0.6224   -1.0629 H   0  0  0  0  0  0  0  0  0  0  0  0
   -7.6636    1.7564   -1.5805 H   0  0  0  0  0  0  0  0  0  0  0  0
   -5.3841    2.6422   -1.3303 H   0  0  0  0  0  0  0  0  0  0  0  0
   -2.3654   -0.3376    0.0761 H   0  0  0  0  0  0  0  0  0  0  0  0
   -0.8944    3.0842   -0.4934 H   0  0  0  0  0  0  0  0  0  0  0  0
    1.4953    3.5674   -0.1133 H   0  0  0  0  0  0  0  0  0  0  0  0
   -0.2639   -1.0502    0.7010 H   0  0  0  0  0  0  0  0  0  0  0  0
    5.4695    0.6378    2.0576 H   0  0  0  0  0  0  0  0  0  0  0  0
    4.8334   -0.9873    2.3419 H   0  0  0  0  0  0  0  0  0  0  0  0
    6.7954   -1.0463    0.8961 H   0  0  0  0  0  0  0  0  0  0  0  0
    6.8873   -0.0780   -1.3374 H   0  0  0  0  0  0  0  0  0  0  0  0
    5.2606    0.5928   -1.1819 H   0  0  0  0  0  0  0  0  0  0  0  0
    6.5779    1.2035   -0.1597 H   0  0  0  0  0  0  0  0  0  0  0  0
    5.9648   -2.4358   -0.9242 H   0  0  0  0  0  0  0  0  0  0  0  0
    5.0239   -2.7658    0.5356 H   0  0  0  0  0  0  0  0  0  0  0  0
    4.3336   -1.7764   -0.7673 H   0  0  0  0  0  0  0  0  0  0  0  0
  1  2  1  0
  2  3  1  0
  3  4  2  0
  4  5  1  0
  5  6  2  0
  6  7  1  0
  7  8  2  0
  8  9  1  0
  9 10  2  0
  9 11  1  0
 11 12  1  0
 12 13  2  0
 13 14  1  0
 14 15  2  0
 15 16  1  0
 16 17  2  0
 16 18  1  0
 18 19  2  0
 18 20  1  0
 20 21  1  0
 21 22  1  0
 22 23  1  0
 22 24  1  0
 20 25  1  0
 25 26  2  0
  8  3  1  0
 17 12  1  0
 25 15  1  0
  1 27  1  0
  1 28  1  0
  1 29  1  0
  4 30  1  0
  5 31  1  0
  6 32  1  0
  7 33  1  0
 11 34  1  0
 13 35  1  0
 14 36  1  0
 17 37  1  0
 21 38  1  0
 21 39  1  0
 22 40  1  0
 23 41  1  0
 23 42  1  0
 23 43  1  0
 24 44  1  0
 24 45  1  0
 24 46  1  0
M  END
$$$$
