
     RDKit          3D

 45 48  0  0  0  0  0  0  0  0999 V2000
    3.6193   -1.8188    0.0016 O   0  0  0  0  0  0  0  0  0  0  0  0
    2.9758   -0.8179   -0.3024 C   0  0  0  0  0  0  0  0  0  0  0  0
    3.5271    0.4061   -0.5936 N   0  0  0  0  0  0  0  0  0  0  0  0
    4.8795    0.7940   -0.4738 C   0  0  0  0  0  0  0  0  0  0  0  0
    5.8580    0.0486    0.1842 C   0  0  0  0  0  0  0  0  0  0  0  0
    7.1732    0.5242    0.2607 C   0  0  0  0  0  0  0  0  0  0  0  0
    7.5188    1.7486   -0.3132 C   0  0  0  0  0  0  0  0  0  0  0  0
    6.5478    2.5046   -0.9644 C   0  0  0  0  0  0  0  0  0  0  0  0
    5.2433    2.0244   -1.0364 C   0  0  0  0  0  0  0  0  0  0  0  0
    4.3131    2.7641   -1.6630 F   0  0  0  0  0  0  0  0  0  0  0  0
    1.5904   -0.8567   -0.3922 N   0  0  0  0  0  0  0  0  0  0  0  0
    0.9309   -2.1610   -0.2706 C   0  0  0  0  0  0  0  0  0  0  0  0
   -0.4886   -2.1587   -0.8579 C   0  0  0  0  0  0  0  0  0  0  0  0
   -1.3258   -1.1445   -0.1918 N   0  0  0  0  0  0  0  0  0  0  0  0
   -2.6645   -1.1088   -0.5680 C   0  0  0  0  0  0  0  0  0  0  0  0
   -3.5820   -0.3448    0.1359 C   0  0  0  0  0  0  0  0  0  0  0  0
   -4.8993   -0.3713   -0.2879 C   0  0  0  0  0  0  0  0  0  0  0  0
   -5.8881    0.3917    0.3915 N   0  0  0  0  0  0  0  0  0  0  0  0
   -5.7493    1.2181    1.4857 C   0  0  0  0  0  0  0  0  0  0  0  0
   -7.0059    1.7174    1.7407 C   0  0  0  0  0  0  0  0  0  0  0  0
   -7.9146    1.2313    0.8447 N   0  0  0  0  0  0  0  0  0  0  0  0
   -7.2226    0.4414    0.0525 C   0  0  0  0  0  0  0  0  0  0  0  0
   -5.3061   -1.1072   -1.3418 N   0  0  0  0  0  0  0  0  0  0  0  0
   -4.3572   -1.8282   -1.9443 C   0  0  0  0  0  0  0  0  0  0  0  0
   -3.0632   -1.8667   -1.6040 N   0  0  0  0  0  0  0  0  0  0  0  0
   -0.6557    0.0964    0.2323 C   0  0  0  0  0  0  0  0  0  0  0  0
    0.7015    0.3093   -0.4700 C   0  0  0  0  0  0  0  0  0  0  0  0
    2.9600    1.0375   -1.1408 H   0  0  0  0  0  0  0  0  0  0  0  0
    5.6287   -0.9040    0.6527 H   0  0  0  0  0  0  0  0  0  0  0  0
    7.9282   -0.0681    0.7733 H   0  0  0  0  0  0  0  0  0  0  0  0
    8.5422    2.1099   -0.2497 H   0  0  0  0  0  0  0  0  0  0  0  0
    6.7963    3.4601   -1.4144 H   0  0  0  0  0  0  0  0  0  0  0  0
    1.5385   -2.9254   -0.7680 H   0  0  0  0  0  0  0  0  0  0  0  0
    0.8984   -2.4043    0.7986 H   0  0  0  0  0  0  0  0  0  0  0  0
   -0.9216   -3.1571   -0.7203 H   0  0  0  0  0  0  0  0  0  0  0  0
   -0.4312   -1.9510   -1.9345 H   0  0  0  0  0  0  0  0  0  0  0  0
   -3.2632    0.2195    0.9995 H   0  0  0  0  0  0  0  0  0  0  0  0
   -4.8111    1.3880    1.9901 H   0  0  0  0  0  0  0  0  0  0  0  0
   -7.3017    2.4024    2.5253 H   0  0  0  0  0  0  0  0  0  0  0  0
   -7.6256   -0.1197   -0.7812 H   0  0  0  0  0  0  0  0  0  0  0  0
   -4.6607   -2.4394   -2.7872 H   0  0  0  0  0  0  0  0  0  0  0  0
   -1.2688    0.9851    0.0405 H   0  0  0  0  0  0  0  0  0  0  0  0
   -0.4939    0.0366    1.3154 H   0  0  0  0  0  0  0  0  0  0  0  0
    0.5400    0.5069   -1.5365 H   0  0  0  0  0  0  0  0  0  0  0  0
    1.1898    1.1872   -0.0350 H   0  0  0  0  0  0  0  0  0  0  0  0
  1  2  2  0
  2  3  1  0
  3  4  1  0
  4  5  2  0
  5  6  1  0
  6  7  2  0
  7  8  1  0
  8  9  2  0
  9 10  1  0
  2 11  1  0
 11 12  1  0
 12 13  1  0
 13 14  1  0
 14 15  1  0
 15 16  2  0
 16 17  1  0
 17 18  1  0
 18 19  1  0
 19 20  2  0
 20 21  1  0
 21 22  2  0
 17 23  2  0
 23 24  1  0
 24 25  2  0
 14 26  1  0
 26 27  1  0
  9  4  1  0
 27 11  1  0
 25 15  1  0
 22 18  1  0
  3 28  1  0
  5 29  1  0
  6 30  1  0
  7 31  1  0
  8 32  1  0
 12 33  1  0
 12 34  1  0
 13 35  1  0
 13 36  1  0
 16 37  1  0
 19 38  1  0
 20 39  1  0
 22 40  1  0
 24 41  1  0
 26 42  1  0
 26 43  1  0
 27 44  1  0
 27 45  1  0
M  END
$$$$
