
     RDKit          3D

 47 49  0  0  0  0  0  0  0  0999 V2000
   -6.5797    2.2350   -1.6871 C   0  0  0  0  0  0  0  0  0  0  0  0
   -5.8684    1.2556   -0.7661 C   0  0  0  0  0  0  0  0  0  0  0  0
   -4.4760    1.1257   -1.1869 N   0  0  0  0  0  0  0  0  0  0  0  0
   -3.7046    0.2574   -0.3868 C   0  0  0  0  0  0  0  0  0  0  0  0
   -2.3846    0.0494   -0.7435 C   0  0  0  0  0  0  0  0  0  0  0  0
   -1.6074   -0.7766    0.0492 C   0  0  0  0  0  0  0  0  0  0  0  0
   -0.2749   -1.0328   -0.2688 N   0  0  0  0  0  0  0  0  0  0  0  0
    0.3901   -2.0773    0.5303 C   0  0  0  0  0  0  0  0  0  0  0  0
    1.8183   -2.3210    0.0196 C   0  0  0  0  0  0  0  0  0  0  0  0
    2.6408   -1.1079    0.0472 N   0  0  0  0  0  0  0  0  0  0  0  0
    4.0179   -1.2526   -0.0618 C   0  0  0  0  0  0  0  0  0  0  0  0
    4.5672   -2.3301   -0.2770 O   0  0  0  0  0  0  0  0  0  0  0  0
    4.8803   -0.0589    0.0898 C   0  0  0  0  0  0  0  0  0  0  0  0
    4.7983    0.7450    1.2347 C   0  0  0  0  0  0  0  0  0  0  0  0
    5.6399    1.8510    1.3621 C   0  0  0  0  0  0  0  0  0  0  0  0
    6.5613    2.1324    0.3570 C   0  0  0  0  0  0  0  0  0  0  0  0
    7.3674    3.1944    0.4830 F   0  0  0  0  0  0  0  0  0  0  0  0
    6.6658    1.3246   -0.7716 C   0  0  0  0  0  0  0  0  0  0  0  0
    5.8271    0.2172   -0.9044 C   0  0  0  0  0  0  0  0  0  0  0  0
    1.9125    0.1676    0.0026 C   0  0  0  0  0  0  0  0  0  0  0  0
    0.5679    0.0765   -0.7492 C   0  0  0  0  0  0  0  0  0  0  0  0
   -2.1432   -1.3798    1.1223 N   0  0  0  0  0  0  0  0  0  0  0  0
   -3.4297   -1.1220    1.4111 C   0  0  0  0  0  0  0  0  0  0  0  0
   -4.0019   -1.7559    2.6396 C   0  0  0  0  0  0  0  0  0  0  0  0
   -4.2292   -0.3078    0.7060 N   0  0  0  0  0  0  0  0  0  0  0  0
   -6.0995    3.2189   -1.6594 H   0  0  0  0  0  0  0  0  0  0  0  0
   -6.5624    1.8831   -2.7241 H   0  0  0  0  0  0  0  0  0  0  0  0
   -7.6243    2.3541   -1.3834 H   0  0  0  0  0  0  0  0  0  0  0  0
   -6.3791    0.2862   -0.8129 H   0  0  0  0  0  0  0  0  0  0  0  0
   -5.9287    1.6359    0.2607 H   0  0  0  0  0  0  0  0  0  0  0  0
   -4.4003    0.8269   -2.1557 H   0  0  0  0  0  0  0  0  0  0  0  0
   -1.9833    0.5179   -1.6314 H   0  0  0  0  0  0  0  0  0  0  0  0
    0.4334   -1.7755    1.5851 H   0  0  0  0  0  0  0  0  0  0  0  0
   -0.1676   -3.0195    0.4624 H   0  0  0  0  0  0  0  0  0  0  0  0
    2.3058   -3.0995    0.6173 H   0  0  0  0  0  0  0  0  0  0  0  0
    1.7937   -2.6676   -1.0210 H   0  0  0  0  0  0  0  0  0  0  0  0
    4.0979    0.5033    2.0299 H   0  0  0  0  0  0  0  0  0  0  0  0
    5.5932    2.4875    2.2402 H   0  0  0  0  0  0  0  0  0  0  0  0
    7.4035    1.5566   -1.5334 H   0  0  0  0  0  0  0  0  0  0  0  0
    5.9121   -0.4321   -1.7731 H   0  0  0  0  0  0  0  0  0  0  0  0
    1.7281    0.4587    1.0436 H   0  0  0  0  0  0  0  0  0  0  0  0
    2.5287    0.9426   -0.4626 H   0  0  0  0  0  0  0  0  0  0  0  0
    0.0717    1.0496   -0.6535 H   0  0  0  0  0  0  0  0  0  0  0  0
    0.7635   -0.0894   -1.8156 H   0  0  0  0  0  0  0  0  0  0  0  0
   -3.8907   -1.0773    3.4902 H   0  0  0  0  0  0  0  0  0  0  0  0
   -3.4863   -2.6940    2.8670 H   0  0  0  0  0  0  0  0  0  0  0  0
   -5.0648   -1.9753    2.4988 H   0  0  0  0  0  0  0  0  0  0  0  0
  1  2  1  0
  2  3  1  0
  3  4  1  0
  4  5  2  0
  5  6  1  0
  6  7  1  0
  7  8  1  0
  8  9  1  0
  9 10  1  0
 10 11  1  0
 11 12  2  0
 11 13  1  0
 13 14  2  0
 14 15  1  0
 15 16  2  0
 16 17  1  0
 16 18  1  0
 18 19  2  0
 10 20  1  0
 20 21  1  0
  6 22  2  0
 22 23  1  0
 23 24  1  0
 23 25  2  0
 25  4  1  0
 21  7  1  0
 19 13  1  0
  1 26  1  0
  1 27  1  0
  1 28  1  0
  2 29  1  0
  2 30  1  0
  3 31  1  0
  5 32  1  0
  8 33  1  0
  8 34  1  0
  9 35  1  0
  9 36  1  0
 14 37  1  0
 15 38  1  0
 18 39  1  0
 19 40  1  0
 20 41  1  0
 20 42  1  0
 21 43  1  0
 21 44  1  0
 24 45  1  0
 24 46  1  0
 24 47  1  0
M  END
$$$$
