
     RDKit          3D

 47 50  0  0  0  0  0  0  0  0999 V2000
    3.4633    2.9091   -1.5071 C   0  0  0  0  0  0  0  0  0  0  0  0
    2.6634    1.8925   -0.7763 C   0  0  0  0  0  0  0  0  0  0  0  0
    1.3428    2.0586   -0.6552 N   0  0  0  0  0  0  0  0  0  0  0  0
    0.9169    0.9913    0.0721 N   0  0  0  0  0  0  0  0  0  0  0  0
    1.9801    0.1433    0.4129 C   0  0  0  0  0  0  0  0  0  0  0  0
    1.7864   -0.9988    1.1473 N   0  0  0  0  0  0  0  0  0  0  0  0
    0.5613   -1.2487    1.5039 C   0  0  0  0  0  0  0  0  0  0  0  0
   -0.6266   -0.4162    1.1913 C   0  0  0  0  0  0  0  0  0  0  0  0
   -1.9956   -0.7717    1.6402 C   0  0  0  0  0  0  0  0  0  0  0  0
   -2.1770   -1.7756    2.3242 O   0  0  0  0  0  0  0  0  0  0  0  0
   -3.0131    0.0978    1.2378 N   0  0  0  0  0  0  0  0  0  0  0  0
   -4.3856   -0.1983    1.6542 C   0  0  0  0  0  0  0  0  0  0  0  0
   -5.0303   -1.4333    0.9781 C   0  0  0  0  0  0  0  0  0  0  0  0
   -5.3672   -1.3918   -0.4549 N   0  0  0  0  0  0  0  0  0  0  0  0
   -6.1794   -0.2440   -0.8341 C   0  0  0  0  0  0  0  0  0  0  0  0
   -4.2131   -1.5507   -1.3299 C   0  0  0  0  0  0  0  0  0  0  0  0
   -2.7526    1.2492    0.5141 C   0  0  0  0  0  0  0  0  0  0  0  0
   -1.5094    1.5636    0.1321 C   0  0  0  0  0  0  0  0  0  0  0  0
   -0.3968    0.6977    0.4725 C   0  0  0  0  0  0  0  0  0  0  0  0
    3.1155    0.7077   -0.1409 C   0  0  0  0  0  0  0  0  0  0  0  0
    4.4482    0.1363   -0.0445 C   0  0  0  0  0  0  0  0  0  0  0  0
    5.2430    0.0020   -1.1913 C   0  0  0  0  0  0  0  0  0  0  0  0
    6.5312   -0.5345   -1.1020 C   0  0  0  0  0  0  0  0  0  0  0  0
    7.0287   -0.9398    0.1346 C   0  0  0  0  0  0  0  0  0  0  0  0
    8.6140   -1.5991    0.2435 Cl  0  0  0  0  0  0  0  0  0  0  0  0
    6.2494   -0.8161    1.2821 C   0  0  0  0  0  0  0  0  0  0  0  0
    4.9617   -0.2795    1.1919 C   0  0  0  0  0  0  0  0  0  0  0  0
    4.4221    3.0844   -1.0088 H   0  0  0  0  0  0  0  0  0  0  0  0
    2.9371    3.8682   -1.5578 H   0  0  0  0  0  0  0  0  0  0  0  0
    3.6586    2.5744   -2.5306 H   0  0  0  0  0  0  0  0  0  0  0  0
    0.3648   -2.1594    2.0948 H   0  0  0  0  0  0  0  0  0  0  0  0
   -4.3551   -0.3890    2.7353 H   0  0  0  0  0  0  0  0  0  0  0  0
   -5.0186    0.6872    1.5238 H   0  0  0  0  0  0  0  0  0  0  0  0
   -4.4206   -2.3244    1.1706 H   0  0  0  0  0  0  0  0  0  0  0  0
   -5.9705   -1.6255    1.5127 H   0  0  0  0  0  0  0  0  0  0  0  0
   -6.5482   -0.3601   -1.8594 H   0  0  0  0  0  0  0  0  0  0  0  0
   -7.0633   -0.1642   -0.1917 H   0  0  0  0  0  0  0  0  0  0  0  0
   -5.6262    0.6992   -0.7810 H   0  0  0  0  0  0  0  0  0  0  0  0
   -3.5628   -0.6730   -1.3436 H   0  0  0  0  0  0  0  0  0  0  0  0
   -4.5443   -1.7322   -2.3588 H   0  0  0  0  0  0  0  0  0  0  0  0
   -3.6158   -2.4221   -1.0397 H   0  0  0  0  0  0  0  0  0  0  0  0
   -3.5945    1.8877    0.2617 H   0  0  0  0  0  0  0  0  0  0  0  0
   -1.3131    2.4681   -0.4384 H   0  0  0  0  0  0  0  0  0  0  0  0
    4.8635    0.2965   -2.1668 H   0  0  0  0  0  0  0  0  0  0  0  0
    7.1355   -0.6380   -1.9991 H   0  0  0  0  0  0  0  0  0  0  0  0
    6.6317   -1.1366    2.2473 H   0  0  0  0  0  0  0  0  0  0  0  0
    4.3606   -0.1922    2.0949 H   0  0  0  0  0  0  0  0  0  0  0  0
  1  2  1  0
  2  3  2  0
  3  4  1  0
  4  5  1  0
  5  6  1  0
  6  7  2  0
  7  8  1  0
  8  9  1  0
  9 10  2  0
  9 11  1  0
 11 12  1  0
 12 13  1  0
 13 14  1  0
 14 15  1  0
 14 16  1  0
 11 17  1  0
 17 18  2  0
 18 19  1  0
  5 20  2  0
 20 21  1  0
 21 22  2  0
 22 23  1  0
 23 24  2  0
 24 25  1  0
 24 26  1  0
 26 27  2  0
 20  2  1  0
 27 21  1  0
 19  4  1  0
 19  8  2  0
  1 28  1  0
  1 29  1  0
  1 30  1  0
  7 31  1  0
 12 32  1  0
 12 33  1  0
 13 34  1  0
 13 35  1  0
 15 36  1  0
 15 37  1  0
 15 38  1  0
 16 39  1  0
 16 40  1  0
 16 41  1  0
 17 42  1  0
 18 43  1  0
 22 44  1  0
 23 45  1  0
 26 46  1  0
 27 47  1  0
M  END
$$$$
