
     RDKit          3D

 50 52  0  0  0  0  0  0  0  0999 V2000
   -6.1007   -1.7165    0.3716 C   0  0  0  0  0  0  0  0  0  0  0  0
   -4.8094   -1.0595    0.8632 C   0  0  0  0  0  0  0  0  0  0  0  0
   -4.6889   -1.2177    2.3781 C   0  0  0  0  0  0  0  0  0  0  0  0
   -3.5914   -1.6847    0.1796 C   0  0  0  0  0  0  0  0  0  0  0  0
   -3.6321   -2.8446   -0.2358 O   0  0  0  0  0  0  0  0  0  0  0  0
   -2.4345   -0.9239    0.0842 N   0  0  0  0  0  0  0  0  0  0  0  0
   -2.3125    0.4945    0.4520 C   0  0  0  0  0  0  0  0  0  0  0  0
   -0.8583    0.9310    0.7101 C   0  0  0  0  0  0  0  0  0  0  0  0
    0.0678    0.5807   -0.3944 N   0  0  0  0  0  0  0  0  0  0  0  0
    0.5803    1.7031   -1.1000 C   0  0  0  0  0  0  0  0  0  0  0  0
   -0.2484    2.6361   -1.7395 C   0  0  0  0  0  0  0  0  0  0  0  0
    0.3035    3.7155   -2.4313 C   0  0  0  0  0  0  0  0  0  0  0  0
    1.6869    3.8733   -2.4913 C   0  0  0  0  0  0  0  0  0  0  0  0
    2.5290    2.9539   -1.8624 C   0  0  0  0  0  0  0  0  0  0  0  0
    1.9855    1.8716   -1.1712 C   0  0  0  0  0  0  0  0  0  0  0  0
    2.7490    0.8990   -0.4909 N   0  0  0  0  0  0  0  0  0  0  0  0
    4.1189    0.7746   -0.4326 C   0  0  0  0  0  0  0  0  0  0  0  0
    4.9402    1.4622   -1.0287 O   0  0  0  0  0  0  0  0  0  0  0  0
    4.6215   -0.3348    0.4157 C   0  0  0  0  0  0  0  0  0  0  0  0
    5.8337   -0.9538    0.1002 C   0  0  0  0  0  0  0  0  0  0  0  0
    6.3043   -1.9919    0.9012 C   0  0  0  0  0  0  0  0  0  0  0  0
    5.5467   -2.3707    1.9985 C   0  0  0  0  0  0  0  0  0  0  0  0
    4.3786   -1.7841    2.3435 N   0  0  0  0  0  0  0  0  0  0  0  0
    3.9486   -0.7712    1.5501 C   0  0  0  0  0  0  0  0  0  0  0  0
   -0.4253   -0.4637   -1.3284 C   0  0  0  0  0  0  0  0  0  0  0  0
   -1.2653   -1.5145   -0.5844 C   0  0  0  0  0  0  0  0  0  0  0  0
   -6.9763   -1.2292    0.8135 H   0  0  0  0  0  0  0  0  0  0  0  0
   -6.1384   -2.7803    0.6321 H   0  0  0  0  0  0  0  0  0  0  0  0
   -6.1841   -1.6387   -0.7183 H   0  0  0  0  0  0  0  0  0  0  0  0
   -4.8695    0.0016    0.6002 H   0  0  0  0  0  0  0  0  0  0  0  0
   -5.5272   -0.7297    2.8866 H   0  0  0  0  0  0  0  0  0  0  0  0
   -3.7620   -0.7828    2.7632 H   0  0  0  0  0  0  0  0  0  0  0  0
   -4.6886   -2.2758    2.6641 H   0  0  0  0  0  0  0  0  0  0  0  0
   -2.7397    1.0689   -0.3780 H   0  0  0  0  0  0  0  0  0  0  0  0
   -2.9113    0.7113    1.3390 H   0  0  0  0  0  0  0  0  0  0  0  0
   -0.8267    2.0003    0.9546 H   0  0  0  0  0  0  0  0  0  0  0  0
   -0.4948    0.4045    1.6019 H   0  0  0  0  0  0  0  0  0  0  0  0
   -1.3276    2.5270   -1.7164 H   0  0  0  0  0  0  0  0  0  0  0  0
   -0.3453    4.4330   -2.9274 H   0  0  0  0  0  0  0  0  0  0  0  0
    2.1167    4.7145   -3.0298 H   0  0  0  0  0  0  0  0  0  0  0  0
    3.6014    3.1082   -1.9244 H   0  0  0  0  0  0  0  0  0  0  0  0
    2.1494    0.2021   -0.0567 H   0  0  0  0  0  0  0  0  0  0  0  0
    6.4076   -0.6286   -0.7650 H   0  0  0  0  0  0  0  0  0  0  0  0
    7.2414   -2.4894    0.6759 H   0  0  0  0  0  0  0  0  0  0  0  0
    5.8718   -3.1758    2.6518 H   0  0  0  0  0  0  0  0  0  0  0  0
    3.0278   -0.3056    1.8891 H   0  0  0  0  0  0  0  0  0  0  0  0
    0.4324   -0.9564   -1.8017 H   0  0  0  0  0  0  0  0  0  0  0  0
   -1.0418   -0.0236   -2.1234 H   0  0  0  0  0  0  0  0  0  0  0  0
   -1.5786   -2.2945   -1.2864 H   0  0  0  0  0  0  0  0  0  0  0  0
   -0.6645   -1.9924    0.1988 H   0  0  0  0  0  0  0  0  0  0  0  0
  1  2  1  0
  2  3  1  0
  2  4  1  0
  4  5  2  0
  4  6  1  0
  6  7  1  0
  7  8  1  0
  8  9  1  0
  9 10  1  0
 10 11  2  0
 11 12  1  0
 12 13  2  0
 13 14  1  0
 14 15  2  0
 15 16  1  0
 16 17  1  0
 17 18  2  0
 17 19  1  0
 19 20  2  0
 20 21  1  0
 21 22  2  0
 22 23  1  0
 23 24  2  0
  9 25  1  0
 25 26  1  0
 26  6  1  0
 15 10  1  0
 24 19  1  0
  1 27  1  0
  1 28  1  0
  1 29  1  0
  2 30  1  0
  3 31  1  0
  3 32  1  0
  3 33  1  0
  7 34  1  0
  7 35  1  0
  8 36  1  0
  8 37  1  0
 11 38  1  0
 12 39  1  0
 13 40  1  0
 14 41  1  0
 16 42  1  0
 20 43  1  0
 21 44  1  0
 22 45  1  0
 24 46  1  0
 25 47  1  0
 25 48  1  0
 26 49  1  0
 26 50  1  0
M  END
$$$$
