
     RDKit          3D

 51 54  0  0  0  0  0  0  0  0999 V2000
   -8.2289    1.0684   -1.0900 C   0  0  0  0  0  0  0  0  0  0  0  0
   -6.8146    0.7486   -0.7092 C   0  0  0  0  0  0  0  0  0  0  0  0
   -6.2260   -0.4455   -1.1240 C   0  0  0  0  0  0  0  0  0  0  0  0
   -4.8983   -0.7341   -0.7973 C   0  0  0  0  0  0  0  0  0  0  0  0
   -4.1272    0.1639   -0.0519 C   0  0  0  0  0  0  0  0  0  0  0  0
   -2.7729   -0.0947    0.2647 N   0  0  0  0  0  0  0  0  0  0  0  0
   -2.1025   -1.2937    0.1751 C   0  0  0  0  0  0  0  0  0  0  0  0
   -2.6285   -2.3844   -0.0281 O   0  0  0  0  0  0  0  0  0  0  0  0
   -0.7289   -1.1867    0.3637 N   0  0  0  0  0  0  0  0  0  0  0  0
    0.0505    0.0549    0.2841 C   0  0  0  0  0  0  0  0  0  0  0  0
    1.4462   -0.1350   -0.3468 C   0  0  0  0  0  0  0  0  0  0  0  0
    2.2049   -1.2329    0.2758 N   0  0  0  0  0  0  0  0  0  0  0  0
    3.5256   -1.0287    0.6588 C   0  0  0  0  0  0  0  0  0  0  0  0
    4.3989   -0.3180   -0.1495 C   0  0  0  0  0  0  0  0  0  0  0  0
    5.7043   -0.1732    0.2870 C   0  0  0  0  0  0  0  0  0  0  0  0
    6.6542    0.5375   -0.4987 N   0  0  0  0  0  0  0  0  0  0  0  0
    7.9753    0.7498   -0.1631 C   0  0  0  0  0  0  0  0  0  0  0  0
    8.5187    1.4740   -1.1948 C   0  0  0  0  0  0  0  0  0  0  0  0
    7.5812    1.7186   -2.1589 N   0  0  0  0  0  0  0  0  0  0  0  0
    6.4803    1.1471   -1.7199 C   0  0  0  0  0  0  0  0  0  0  0  0
    6.1375   -0.6924    1.4538 N   0  0  0  0  0  0  0  0  0  0  0  0
    5.2317   -1.3774    2.1550 C   0  0  0  0  0  0  0  0  0  0  0  0
    3.9539   -1.5737    1.8098 N   0  0  0  0  0  0  0  0  0  0  0  0
    1.4366   -2.2070    1.0714 C   0  0  0  0  0  0  0  0  0  0  0  0
    0.0459   -2.4276    0.4576 C   0  0  0  0  0  0  0  0  0  0  0  0
   -4.7056    1.3858    0.3536 C   0  0  0  0  0  0  0  0  0  0  0  0
   -3.9413    2.4184    1.1367 C   0  0  0  0  0  0  0  0  0  0  0  0
   -6.0438    1.6633    0.0161 C   0  0  0  0  0  0  0  0  0  0  0  0
   -8.8503    0.1677   -1.0628 H   0  0  0  0  0  0  0  0  0  0  0  0
   -8.6714    1.7902   -0.3951 H   0  0  0  0  0  0  0  0  0  0  0  0
   -8.2577    1.4906   -2.0991 H   0  0  0  0  0  0  0  0  0  0  0  0
   -6.7925   -1.1654   -1.7096 H   0  0  0  0  0  0  0  0  0  0  0  0
   -4.4858   -1.6722   -1.1561 H   0  0  0  0  0  0  0  0  0  0  0  0
   -2.3038    0.6034    0.8155 H   0  0  0  0  0  0  0  0  0  0  0  0
   -0.4963    0.8115   -0.2876 H   0  0  0  0  0  0  0  0  0  0  0  0
    0.1562    0.4211    1.3122 H   0  0  0  0  0  0  0  0  0  0  0  0
    1.3295   -0.3685   -1.4117 H   0  0  0  0  0  0  0  0  0  0  0  0
    1.9741    0.8232   -0.2752 H   0  0  0  0  0  0  0  0  0  0  0  0
    4.0547    0.0708   -1.0958 H   0  0  0  0  0  0  0  0  0  0  0  0
    8.3986    0.3700    0.7563 H   0  0  0  0  0  0  0  0  0  0  0  0
    9.5368    1.8288   -1.2936 H   0  0  0  0  0  0  0  0  0  0  0  0
    5.5434    1.1517   -2.2570 H   0  0  0  0  0  0  0  0  0  0  0  0
    5.5590   -1.8147    3.0915 H   0  0  0  0  0  0  0  0  0  0  0  0
    1.3233   -1.8455    2.1015 H   0  0  0  0  0  0  0  0  0  0  0  0
    1.9593   -3.1708    1.0981 H   0  0  0  0  0  0  0  0  0  0  0  0
   -0.5137   -3.1604    1.0501 H   0  0  0  0  0  0  0  0  0  0  0  0
    0.1415   -2.8245   -0.5608 H   0  0  0  0  0  0  0  0  0  0  0  0
   -4.5639    3.2836    1.3821 H   0  0  0  0  0  0  0  0  0  0  0  0
   -3.0891    2.7811    0.5532 H   0  0  0  0  0  0  0  0  0  0  0  0
   -3.5858    1.9963    2.0817 H   0  0  0  0  0  0  0  0  0  0  0  0
   -6.4932    2.6067    0.3236 H   0  0  0  0  0  0  0  0  0  0  0  0
  1  2  1  0
  2  3  2  0
  3  4  1  0
  4  5  2  0
  5  6  1  0
  6  7  1  0
  7  8  2  0
  7  9  1  0
  9 10  1  0
 10 11  1  0
 11 12  1  0
 12 13  1  0
 13 14  2  0
 14 15  1  0
 15 16  1  0
 16 17  1  0
 17 18  2  0
 18 19  1  0
 19 20  2  0
 15 21  2  0
 21 22  1  0
 22 23  2  0
 12 24  1  0
 24 25  1  0
  5 26  1  0
 26 27  1  0
 26 28  2  0
 28  2  1  0
 25  9  1  0
 23 13  1  0
 20 16  1  0
  1 29  1  0
  1 30  1  0
  1 31  1  0
  3 32  1  0
  4 33  1  0
  6 34  1  0
 10 35  1  0
 10 36  1  0
 11 37  1  0
 11 38  1  0
 14 39  1  0
 17 40  1  0
 18 41  1  0
 20 42  1  0
 22 43  1  0
 24 44  1  0
 24 45  1  0
 25 46  1  0
 25 47  1  0
 27 48  1  0
 27 49  1  0
 27 50  1  0
 28 51  1  0
M  END
$$$$
