
     RDKit          3D

 47 49  0  0  0  0  0  0  0  0999 V2000
    6.8271   -2.2205   -0.0568 C   0  0  0  0  0  0  0  0  0  0  0  0
    5.4186   -2.0362   -0.0801 O   0  0  0  0  0  0  0  0  0  0  0  0
    4.9558   -0.7892   -0.4111 C   0  0  0  0  0  0  0  0  0  0  0  0
    5.7586    0.3519   -0.5604 C   0  0  0  0  0  0  0  0  0  0  0  0
    5.2027    1.5869   -0.8956 C   0  0  0  0  0  0  0  0  0  0  0  0
    3.8283    1.7319   -1.0906 C   0  0  0  0  0  0  0  0  0  0  0  0
    3.0213    0.5954   -0.9371 C   0  0  0  0  0  0  0  0  0  0  0  0
    3.5594   -0.6526   -0.6024 C   0  0  0  0  0  0  0  0  0  0  0  0
    2.4693   -1.5681   -0.5324 C   0  0  0  0  0  0  0  0  0  0  0  0
    1.3147   -0.8789   -0.8178 C   0  0  0  0  0  0  0  0  0  0  0  0
    1.6544    0.4276   -1.0533 N   0  0  0  0  0  0  0  0  0  0  0  0
    0.6943    1.4789   -1.3614 C   0  0  0  0  0  0  0  0  0  0  0  0
    0.3083    2.2832   -0.1178 C   0  0  0  0  0  0  0  0  0  0  0  0
   -0.4903    1.5229    0.8311 N   0  0  0  0  0  0  0  0  0  0  0  0
   -1.8384    1.3089    0.6003 C   0  0  0  0  0  0  0  0  0  0  0  0
   -2.4404    1.8643   -0.3161 O   0  0  0  0  0  0  0  0  0  0  0  0
   -2.5081    0.3875    1.6278 C   0  0  0  0  0  0  0  0  0  0  0  0
   -3.6298   -0.3432    1.0410 N   0  0  0  0  0  0  0  0  0  0  0  0
   -4.9443    0.1330    1.1018 C   0  0  0  0  0  0  0  0  0  0  0  0
   -5.2514    1.4216    1.8130 C   0  0  0  0  0  0  0  0  0  0  0  0
   -5.9280   -0.5659    0.5083 C   0  0  0  0  0  0  0  0  0  0  0  0
   -5.6482   -1.7878   -0.1903 C   0  0  0  0  0  0  0  0  0  0  0  0
   -6.7480   -2.4020   -0.7346 O   0  0  0  0  0  0  0  0  0  0  0  0
   -4.4021   -2.2576   -0.2903 C   0  0  0  0  0  0  0  0  0  0  0  0
   -3.2913   -1.5039    0.3405 C   0  0  0  0  0  0  0  0  0  0  0  0
   -2.1441   -1.9315    0.2238 O   0  0  0  0  0  0  0  0  0  0  0  0
    7.2849   -1.6440    0.7535 H   0  0  0  0  0  0  0  0  0  0  0  0
    7.0223   -3.2794    0.1386 H   0  0  0  0  0  0  0  0  0  0  0  0
    7.2776   -1.9726   -1.0237 H   0  0  0  0  0  0  0  0  0  0  0  0
    6.8332    0.3078   -0.4162 H   0  0  0  0  0  0  0  0  0  0  0  0
    5.8516    2.4529   -1.0070 H   0  0  0  0  0  0  0  0  0  0  0  0
    3.4114    2.6985   -1.3532 H   0  0  0  0  0  0  0  0  0  0  0  0
    2.5365   -2.6228   -0.2994 H   0  0  0  0  0  0  0  0  0  0  0  0
    0.2856   -1.2153   -0.8675 H   0  0  0  0  0  0  0  0  0  0  0  0
    1.1538    2.1301   -2.1129 H   0  0  0  0  0  0  0  0  0  0  0  0
   -0.1792    1.0071   -1.8256 H   0  0  0  0  0  0  0  0  0  0  0  0
   -0.2672    3.1644   -0.4225 H   0  0  0  0  0  0  0  0  0  0  0  0
    1.1949    2.6320    0.4221 H   0  0  0  0  0  0  0  0  0  0  0  0
    0.0046    0.8459    1.4029 H   0  0  0  0  0  0  0  0  0  0  0  0
   -2.8253    0.9870    2.4856 H   0  0  0  0  0  0  0  0  0  0  0  0
   -1.7707   -0.3324    2.0028 H   0  0  0  0  0  0  0  0  0  0  0  0
   -6.3082    1.6964    1.7208 H   0  0  0  0  0  0  0  0  0  0  0  0
   -5.0345    1.3337    2.8825 H   0  0  0  0  0  0  0  0  0  0  0  0
   -4.6689    2.2491    1.3964 H   0  0  0  0  0  0  0  0  0  0  0  0
   -6.9592   -0.2265    0.5279 H   0  0  0  0  0  0  0  0  0  0  0  0
   -6.4556   -3.2025   -1.2027 H   0  0  0  0  0  0  0  0  0  0  0  0
   -4.1358   -3.1659   -0.8105 H   0  0  0  0  0  0  0  0  0  0  0  0
  1  2  1  0
  2  3  1  0
  3  4  2  0
  4  5  1  0
  5  6  2  0
  6  7  1  0
  7  8  2  0
  8  9  1  0
  9 10  2  0
 10 11  1  0
 11 12  1  0
 12 13  1  0
 13 14  1  0
 14 15  1  0
 15 16  2  0
 15 17  1  0
 17 18  1  0
 18 19  1  0
 19 20  1  0
 19 21  2  0
 21 22  1  0
 22 23  1  0
 22 24  2  0
 24 25  1  0
 25 26  2  0
  8  3  1  0
 25 18  1  0
 11  7  1  0
  1 27  1  0
  1 28  1  0
  1 29  1  0
  4 30  1  0
  5 31  1  0
  6 32  1  0
  9 33  1  0
 10 34  1  0
 12 35  1  0
 12 36  1  0
 13 37  1  0
 13 38  1  0
 14 39  1  0
 17 40  1  0
 17 41  1  0
 20 42  1  0
 20 43  1  0
 20 44  1  0
 21 45  1  0
 23 46  1  0
 24 47  1  0
M  END
$$$$
