
     RDKit          3D

 49 51  0  0  0  0  0  0  0  0999 V2000
    7.5145   -0.1103   -0.0809 C   0  0  0  0  0  0  0  0  0  0  0  0
    6.5809   -1.0569    0.4215 O   0  0  0  0  0  0  0  0  0  0  0  0
    5.2586   -0.7221    0.3493 C   0  0  0  0  0  0  0  0  0  0  0  0
    4.3795   -1.6987    0.8012 C   0  0  0  0  0  0  0  0  0  0  0  0
    2.9950   -1.4892    0.7720 C   0  0  0  0  0  0  0  0  0  0  0  0
    2.4441   -0.2965    0.2868 C   0  0  0  0  0  0  0  0  0  0  0  0
    3.3444    0.7100   -0.1232 C   0  0  0  0  0  0  0  0  0  0  0  0
    4.7375    0.4816   -0.1125 C   0  0  0  0  0  0  0  0  0  0  0  0
    2.8532    2.0425   -0.6167 C   0  0  0  0  0  0  0  0  0  0  0  0
    1.5485    2.3825    0.0695 C   0  0  0  0  0  0  0  0  0  0  0  0
    0.5537    1.2634   -0.1729 C   0  0  0  0  0  0  0  0  0  0  0  0
    1.0171   -0.0721    0.2355 N   0  0  0  0  0  0  0  0  0  0  0  0
    0.0957   -1.1396    0.2949 C   0  0  0  0  0  0  0  0  0  0  0  0
    0.3400   -2.3425    0.3061 O   0  0  0  0  0  0  0  0  0  0  0  0
   -1.3427   -0.8087    0.3138 C   0  0  0  0  0  0  0  0  0  0  0  0
   -2.0940   -0.9729   -0.8583 C   0  0  0  0  0  0  0  0  0  0  0  0
   -3.4589   -0.6765   -0.8534 C   0  0  0  0  0  0  0  0  0  0  0  0
   -4.2874   -0.7824   -1.9401 O   0  0  0  0  0  0  0  0  0  0  0  0
   -3.7507   -1.3784   -3.1159 C   0  0  0  0  0  0  0  0  0  0  0  0
   -4.0514   -0.2278    0.3411 C   0  0  0  0  0  0  0  0  0  0  0  0
   -5.3864    0.1010    0.3736 O   0  0  0  0  0  0  0  0  0  0  0  0
   -6.1649   -1.0644    0.6437 C   0  0  0  0  0  0  0  0  0  0  0  0
   -3.2836   -0.0590    1.5030 C   0  0  0  0  0  0  0  0  0  0  0  0
   -3.8528    0.3386    2.6845 O   0  0  0  0  0  0  0  0  0  0  0  0
   -3.9781    1.7614    2.7205 C   0  0  0  0  0  0  0  0  0  0  0  0
   -1.9311   -0.3795    1.5045 C   0  0  0  0  0  0  0  0  0  0  0  0
    8.5156   -0.5384    0.0248 H   0  0  0  0  0  0  0  0  0  0  0  0
    7.4862    0.8166    0.4995 H   0  0  0  0  0  0  0  0  0  0  0  0
    7.3461    0.0843   -1.1446 H   0  0  0  0  0  0  0  0  0  0  0  0
    4.7671   -2.6396    1.1826 H   0  0  0  0  0  0  0  0  0  0  0  0
    2.3754   -2.2898    1.1627 H   0  0  0  0  0  0  0  0  0  0  0  0
    5.3925    1.2732   -0.4627 H   0  0  0  0  0  0  0  0  0  0  0  0
    3.5848    2.8294   -0.3966 H   0  0  0  0  0  0  0  0  0  0  0  0
    2.7239    1.9982   -1.7048 H   0  0  0  0  0  0  0  0  0  0  0  0
    1.1535    3.3277   -0.3172 H   0  0  0  0  0  0  0  0  0  0  0  0
    1.7087    2.5119    1.1475 H   0  0  0  0  0  0  0  0  0  0  0  0
    0.2961    1.2046   -1.2384 H   0  0  0  0  0  0  0  0  0  0  0  0
   -0.3643    1.5190    0.3636 H   0  0  0  0  0  0  0  0  0  0  0  0
   -1.5856   -1.3341   -1.7468 H   0  0  0  0  0  0  0  0  0  0  0  0
   -4.5582   -1.4500   -3.8512 H   0  0  0  0  0  0  0  0  0  0  0  0
   -3.3886   -2.3941   -2.9188 H   0  0  0  0  0  0  0  0  0  0  0  0
   -2.9617   -0.7529   -3.5492 H   0  0  0  0  0  0  0  0  0  0  0  0
   -7.1900   -0.7421    0.8505 H   0  0  0  0  0  0  0  0  0  0  0  0
   -5.7977   -1.6100    1.5208 H   0  0  0  0  0  0  0  0  0  0  0  0
   -6.1852   -1.7291   -0.2272 H   0  0  0  0  0  0  0  0  0  0  0  0
   -2.9897    2.2294    2.7747 H   0  0  0  0  0  0  0  0  0  0  0  0
   -4.5367    2.1521    1.8621 H   0  0  0  0  0  0  0  0  0  0  0  0
   -4.5270    2.0257    3.6293 H   0  0  0  0  0  0  0  0  0  0  0  0
   -1.3459   -0.2953    2.4153 H   0  0  0  0  0  0  0  0  0  0  0  0
  1  2  1  0
  2  3  1  0
  3  4  2  0
  4  5  1  0
  5  6  2  0
  6  7  1  0
  7  8  2  0
  7  9  1  0
  9 10  1  0
 10 11  1  0
 11 12  1  0
 12 13  1  0
 13 14  2  0
 13 15  1  0
 15 16  2  0
 16 17  1  0
 17 18  1  0
 18 19  1  0
 17 20  2  0
 20 21  1  0
 21 22  1  0
 20 23  1  0
 23 24  1  0
 24 25  1  0
 23 26  2  0
  8  3  1  0
 26 15  1  0
 12  6  1  0
  1 27  1  0
  1 28  1  0
  1 29  1  0
  4 30  1  0
  5 31  1  0
  8 32  1  0
  9 33  1  0
  9 34  1  0
 10 35  1  0
 10 36  1  0
 11 37  1  0
 11 38  1  0
 16 39  1  0
 19 40  1  0
 19 41  1  0
 19 42  1  0
 22 43  1  0
 22 44  1  0
 22 45  1  0
 25 46  1  0
 25 47  1  0
 25 48  1  0
 26 49  1  0
M  END
$$$$
