
     RDKit          3D

 39 42  0  0  0  0  0  0  0  0999 V2000
   -2.0008    1.6967   -0.8476 C   0  0  0  0  0  0  0  0  0  0  0  0
   -2.7863    0.5655   -0.2416 C   0  0  0  0  0  0  0  0  0  0  0  0
   -4.0236    0.2279   -0.8173 C   0  0  0  0  0  0  0  0  0  0  0  0
   -4.8022   -0.8037   -0.2950 C   0  0  0  0  0  0  0  0  0  0  0  0
   -4.3561   -1.5152    0.8114 C   0  0  0  0  0  0  0  0  0  0  0  0
   -3.1250   -1.2026    1.3871 C   0  0  0  0  0  0  0  0  0  0  0  0
   -2.3124   -0.1773    0.8624 C   0  0  0  0  0  0  0  0  0  0  0  0
   -0.9831    0.1089    1.5413 C   0  0  0  0  0  0  0  0  0  0  0  0
    0.1610   -0.0398    0.6647 N   0  0  0  0  0  0  0  0  0  0  0  0
    0.6260   -1.2547    0.1470 C   0  0  0  0  0  0  0  0  0  0  0  0
    0.0813   -2.5204    0.1361 C   0  0  0  0  0  0  0  0  0  0  0  0
    0.8113   -3.5479   -0.4767 C   0  0  0  0  0  0  0  0  0  0  0  0
    2.0676   -3.3019   -1.0627 C   0  0  0  0  0  0  0  0  0  0  0  0
    2.6229   -2.0216   -1.0482 C   0  0  0  0  0  0  0  0  0  0  0  0
    1.8919   -1.0212   -0.4441 C   0  0  0  0  0  0  0  0  0  0  0  0
    2.1892    0.3417   -0.2544 N   0  0  0  0  0  0  0  0  0  0  0  0
    3.3679    0.9024   -0.6057 N   0  0  0  0  0  0  0  0  0  0  0  0
    3.4453    2.1497   -0.2335 C   0  0  0  0  0  0  0  0  0  0  0  0
    4.6675    2.9652   -0.5294 C   0  0  0  0  0  0  0  0  0  0  0  0
    2.2962    2.8437    0.5263 C   0  0  0  0  0  0  0  0  0  0  0  0
    2.4625    4.0295    0.7925 O   0  0  0  0  0  0  0  0  0  0  0  0
    1.1478    2.1612    0.8887 N   0  0  0  0  0  0  0  0  0  0  0  0
    1.1477    0.9359    0.4746 C   0  0  0  0  0  0  0  0  0  0  0  0
   -2.6297    2.3099   -1.5025 H   0  0  0  0  0  0  0  0  0  0  0  0
   -1.6164    2.3643   -0.0711 H   0  0  0  0  0  0  0  0  0  0  0  0
   -1.1742    1.3064   -1.4483 H   0  0  0  0  0  0  0  0  0  0  0  0
   -4.3935    0.7775   -1.6808 H   0  0  0  0  0  0  0  0  0  0  0  0
   -5.7587   -1.0458   -0.7505 H   0  0  0  0  0  0  0  0  0  0  0  0
   -4.9652   -2.3140    1.2263 H   0  0  0  0  0  0  0  0  0  0  0  0
   -2.7978   -1.7744    2.2535 H   0  0  0  0  0  0  0  0  0  0  0  0
   -0.8493   -0.5452    2.4126 H   0  0  0  0  0  0  0  0  0  0  0  0
   -1.0369    1.1250    1.9520 H   0  0  0  0  0  0  0  0  0  0  0  0
   -0.8851   -2.7358    0.5727 H   0  0  0  0  0  0  0  0  0  0  0  0
    0.3986   -4.5546   -0.5038 H   0  0  0  0  0  0  0  0  0  0  0  0
    2.6108   -4.1196   -1.5315 H   0  0  0  0  0  0  0  0  0  0  0  0
    3.5911   -1.8188   -1.4912 H   0  0  0  0  0  0  0  0  0  0  0  0
    5.1059    3.3215    0.4066 H   0  0  0  0  0  0  0  0  0  0  0  0
    5.4087    2.3611   -1.0599 H   0  0  0  0  0  0  0  0  0  0  0  0
    4.3954    3.8202   -1.1539 H   0  0  0  0  0  0  0  0  0  0  0  0
  1  2  1  0
  2  3  2  0
  3  4  1  0
  4  5  2  0
  5  6  1  0
  6  7  2  0
  7  8  1  0
  8  9  1  0
  9 10  1  0
 10 11  2  0
 11 12  1  0
 12 13  2  0
 13 14  1  0
 14 15  2  0
 15 16  1  0
 16 17  1  0
 17 18  2  0
 18 19  1  0
 18 20  1  0
 20 21  2  0
 20 22  1  0
 22 23  2  0
  7  2  1  0
 23  9  1  0
 15 10  1  0
 23 16  1  0
  1 24  1  0
  1 25  1  0
  1 26  1  0
  3 27  1  0
  4 28  1  0
  5 29  1  0
  6 30  1  0
  8 31  1  0
  8 32  1  0
 11 33  1  0
 12 34  1  0
 13 35  1  0
 14 36  1  0
 19 37  1  0
 19 38  1  0
 19 39  1  0
M  END
$$$$
