
     RDKit          3D

 44 45  0  0  0  0  0  0  0  0999 V2000
   -5.6051    2.5640   -2.0140 C   0  0  0  0  0  0  0  0  0  0  0  0
   -5.5947    1.1421   -1.9970 O   0  0  0  0  0  0  0  0  0  0  0  0
   -4.6821    0.5412   -1.1757 C   0  0  0  0  0  0  0  0  0  0  0  0
   -3.7575    1.1906   -0.3587 C   0  0  0  0  0  0  0  0  0  0  0  0
   -2.8715    0.4523    0.4395 C   0  0  0  0  0  0  0  0  0  0  0  0
   -2.9053   -0.9417    0.4259 C   0  0  0  0  0  0  0  0  0  0  0  0
   -2.0917   -1.7806    1.1361 O   0  0  0  0  0  0  0  0  0  0  0  0
   -1.2117   -1.2081    2.1064 C   0  0  0  0  0  0  0  0  0  0  0  0
   -0.7738   -2.3434    3.0277 C   0  0  0  0  0  0  0  0  0  0  0  0
    0.0468   -0.5795    1.4788 C   0  0  0  0  0  0  0  0  0  0  0  0
    0.5781    0.3986    1.9943 O   0  0  0  0  0  0  0  0  0  0  0  0
    0.4664   -1.2541    0.3453 N   0  0  0  0  0  0  0  0  0  0  0  0
    1.6045   -1.0057   -0.4457 C   0  0  0  0  0  0  0  0  0  0  0  0
    1.7000   -1.7211   -1.6453 C   0  0  0  0  0  0  0  0  0  0  0  0
    2.7878   -1.5363   -2.4952 C   0  0  0  0  0  0  0  0  0  0  0  0
    3.7955   -0.6401   -2.1448 C   0  0  0  0  0  0  0  0  0  0  0  0
    3.7302    0.0720   -0.9402 C   0  0  0  0  0  0  0  0  0  0  0  0
    4.8039    0.9472   -0.6667 N   0  0  0  0  0  0  0  0  0  0  0  0
    5.0246    1.6855    0.4818 C   0  0  0  0  0  0  0  0  0  0  0  0
    6.2723    2.5282    0.3821 C   0  0  0  0  0  0  0  0  0  0  0  0
    4.3557    1.6811    1.5074 O   0  0  0  0  0  0  0  0  0  0  0  0
    2.6270   -0.1137   -0.0969 C   0  0  0  0  0  0  0  0  0  0  0  0
   -3.8289   -1.5895   -0.3954 C   0  0  0  0  0  0  0  0  0  0  0  0
   -4.7119   -0.8533   -1.1888 C   0  0  0  0  0  0  0  0  0  0  0  0
   -5.8531    2.9689   -1.0274 H   0  0  0  0  0  0  0  0  0  0  0  0
   -4.6516    2.9614   -2.3772 H   0  0  0  0  0  0  0  0  0  0  0  0
   -6.3858    2.8840   -2.7108 H   0  0  0  0  0  0  0  0  0  0  0  0
   -3.6927    2.2732   -0.3174 H   0  0  0  0  0  0  0  0  0  0  0  0
   -2.1668    1.0100    1.0492 H   0  0  0  0  0  0  0  0  0  0  0  0
   -1.7356   -0.4577    2.7111 H   0  0  0  0  0  0  0  0  0  0  0  0
   -0.0818   -1.9873    3.7975 H   0  0  0  0  0  0  0  0  0  0  0  0
   -1.6433   -2.7945    3.5177 H   0  0  0  0  0  0  0  0  0  0  0  0
   -0.2776   -3.1424    2.4648 H   0  0  0  0  0  0  0  0  0  0  0  0
   -0.1927   -1.9427   -0.0048 H   0  0  0  0  0  0  0  0  0  0  0  0
    0.9231   -2.4228   -1.9384 H   0  0  0  0  0  0  0  0  0  0  0  0
    2.8496   -2.0894   -3.4287 H   0  0  0  0  0  0  0  0  0  0  0  0
    4.6354   -0.5141   -2.8229 H   0  0  0  0  0  0  0  0  0  0  0  0
    5.5149    1.0096   -1.3837 H   0  0  0  0  0  0  0  0  0  0  0  0
    7.1452    1.9126    0.6151 H   0  0  0  0  0  0  0  0  0  0  0  0
    6.3770    2.9522   -0.6210 H   0  0  0  0  0  0  0  0  0  0  0  0
    6.2104    3.3557    1.0950 H   0  0  0  0  0  0  0  0  0  0  0  0
    2.5643    0.4349    0.8355 H   0  0  0  0  0  0  0  0  0  0  0  0
   -3.8689   -2.6755   -0.4182 H   0  0  0  0  0  0  0  0  0  0  0  0
   -5.4284   -1.3716   -1.8211 H   0  0  0  0  0  0  0  0  0  0  0  0
  1  2  1  0
  2  3  1  0
  3  4  2  0
  4  5  1  0
  5  6  2  0
  6  7  1  0
  7  8  1  0
  8  9  1  0
  8 10  1  0
 10 11  2  0
 10 12  1  0
 12 13  1  0
 13 14  2  0
 14 15  1  0
 15 16  2  0
 16 17  1  0
 17 18  1  0
 18 19  1  0
 19 20  1  0
 19 21  2  0
 17 22  2  0
  6 23  1  0
 23 24  2  0
 24  3  1  0
 22 13  1  0
  1 25  1  0
  1 26  1  0
  1 27  1  0
  4 28  1  0
  5 29  1  0
  8 30  1  0
  9 31  1  0
  9 32  1  0
  9 33  1  0
 12 34  1  0
 14 35  1  0
 15 36  1  0
 16 37  1  0
 18 38  1  0
 20 39  1  0
 20 40  1  0
 20 41  1  0
 22 42  1  0
 23 43  1  0
 24 44  1  0
M  END
$$$$
