
     RDKit          3D

 53 56  0  0  0  0  0  0  0  0999 V2000
   -0.7702    2.0060   -2.3748 O   0  0  0  0  0  0  0  0  0  0  0  0
   -0.9423    1.7196   -1.1960 C   0  0  0  0  0  0  0  0  0  0  0  0
   -1.9298    2.2683   -0.4037 N   0  0  0  0  0  0  0  0  0  0  0  0
   -2.8428    3.2799   -0.9161 C   0  0  0  0  0  0  0  0  0  0  0  0
   -4.2677    3.1244   -0.3816 C   0  0  0  0  0  0  0  0  0  0  0  0
   -4.9780    1.9693   -1.0075 C   0  0  0  0  0  0  0  0  0  0  0  0
   -5.6567    2.0357   -2.1399 N   0  0  0  0  0  0  0  0  0  0  0  0
   -6.1135    0.7668   -2.3813 C   0  0  0  0  0  0  0  0  0  0  0  0
   -5.7245   -0.0898   -1.3808 C   0  0  0  0  0  0  0  0  0  0  0  0
   -5.8887   -1.4720   -1.0950 C   0  0  0  0  0  0  0  0  0  0  0  0
   -5.3563   -1.9785    0.0341 C   0  0  0  0  0  0  0  0  0  0  0  0
   -4.6194   -1.1438    0.9696 C   0  0  0  0  0  0  0  0  0  0  0  0
   -4.4595    0.1621    0.6924 C   0  0  0  0  0  0  0  0  0  0  0  0
   -5.0033    0.6869   -0.4822 N   0  0  0  0  0  0  0  0  0  0  0  0
   -0.0645    0.7043   -0.5526 C   0  0  0  0  0  0  0  0  0  0  0  0
    0.4391   -0.3303   -1.3550 C   0  0  0  0  0  0  0  0  0  0  0  0
    1.2629   -1.3140   -0.8042 C   0  0  0  0  0  0  0  0  0  0  0  0
    1.6062   -1.2455    0.5489 C   0  0  0  0  0  0  0  0  0  0  0  0
    2.6248   -2.5239    1.2644 S   0  0  0  0  0  6  0  0  0  0  0  0
    2.4655   -3.7058    0.4445 O   0  0  0  0  0  0  0  0  0  0  0  0
    2.3381   -2.5542    2.6834 O   0  0  0  0  0  0  0  0  0  0  0  0
    4.1972   -1.9276    1.0490 N   0  0  0  0  0  0  0  0  0  0  0  0
    4.6513   -0.8166    1.9182 C   0  0  0  0  0  0  0  0  0  0  0  0
    5.1748    0.3539    1.0955 C   0  0  0  0  0  0  0  0  0  0  0  0
    6.3393   -0.0613    0.1979 C   0  0  0  0  0  0  0  0  0  0  0  0
    6.2122   -1.5009   -0.2986 C   0  0  0  0  0  0  0  0  0  0  0  0
    4.7608   -1.9654   -0.3198 C   0  0  0  0  0  0  0  0  0  0  0  0
    1.1038   -0.2218    1.3600 C   0  0  0  0  0  0  0  0  0  0  0  0
    0.2785    0.7618    0.8054 C   0  0  0  0  0  0  0  0  0  0  0  0
   -1.9820    2.0235    0.5732 H   0  0  0  0  0  0  0  0  0  0  0  0
   -2.8338    3.2759   -2.0118 H   0  0  0  0  0  0  0  0  0  0  0  0
   -2.4381    4.2432   -0.5865 H   0  0  0  0  0  0  0  0  0  0  0  0
   -4.8301    4.0337   -0.6267 H   0  0  0  0  0  0  0  0  0  0  0  0
   -4.2685    3.0477    0.7099 H   0  0  0  0  0  0  0  0  0  0  0  0
   -6.6965    0.5397   -3.2641 H   0  0  0  0  0  0  0  0  0  0  0  0
   -6.4374   -2.1035   -1.7863 H   0  0  0  0  0  0  0  0  0  0  0  0
   -5.4662   -3.0323    0.2739 H   0  0  0  0  0  0  0  0  0  0  0  0
   -4.2195   -1.5957    1.8708 H   0  0  0  0  0  0  0  0  0  0  0  0
   -3.9305    0.8314    1.3550 H   0  0  0  0  0  0  0  0  0  0  0  0
    0.1762   -0.3760   -2.4114 H   0  0  0  0  0  0  0  0  0  0  0  0
    1.6276   -2.1236   -1.4338 H   0  0  0  0  0  0  0  0  0  0  0  0
    5.4402   -1.2023    2.5757 H   0  0  0  0  0  0  0  0  0  0  0  0
    3.8468   -0.4617    2.5693 H   0  0  0  0  0  0  0  0  0  0  0  0
    5.4923    1.1704    1.7536 H   0  0  0  0  0  0  0  0  0  0  0  0
    4.3628    0.7510    0.4727 H   0  0  0  0  0  0  0  0  0  0  0  0
    6.3956    0.6270   -0.6535 H   0  0  0  0  0  0  0  0  0  0  0  0
    7.2864    0.0435    0.7408 H   0  0  0  0  0  0  0  0  0  0  0  0
    6.7919   -2.1598    0.3605 H   0  0  0  0  0  0  0  0  0  0  0  0
    6.6555   -1.5880   -1.2973 H   0  0  0  0  0  0  0  0  0  0  0  0
    4.1773   -1.3293   -0.9931 H   0  0  0  0  0  0  0  0  0  0  0  0
    4.7283   -2.9919   -0.6992 H   0  0  0  0  0  0  0  0  0  0  0  0
    1.3519   -0.1822    2.4188 H   0  0  0  0  0  0  0  0  0  0  0  0
   -0.0676    1.5717    1.4409 H   0  0  0  0  0  0  0  0  0  0  0  0
  1  2  2  0
  2  3  1  0
  3  4  1  0
  4  5  1  0
  5  6  1  0
  6  7  2  0
  7  8  1  0
  8  9  2  0
  9 10  1  0
 10 11  2  0
 11 12  1  0
 12 13  2  0
 13 14  1  0
  2 15  1  0
 15 16  2  0
 16 17  1  0
 17 18  2  0
 18 19  1  0
 19 20  2  0
 19 21  2  0
 19 22  1  0
 22 23  1  0
 23 24  1  0
 24 25  1  0
 25 26  1  0
 26 27  1  0
 18 28  1  0
 28 29  2  0
 14  6  1  0
 29 15  1  0
 14  9  1  0
 27 22  1  0
  3 30  1  0
  4 31  1  0
  4 32  1  0
  5 33  1  0
  5 34  1  0
  8 35  1  0
 10 36  1  0
 11 37  1  0
 12 38  1  0
 13 39  1  0
 16 40  1  0
 17 41  1  0
 23 42  1  0
 23 43  1  0
 24 44  1  0
 24 45  1  0
 25 46  1  0
 25 47  1  0
 26 48  1  0
 26 49  1  0
 27 50  1  0
 27 51  1  0
 28 52  1  0
 29 53  1  0
M  END
$$$$
