
     RDKit          3D

 49 52  0  0  0  0  0  0  0  0999 V2000
   -8.4928    0.1888    1.9578 C   0  0  0  0  0  0  0  0  0  0  0  0
   -8.0056   -0.5423    0.8393 O   0  0  0  0  0  0  0  0  0  0  0  0
   -6.6891   -0.3670    0.5155 C   0  0  0  0  0  0  0  0  0  0  0  0
   -5.7770    0.4429    1.1891 C   0  0  0  0  0  0  0  0  0  0  0  0
   -4.4487    0.5322    0.7491 C   0  0  0  0  0  0  0  0  0  0  0  0
   -4.0196   -0.1800   -0.3716 C   0  0  0  0  0  0  0  0  0  0  0  0
   -2.6975   -0.1507   -0.8594 N   0  0  0  0  0  0  0  0  0  0  0  0
   -1.7020    0.7378   -0.5194 C   0  0  0  0  0  0  0  0  0  0  0  0
   -1.8717    1.7603    0.1395 O   0  0  0  0  0  0  0  0  0  0  0  0
   -0.4437    0.3999   -1.0328 N   0  0  0  0  0  0  0  0  0  0  0  0
    0.6460    1.3278   -0.7022 C   0  0  0  0  0  0  0  0  0  0  0  0
    1.8618    1.1731   -1.6323 C   0  0  0  0  0  0  0  0  0  0  0  0
    2.3257   -0.2312   -1.7014 N   0  0  0  0  0  0  0  0  0  0  0  0
    3.1173   -0.6559   -0.6212 C   0  0  0  0  0  0  0  0  0  0  0  0
    4.3067    0.0008   -0.3436 C   0  0  0  0  0  0  0  0  0  0  0  0
    5.0639   -0.4610    0.7192 C   0  0  0  0  0  0  0  0  0  0  0  0
    6.3035    0.1795    1.0506 N   0  0  0  0  0  0  0  0  0  0  0  0
    6.9039    1.2635    0.4337 C   0  0  0  0  0  0  0  0  0  0  0  0
    8.0763    1.5185    1.1053 C   0  0  0  0  0  0  0  0  0  0  0  0
    8.1195    0.5504    2.1162 C   0  0  0  0  0  0  0  0  0  0  0  0
    7.0618   -0.2583    2.0946 N   0  0  0  0  0  0  0  0  0  0  0  0
    4.6738   -1.5156    1.4681 N   0  0  0  0  0  0  0  0  0  0  0  0
    3.5294   -2.0979    1.1125 C   0  0  0  0  0  0  0  0  0  0  0  0
    2.7375   -1.7235    0.0991 N   0  0  0  0  0  0  0  0  0  0  0  0
    1.2327   -1.1557   -2.0761 C   0  0  0  0  0  0  0  0  0  0  0  0
   -0.0113   -1.0040   -1.1771 C   0  0  0  0  0  0  0  0  0  0  0  0
   -4.9349   -1.0007   -1.0380 C   0  0  0  0  0  0  0  0  0  0  0  0
   -6.2592   -1.0893   -0.5980 C   0  0  0  0  0  0  0  0  0  0  0  0
   -9.5538   -0.0512    2.0772 H   0  0  0  0  0  0  0  0  0  0  0  0
   -7.9788   -0.1086    2.8778 H   0  0  0  0  0  0  0  0  0  0  0  0
   -8.4126    1.2679    1.7900 H   0  0  0  0  0  0  0  0  0  0  0  0
   -6.0580    1.0200    2.0637 H   0  0  0  0  0  0  0  0  0  0  0  0
   -3.7679    1.1644    1.3118 H   0  0  0  0  0  0  0  0  0  0  0  0
   -2.5295   -0.6744   -1.7029 H   0  0  0  0  0  0  0  0  0  0  0  0
    0.2820    2.3598   -0.7650 H   0  0  0  0  0  0  0  0  0  0  0  0
    0.9310    1.1414    0.3408 H   0  0  0  0  0  0  0  0  0  0  0  0
    1.5703    1.4759   -2.6464 H   0  0  0  0  0  0  0  0  0  0  0  0
    2.6560    1.8636   -1.3284 H   0  0  0  0  0  0  0  0  0  0  0  0
    4.6211    0.8197   -0.9729 H   0  0  0  0  0  0  0  0  0  0  0  0
    6.4653    1.7605   -0.4170 H   0  0  0  0  0  0  0  0  0  0  0  0
    8.7976    2.2947    0.8928 H   0  0  0  0  0  0  0  0  0  0  0  0
    8.8787    0.3965    2.8727 H   0  0  0  0  0  0  0  0  0  0  0  0
    3.2103   -2.9534    1.6974 H   0  0  0  0  0  0  0  0  0  0  0  0
    1.5725   -2.1986   -2.1005 H   0  0  0  0  0  0  0  0  0  0  0  0
    0.9422   -0.9147   -3.1072 H   0  0  0  0  0  0  0  0  0  0  0  0
    0.1799   -1.3783   -0.1651 H   0  0  0  0  0  0  0  0  0  0  0  0
   -0.8137   -1.6205   -1.5901 H   0  0  0  0  0  0  0  0  0  0  0  0
   -4.6379   -1.5797   -1.9078 H   0  0  0  0  0  0  0  0  0  0  0  0
   -6.9619   -1.7274   -1.1282 H   0  0  0  0  0  0  0  0  0  0  0  0
  1  2  1  0
  2  3  1  0
  3  4  2  0
  4  5  1  0
  5  6  2  0
  6  7  1  0
  7  8  1  0
  8  9  2  0
  8 10  1  0
 10 11  1  0
 11 12  1  0
 12 13  1  0
 13 14  1  0
 14 15  2  0
 15 16  1  0
 16 17  1  0
 17 18  1  0
 18 19  2  0
 19 20  1  0
 20 21  2  0
 16 22  2  0
 22 23  1  0
 23 24  2  0
 13 25  1  0
 25 26  1  0
  6 27  1  0
 27 28  2  0
 28  3  1  0
 26 10  1  0
 24 14  1  0
 21 17  1  0
  1 29  1  0
  1 30  1  0
  1 31  1  0
  4 32  1  0
  5 33  1  0
  7 34  1  0
 11 35  1  0
 11 36  1  0
 12 37  1  0
 12 38  1  0
 15 39  1  0
 18 40  1  0
 19 41  1  0
 20 42  1  0
 23 43  1  0
 25 44  1  0
 25 45  1  0
 26 46  1  0
 26 47  1  0
 27 48  1  0
 28 49  1  0
M  END
$$$$
