
     RDKit          3D

 41 42  0  0  0  0  0  0  0  0999 V2000
    6.1041    1.7310    0.6570 C   0  0  0  0  0  0  0  0  0  0  0  0
    5.7081    0.4640    1.1651 O   0  0  0  0  0  0  0  0  0  0  0  0
    5.6788   -0.5594    0.1624 C   0  0  0  0  0  0  0  0  0  0  0  0
    4.4084   -0.4892   -0.6862 C   0  0  0  0  0  0  0  0  0  0  0  0
    3.2172   -0.5489    0.1398 N   0  0  0  0  0  0  0  0  0  0  0  0
    1.9710   -0.7564   -0.3966 C   0  0  0  0  0  0  0  0  0  0  0  0
    1.8038   -0.9565   -1.5965 O   0  0  0  0  0  0  0  0  0  0  0  0
    0.7893   -0.6607    0.5128 C   0  0  0  0  0  0  0  0  0  0  0  0
   -0.4377   -0.3613   -0.1145 C   0  0  0  0  0  0  0  0  0  0  0  0
   -1.6070   -0.1956    0.6316 C   0  0  0  0  0  0  0  0  0  0  0  0
   -2.8786    0.0693    0.0111 N   0  0  0  0  0  0  0  0  0  0  0  0
   -2.9078    1.1414   -1.0175 C   0  0  0  0  0  0  0  0  0  0  0  0
   -4.3425    1.6321   -1.2068 C   0  0  0  0  0  0  0  0  0  0  0  0
   -5.2801    0.5276   -1.6941 C   0  0  0  0  0  0  0  0  0  0  0  0
   -5.3454   -0.6406   -0.7211 C   0  0  0  0  0  0  0  0  0  0  0  0
   -3.7345   -1.3501   -0.4364 S   0  0  0  0  0  6  0  0  0  0  0  0
   -3.2073   -1.8204   -1.6998 O   0  0  0  0  0  0  0  0  0  0  0  0
   -3.8305   -2.2244    0.7136 O   0  0  0  0  0  0  0  0  0  0  0  0
   -1.5754   -0.3901    2.0100 C   0  0  0  0  0  0  0  0  0  0  0  0
   -0.3747   -0.7112    2.6434 C   0  0  0  0  0  0  0  0  0  0  0  0
    0.8084   -0.8462    1.9040 C   0  0  0  0  0  0  0  0  0  0  0  0
    2.2152   -1.2866    2.8080 Cl  0  0  0  0  0  0  0  0  0  0  0  0
    5.3798    2.1058   -0.0712 H   0  0  0  0  0  0  0  0  0  0  0  0
    6.1458    2.4357    1.4923 H   0  0  0  0  0  0  0  0  0  0  0  0
    7.0991    1.6702    0.2056 H   0  0  0  0  0  0  0  0  0  0  0  0
    6.5764   -0.5075   -0.4640 H   0  0  0  0  0  0  0  0  0  0  0  0
    5.7031   -1.5169    0.6944 H   0  0  0  0  0  0  0  0  0  0  0  0
    4.3582    0.4478   -1.2497 H   0  0  0  0  0  0  0  0  0  0  0  0
    4.3849   -1.3155   -1.4051 H   0  0  0  0  0  0  0  0  0  0  0  0
    3.3161   -0.2581    1.1080 H   0  0  0  0  0  0  0  0  0  0  0  0
   -0.4719   -0.2648   -1.1981 H   0  0  0  0  0  0  0  0  0  0  0  0
   -2.4894    0.7876   -1.9666 H   0  0  0  0  0  0  0  0  0  0  0  0
   -2.2952    1.9870   -0.6819 H   0  0  0  0  0  0  0  0  0  0  0  0
   -4.3477    2.4522   -1.9338 H   0  0  0  0  0  0  0  0  0  0  0  0
   -4.7216    2.0391   -0.2613 H   0  0  0  0  0  0  0  0  0  0  0  0
   -4.9457    0.1763   -2.6777 H   0  0  0  0  0  0  0  0  0  0  0  0
   -6.2861    0.9414   -1.8280 H   0  0  0  0  0  0  0  0  0  0  0  0
   -5.9833   -1.4373   -1.1156 H   0  0  0  0  0  0  0  0  0  0  0  0
   -5.7428   -0.3271    0.2496 H   0  0  0  0  0  0  0  0  0  0  0  0
   -2.4887   -0.3108    2.5947 H   0  0  0  0  0  0  0  0  0  0  0  0
   -0.3738   -0.8730    3.7197 H   0  0  0  0  0  0  0  0  0  0  0  0
  1  2  1  0
  2  3  1  0
  3  4  1  0
  4  5  1  0
  5  6  1  0
  6  7  2  0
  6  8  1  0
  8  9  2  0
  9 10  1  0
 10 11  1  0
 11 12  1  0
 12 13  1  0
 13 14  1  0
 14 15  1  0
 15 16  1  0
 16 17  2  0
 16 18  2  0
 10 19  2  0
 19 20  1  0
 20 21  2  0
 21 22  1  0
 21  8  1  0
 16 11  1  0
  1 23  1  0
  1 24  1  0
  1 25  1  0
  3 26  1  0
  3 27  1  0
  4 28  1  0
  4 29  1  0
  5 30  1  0
  9 31  1  0
 12 32  1  0
 12 33  1  0
 13 34  1  0
 13 35  1  0
 14 36  1  0
 14 37  1  0
 15 38  1  0
 15 39  1  0
 19 40  1  0
 20 41  1  0
M  END
$$$$
