
     RDKit          3D

 36 39  0  0  0  0  0  0  0  0999 V2000
   -3.1724   -2.5823   -1.1556 N   0  0  0  0  0  0  0  0  0  0  0  0
   -3.2379   -1.2782   -0.7978 C   0  0  0  0  0  0  0  0  0  0  0  0
   -2.1245   -0.5218   -0.4686 C   0  0  0  0  0  0  0  0  0  0  0  0
   -0.7208   -0.9449   -0.4640 C   0  0  0  0  0  0  0  0  0  0  0  0
   -0.3873   -2.0606   -0.8598 O   0  0  0  0  0  0  0  0  0  0  0  0
    0.1699    0.0058    0.0125 N   0  0  0  0  0  0  0  0  0  0  0  0
    1.5697   -0.0878    0.1444 C   0  0  0  0  0  0  0  0  0  0  0  0
    2.3186   -1.2148   -0.2046 C   0  0  0  0  0  0  0  0  0  0  0  0
    3.7082   -1.2265   -0.0343 C   0  0  0  0  0  0  0  0  0  0  0  0
    4.3569   -0.1129    0.4886 C   0  0  0  0  0  0  0  0  0  0  0  0
    3.6209    1.0273    0.8145 C   0  0  0  0  0  0  0  0  0  0  0  0
    2.2342    1.0346    0.6576 C   0  0  0  0  0  0  0  0  0  0  0  0
    4.1912    2.1759    1.3027 O   0  0  0  0  0  0  0  0  0  0  0  0
    5.6096    2.1793    1.1011 C   0  0  0  0  0  0  0  0  0  0  0  0
    6.2113    0.8400    1.4934 C   0  0  0  0  0  0  0  0  0  0  0  0
    5.7151   -0.2040    0.6479 O   0  0  0  0  0  0  0  0  0  0  0  0
   -2.5814    1.0818   -0.0549 S   0  0  0  0  0  0  0  0  0  0  0  0
   -4.2294    0.7633   -0.3190 C   0  0  0  0  0  0  0  0  0  0  0  0
   -5.1494    1.7347   -0.1382 N   0  0  0  0  0  0  0  0  0  0  0  0
   -6.4163    1.3409   -0.3773 C   0  0  0  0  0  0  0  0  0  0  0  0
   -6.8013    0.0723   -0.7734 C   0  0  0  0  0  0  0  0  0  0  0  0
   -5.8176   -0.8983   -0.9486 C   0  0  0  0  0  0  0  0  0  0  0  0
   -4.4689   -0.5468   -0.7163 C   0  0  0  0  0  0  0  0  0  0  0  0
   -3.9353   -3.0582   -1.6251 H   0  0  0  0  0  0  0  0  0  0  0  0
   -2.2589   -3.0119   -1.3311 H   0  0  0  0  0  0  0  0  0  0  0  0
   -0.2490    0.8812    0.3038 H   0  0  0  0  0  0  0  0  0  0  0  0
    1.8556   -2.1089   -0.6095 H   0  0  0  0  0  0  0  0  0  0  0  0
    4.2779   -2.1125   -0.3015 H   0  0  0  0  0  0  0  0  0  0  0  0
    1.6863    1.9318    0.9323 H   0  0  0  0  0  0  0  0  0  0  0  0
    6.0302    2.9788    1.7190 H   0  0  0  0  0  0  0  0  0  0  0  0
    5.8114    2.4178    0.0494 H   0  0  0  0  0  0  0  0  0  0  0  0
    5.9795    0.5851    2.5350 H   0  0  0  0  0  0  0  0  0  0  0  0
    7.2999    0.8670    1.3829 H   0  0  0  0  0  0  0  0  0  0  0  0
   -7.1641    2.1178   -0.2328 H   0  0  0  0  0  0  0  0  0  0  0  0
   -7.8474   -0.1600   -0.9414 H   0  0  0  0  0  0  0  0  0  0  0  0
   -6.0847   -1.9051   -1.2529 H   0  0  0  0  0  0  0  0  0  0  0  0
  1  2  1  0
  2  3  2  0
  3  4  1  0
  4  5  2  0
  4  6  1  0
  6  7  1  0
  7  8  2  0
  8  9  1  0
  9 10  2  0
 10 11  1  0
 11 12  2  0
 11 13  1  0
 13 14  1  0
 14 15  1  0
 15 16  1  0
  3 17  1  0
 17 18  1  0
 18 19  2  0
 19 20  1  0
 20 21  2  0
 21 22  1  0
 22 23  2  0
 23  2  1  0
 12  7  1  0
 23 18  1  0
 16 10  1  0
  1 24  1  0
  1 25  1  0
  6 26  1  0
  8 27  1  0
  9 28  1  0
 12 29  1  0
 14 30  1  0
 14 31  1  0
 15 32  1  0
 15 33  1  0
 20 34  1  0
 21 35  1  0
 22 36  1  0
M  END
$$$$
