
     RDKit          3D

 42 44  0  0  0  0  0  0  0  0999 V2000
   -7.1869   -0.7411   -1.1405 C   0  0  0  0  0  0  0  0  0  0  0  0
   -6.2394   -0.1028   -0.2964 O   0  0  0  0  0  0  0  0  0  0  0  0
   -4.9359   -0.5281   -0.3642 C   0  0  0  0  0  0  0  0  0  0  0  0
   -4.4760   -1.5292   -1.2256 C   0  0  0  0  0  0  0  0  0  0  0  0
   -3.1274   -1.8921   -1.2266 C   0  0  0  0  0  0  0  0  0  0  0  0
   -2.2242   -1.2517   -0.3735 C   0  0  0  0  0  0  0  0  0  0  0  0
   -0.7953   -1.6752   -0.4139 C   0  0  0  0  0  0  0  0  0  0  0  0
   -0.5309   -2.8376   -0.6963 O   0  0  0  0  0  0  0  0  0  0  0  0
    0.1251   -0.6824   -0.1533 N   0  0  0  0  0  0  0  0  0  0  0  0
    1.5017   -0.7878   -0.0955 C   0  0  0  0  0  0  0  0  0  0  0  0
    2.2461   -1.8901   -0.2357 C   0  0  0  0  0  0  0  0  0  0  0  0
    3.6130   -1.9395   -0.1669 N   0  0  0  0  0  0  0  0  0  0  0  0
    4.2418   -0.8260    0.0507 C   0  0  0  0  0  0  0  0  0  0  0  0
    5.7276   -0.8471    0.1269 C   0  0  0  0  0  0  0  0  0  0  0  0
    6.4027    0.2862    0.3513 C   0  0  0  0  0  0  0  0  0  0  0  0
    5.7057    1.5411    0.5227 C   0  0  0  0  0  0  0  0  0  0  0  0
    6.5298    2.7670    0.7708 C   0  0  0  0  0  0  0  0  0  0  0  0
    4.3650    1.5567    0.4535 C   0  0  0  0  0  0  0  0  0  0  0  0
    3.6211    0.4041    0.2212 N   0  0  0  0  0  0  0  0  0  0  0  0
    2.2385    0.4884    0.1657 C   0  0  0  0  0  0  0  0  0  0  0  0
    1.5780    1.5218    0.3176 O   0  0  0  0  0  0  0  0  0  0  0  0
   -2.6801   -0.2616    0.5078 C   0  0  0  0  0  0  0  0  0  0  0  0
   -4.0307    0.1088    0.5116 C   0  0  0  0  0  0  0  0  0  0  0  0
   -4.5671    1.0700    1.3332 O   0  0  0  0  0  0  0  0  0  0  0  0
   -3.6920    1.7584    2.2150 C   0  0  0  0  0  0  0  0  0  0  0  0
   -8.1646   -0.2890   -0.9476 H   0  0  0  0  0  0  0  0  0  0  0  0
   -6.9480   -0.5776   -2.1964 H   0  0  0  0  0  0  0  0  0  0  0  0
   -7.2640   -1.8091   -0.9118 H   0  0  0  0  0  0  0  0  0  0  0  0
   -5.1402   -2.0490   -1.9081 H   0  0  0  0  0  0  0  0  0  0  0  0
   -2.7828   -2.6765   -1.8986 H   0  0  0  0  0  0  0  0  0  0  0  0
   -0.2051    0.2741   -0.0427 H   0  0  0  0  0  0  0  0  0  0  0  0
    1.7817   -2.8545   -0.4212 H   0  0  0  0  0  0  0  0  0  0  0  0
    6.2172   -1.8039   -0.0060 H   0  0  0  0  0  0  0  0  0  0  0  0
    7.4872    0.2749    0.4074 H   0  0  0  0  0  0  0  0  0  0  0  0
    5.9064    3.6603    0.8859 H   0  0  0  0  0  0  0  0  0  0  0  0
    7.1206    2.6550    1.6862 H   0  0  0  0  0  0  0  0  0  0  0  0
    7.2146    2.9462   -0.0650 H   0  0  0  0  0  0  0  0  0  0  0  0
    3.8028    2.4795    0.5769 H   0  0  0  0  0  0  0  0  0  0  0  0
   -1.9836    0.1907    1.2040 H   0  0  0  0  0  0  0  0  0  0  0  0
   -3.2494    1.0730    2.9451 H   0  0  0  0  0  0  0  0  0  0  0  0
   -2.9189    2.3014    1.6614 H   0  0  0  0  0  0  0  0  0  0  0  0
   -4.2842    2.4945    2.7671 H   0  0  0  0  0  0  0  0  0  0  0  0
  1  2  1  0
  2  3  1  0
  3  4  2  0
  4  5  1  0
  5  6  2  0
  6  7  1  0
  7  8  2  0
  7  9  1  0
  9 10  1  0
 10 11  2  0
 11 12  1  0
 12 13  2  0
 13 14  1  0
 14 15  2  0
 15 16  1  0
 16 17  1  0
 16 18  2  0
 18 19  1  0
 19 20  1  0
 20 21  2  0
  6 22  1  0
 22 23  2  0
 23 24  1  0
 24 25  1  0
 23  3  1  0
 20 10  1  0
 19 13  1  0
  1 26  1  0
  1 27  1  0
  1 28  1  0
  4 29  1  0
  5 30  1  0
  9 31  1  0
 11 32  1  0
 14 33  1  0
 15 34  1  0
 17 35  1  0
 17 36  1  0
 17 37  1  0
 18 38  1  0
 22 39  1  0
 25 40  1  0
 25 41  1  0
 25 42  1  0
M  END
$$$$
