
     RDKit          3D

 58 61  0  0  0  0  0  0  0  0999 V2000
    7.6453   -0.3050    0.2423 C   0  0  0  0  0  0  0  0  0  0  0  0
    6.5598    0.0305   -0.6093 O   0  0  0  0  0  0  0  0  0  0  0  0
    5.2959   -0.0115   -0.0738 C   0  0  0  0  0  0  0  0  0  0  0  0
    5.0152   -0.2787    1.2695 C   0  0  0  0  0  0  0  0  0  0  0  0
    3.6956   -0.2972    1.7296 C   0  0  0  0  0  0  0  0  0  0  0  0
    2.6304   -0.0538    0.8551 C   0  0  0  0  0  0  0  0  0  0  0  0
    1.1919   -0.0796    1.3769 C   0  0  0  0  0  0  0  0  0  0  0  0
    0.6597    1.3569    1.3389 C   0  0  0  0  0  0  0  0  0  0  0  0
   -0.8409    1.4704    1.3124 C   0  0  0  0  0  0  0  0  0  0  0  0
   -1.4003    2.4574    1.7959 O   0  0  0  0  0  0  0  0  0  0  0  0
   -1.5095    0.4580    0.6214 N   0  0  0  0  0  0  0  0  0  0  0  0
   -2.8630    0.7430    0.2951 N   0  0  0  0  0  0  0  0  0  0  0  0
   -3.8795    0.4348    1.1908 C   0  0  0  0  0  0  0  0  0  0  0  0
   -3.5568   -0.2857    2.4707 C   0  0  0  0  0  0  0  0  0  0  0  0
   -5.1371    0.8050    0.8983 C   0  0  0  0  0  0  0  0  0  0  0  0
   -5.4535    1.5329   -0.3189 C   0  0  0  0  0  0  0  0  0  0  0  0
   -6.9132    1.8621   -0.4958 C   0  0  0  0  0  0  0  0  0  0  0  0
   -4.4705    1.8711   -1.1803 C   0  0  0  0  0  0  0  0  0  0  0  0
   -4.7108    2.5858   -2.3859 C   0  0  0  0  0  0  0  0  0  0  0  0
   -4.9655    3.1592   -3.3630 N   0  0  0  0  0  0  0  0  0  0  0  0
   -3.0581    1.4757   -0.8837 C   0  0  0  0  0  0  0  0  0  0  0  0
   -2.1484    1.7601   -1.6642 O   0  0  0  0  0  0  0  0  0  0  0  0
   -0.9401   -0.7500    0.2309 C   0  0  0  0  0  0  0  0  0  0  0  0
    0.3054   -1.0571    0.6428 C   0  0  0  0  0  0  0  0  0  0  0  0
    0.7826   -2.4721    0.5066 C   0  0  0  0  0  0  0  0  0  0  0  0
    1.7227   -2.8771    1.1891 O   0  0  0  0  0  0  0  0  0  0  0  0
    0.0232   -3.4321   -0.3795 C   0  0  0  0  0  0  0  0  0  0  0  0
   -0.8979   -2.7108   -1.3409 C   0  0  0  0  0  0  0  0  0  0  0  0
   -1.7716   -1.7099   -0.5944 C   0  0  0  0  0  0  0  0  0  0  0  0
    2.9162    0.2151   -0.4972 C   0  0  0  0  0  0  0  0  0  0  0  0
    4.2362    0.2446   -0.9651 C   0  0  0  0  0  0  0  0  0  0  0  0
    4.5904    0.5016   -2.2671 O   0  0  0  0  0  0  0  0  0  0  0  0
    3.5633    0.8935   -3.1661 C   0  0  0  0  0  0  0  0  0  0  0  0
    8.5629   -0.2602   -0.3523 H   0  0  0  0  0  0  0  0  0  0  0  0
    7.7438    0.4179    1.0586 H   0  0  0  0  0  0  0  0  0  0  0  0
    7.5482   -1.3261    0.6259 H   0  0  0  0  0  0  0  0  0  0  0  0
    5.8020   -0.4817    1.9879 H   0  0  0  0  0  0  0  0  0  0  0  0
    3.5091   -0.5233    2.7776 H   0  0  0  0  0  0  0  0  0  0  0  0
    1.2012   -0.4016    2.4283 H   0  0  0  0  0  0  0  0  0  0  0  0
    1.0314    1.9000    2.2174 H   0  0  0  0  0  0  0  0  0  0  0  0
    1.0114    1.9096    0.4581 H   0  0  0  0  0  0  0  0  0  0  0  0
   -3.1101   -1.2638    2.2683 H   0  0  0  0  0  0  0  0  0  0  0  0
   -2.8658    0.2984    3.0864 H   0  0  0  0  0  0  0  0  0  0  0  0
   -4.4544   -0.4617    3.0741 H   0  0  0  0  0  0  0  0  0  0  0  0
   -5.9512    0.5854    1.5859 H   0  0  0  0  0  0  0  0  0  0  0  0
   -7.2686    2.4777    0.3382 H   0  0  0  0  0  0  0  0  0  0  0  0
   -7.5093    0.9431   -0.5244 H   0  0  0  0  0  0  0  0  0  0  0  0
   -7.1240    2.4127   -1.4169 H   0  0  0  0  0  0  0  0  0  0  0  0
    0.7456   -4.0306   -0.9446 H   0  0  0  0  0  0  0  0  0  0  0  0
   -0.5534   -4.1014    0.2690 H   0  0  0  0  0  0  0  0  0  0  0  0
   -0.3027   -2.1847   -2.0989 H   0  0  0  0  0  0  0  0  0  0  0  0
   -1.5260   -3.4340   -1.8731 H   0  0  0  0  0  0  0  0  0  0  0  0
   -2.3560   -1.1753   -1.3507 H   0  0  0  0  0  0  0  0  0  0  0  0
   -2.4783   -2.2376    0.0568 H   0  0  0  0  0  0  0  0  0  0  0  0
    2.0889    0.4000   -1.1751 H   0  0  0  0  0  0  0  0  0  0  0  0
    2.8507    0.0782   -3.3280 H   0  0  0  0  0  0  0  0  0  0  0  0
    3.0567    1.8007   -2.8203 H   0  0  0  0  0  0  0  0  0  0  0  0
    4.0307    1.1211   -4.1291 H   0  0  0  0  0  0  0  0  0  0  0  0
  1  2  1  0
  2  3  1  0
  3  4  2  0
  4  5  1  0
  5  6  2  0
  6  7  1  0
  7  8  1  0
  8  9  1  0
  9 10  2  0
  9 11  1  0
 11 12  1  0
 12 13  1  0
 13 14  1  0
 13 15  2  0
 15 16  1  0
 16 17  1  0
 16 18  2  0
 18 19  1  0
 19 20  3  0
 18 21  1  0
 21 22  2  0
 11 23  1  0
 23 24  2  0
 24 25  1  0
 25 26  2  0
 25 27  1  0
 27 28  1  0
 28 29  1  0
  6 30  1  0
 30 31  2  0
 31 32  1  0
 32 33  1  0
 31  3  1  0
 24  7  1  0
 21 12  1  0
 29 23  1  0
  1 34  1  0
  1 35  1  0
  1 36  1  0
  4 37  1  0
  5 38  1  0
  7 39  1  0
  8 40  1  0
  8 41  1  0
 14 42  1  0
 14 43  1  0
 14 44  1  0
 15 45  1  0
 17 46  1  0
 17 47  1  0
 17 48  1  0
 27 49  1  0
 27 50  1  0
 28 51  1  0
 28 52  1  0
 29 53  1  0
 29 54  1  0
 30 55  1  0
 33 56  1  0
 33 57  1  0
 33 58  1  0
M  END
$$$$
