
     RDKit          3D

 45 48  0  0  0  0  0  0  0  0999 V2000
   -6.6420   -2.1552    1.4450 C   0  0  0  0  0  0  0  0  0  0  0  0
   -5.8619   -1.0667    0.9663 O   0  0  0  0  0  0  0  0  0  0  0  0
   -4.5023   -1.2001    1.0440 C   0  0  0  0  0  0  0  0  0  0  0  0
   -3.8146   -2.2930    1.5640 C   0  0  0  0  0  0  0  0  0  0  0  0
   -2.4198   -2.2912    1.5747 C   0  0  0  0  0  0  0  0  0  0  0  0
   -1.7102   -1.1986    1.0678 C   0  0  0  0  0  0  0  0  0  0  0  0
   -2.3744   -0.0854    0.5501 C   0  0  0  0  0  0  0  0  0  0  0  0
   -1.7177    1.0284   -0.0004 N   0  0  0  0  0  0  0  0  0  0  0  0
   -0.3837    1.2422   -0.3775 C   0  0  0  0  0  0  0  0  0  0  0  0
    0.5107    0.2212   -0.4766 N   0  0  0  0  0  0  0  0  0  0  0  0
    1.7886    0.4270   -0.8603 C   0  0  0  0  0  0  0  0  0  0  0  0
    2.6390   -0.6687   -0.9794 N   0  0  0  0  0  0  0  0  0  0  0  0
    2.1551   -1.9787   -0.5252 C   0  0  0  0  0  0  0  0  0  0  0  0
    2.8321   -2.3522    0.8007 C   0  0  0  0  0  0  0  0  0  0  0  0
    4.2666   -2.4357    0.7095 O   0  0  0  0  0  0  0  0  0  0  0  0
    4.8158   -1.6684   -0.3752 C   0  0  0  0  0  0  0  0  0  0  0  0
    4.0418   -0.3692   -0.6467 C   0  0  0  0  0  0  0  0  0  0  0  0
    2.2963    1.6328   -1.1634 N   0  0  0  0  0  0  0  0  0  0  0  0
    1.4059    2.6285   -1.0766 C   0  0  0  0  0  0  0  0  0  0  0  0
    0.0826    2.5188   -0.7053 C   0  0  0  0  0  0  0  0  0  0  0  0
   -0.4103    3.8389   -0.7728 C   0  0  0  0  0  0  0  0  0  0  0  0
    0.5166    4.7225   -1.1596 N   0  0  0  0  0  0  0  0  0  0  0  0
    1.6165    3.9541   -1.3407 N   0  0  0  0  0  0  0  0  0  0  0  0
    2.8462    4.5669   -1.7756 C   0  0  0  0  0  0  0  0  0  0  0  0
   -3.7790   -0.1114    0.5408 C   0  0  0  0  0  0  0  0  0  0  0  0
   -6.4781   -2.3172    2.5155 H   0  0  0  0  0  0  0  0  0  0  0  0
   -6.4431   -3.0664    0.8713 H   0  0  0  0  0  0  0  0  0  0  0  0
   -7.6963   -1.8976    1.3053 H   0  0  0  0  0  0  0  0  0  0  0  0
   -4.3288   -3.1589    1.9660 H   0  0  0  0  0  0  0  0  0  0  0  0
   -1.8789   -3.1422    1.9805 H   0  0  0  0  0  0  0  0  0  0  0  0
   -0.6265   -1.2258    1.1077 H   0  0  0  0  0  0  0  0  0  0  0  0
   -2.3093    1.8411   -0.1037 H   0  0  0  0  0  0  0  0  0  0  0  0
    2.4370   -2.7153   -1.2882 H   0  0  0  0  0  0  0  0  0  0  0  0
    1.0674   -2.0480   -0.4318 H   0  0  0  0  0  0  0  0  0  0  0  0
    2.4718   -3.3254    1.1486 H   0  0  0  0  0  0  0  0  0  0  0  0
    2.5925   -1.6153    1.5760 H   0  0  0  0  0  0  0  0  0  0  0  0
    5.8561   -1.4410   -0.1213 H   0  0  0  0  0  0  0  0  0  0  0  0
    4.8300   -2.3060   -1.2670 H   0  0  0  0  0  0  0  0  0  0  0  0
    4.0935    0.2494    0.2596 H   0  0  0  0  0  0  0  0  0  0  0  0
    4.5185    0.1723   -1.4718 H   0  0  0  0  0  0  0  0  0  0  0  0
   -1.4072    4.1983   -0.5544 H   0  0  0  0  0  0  0  0  0  0  0  0
    3.1356    5.3188   -1.0370 H   0  0  0  0  0  0  0  0  0  0  0  0
    3.6313    3.8125   -1.8622 H   0  0  0  0  0  0  0  0  0  0  0  0
    2.6721    5.0339   -2.7482 H   0  0  0  0  0  0  0  0  0  0  0  0
   -4.3356    0.7263    0.1276 H   0  0  0  0  0  0  0  0  0  0  0  0
  1  2  1  0
  2  3  1  0
  3  4  2  0
  4  5  1  0
  5  6  2  0
  6  7  1  0
  7  8  1  0
  8  9  1  0
  9 10  2  0
 10 11  1  0
 11 12  1  0
 12 13  1  0
 13 14  1  0
 14 15  1  0
 15 16  1  0
 16 17  1  0
 11 18  2  0
 18 19  1  0
 19 20  2  0
 20 21  1  0
 21 22  2  0
 22 23  1  0
 23 24  1  0
  7 25  2  0
 25  3  1  0
 20  9  1  0
 17 12  1  0
 23 19  1  0
  1 26  1  0
  1 27  1  0
  1 28  1  0
  4 29  1  0
  5 30  1  0
  6 31  1  0
  8 32  1  0
 13 33  1  0
 13 34  1  0
 14 35  1  0
 14 36  1  0
 16 37  1  0
 16 38  1  0
 17 39  1  0
 17 40  1  0
 21 41  1  0
 24 42  1  0
 24 43  1  0
 24 44  1  0
 25 45  1  0
M  END
$$$$
