
     RDKit          3D

 56 58  0  0  0  0  0  0  0  0999 V2000
   -0.6588   -2.5897    0.0497 C   0  0  0  0  0  0  0  0  0  0  0  0
   -1.9713   -1.9585   -0.1821 N   0  0  0  0  0  0  0  0  0  0  0  0
   -2.0852   -1.6369   -1.5694 C   0  0  0  0  0  0  0  0  0  0  0  0
   -2.2062   -0.8827    0.7297 C   0  0  0  0  0  0  0  0  0  0  0  0
   -1.2642    0.2649    0.6216 C   0  0  0  0  0  0  0  0  0  0  0  0
   -1.2050    0.9499   -0.5897 N   0  0  0  0  0  0  0  0  0  0  0  0
   -0.0901    2.2310   -0.5514 S   0  0  0  0  0  6  0  0  0  0  0  0
   -0.0773    2.9997   -1.8571 O   0  0  0  0  0  0  0  0  0  0  0  0
   -0.4249    3.1651    0.5765 O   0  0  0  0  0  0  0  0  0  0  0  0
    1.5025    1.5792   -0.2541 C   0  0  0  0  0  0  0  0  0  0  0  0
    2.0260    1.3954    1.0077 C   0  0  0  0  0  0  0  0  0  0  0  0
    3.3042    0.8754    1.1236 C   0  0  0  0  0  0  0  0  0  0  0  0
    4.0713    0.5358    0.0289 C   0  0  0  0  0  0  0  0  0  0  0  0
    5.3939    0.0001    0.1313 N   0  0  0  0  0  0  0  0  0  0  0  0
    5.8538   -1.1884    0.7263 C   0  0  0  0  0  0  0  0  0  0  0  0
    5.1655   -1.9470    1.4628 O   0  0  0  0  0  0  0  0  0  0  0  0
    7.2745   -1.3931    0.3419 C   0  0  0  0  0  0  0  0  0  0  0  0
    7.7509   -0.0164   -0.0708 C   0  0  0  0  0  0  0  0  0  0  0  0
    6.5078    0.7188   -0.4360 C   0  0  0  0  0  0  0  0  0  0  0  0
    6.4867    1.7638   -1.1124 O   0  0  0  0  0  0  0  0  0  0  0  0
    3.4999    0.7393   -1.2267 C   0  0  0  0  0  0  0  0  0  0  0  0
    2.2390    1.2508   -1.3960 C   0  0  0  0  0  0  0  0  0  0  0  0
   -3.6231   -0.5269    0.6329 C   0  0  0  0  0  0  0  0  0  0  0  0
   -4.5469   -1.5597    0.5274 C   0  0  0  0  0  0  0  0  0  0  0  0
   -5.8997   -1.2973    0.4307 C   0  0  0  0  0  0  0  0  0  0  0  0
   -6.3248    0.0122    0.4411 C   0  0  0  0  0  0  0  0  0  0  0  0
   -5.4081    1.0478    0.5472 C   0  0  0  0  0  0  0  0  0  0  0  0
   -4.0664    0.7745    0.6420 C   0  0  0  0  0  0  0  0  0  0  0  0
   -6.1557    2.2324    0.5296 O   0  0  0  0  0  0  0  0  0  0  0  0
   -7.4289    1.9522   -0.0290 C   0  0  0  0  0  0  0  0  0  0  0  0
   -7.5849    0.5961    0.3622 O   0  0  0  0  0  0  0  0  0  0  0  0
    0.6841    0.0000    0.0000 Cl  0  0  0  0  0  0  0  0  0  0  0  0
   -0.8406   -3.6775    0.1666 H   0  0  0  0  0  0  0  0  0  0  0  0
    0.0634   -2.3174   -0.7194 H   0  0  0  0  0  0  0  0  0  0  0  0
   -0.2871   -2.1926    1.0113 H   0  0  0  0  0  0  0  0  0  0  0  0
   -2.1906   -2.6258   -2.1146 H   0  0  0  0  0  0  0  0  0  0  0  0
   -1.2046   -1.1648   -2.0140 H   0  0  0  0  0  0  0  0  0  0  0  0
   -3.0352   -1.1053   -1.7844 H   0  0  0  0  0  0  0  0  0  0  0  0
   -2.0621   -1.2909    1.7501 H   0  0  0  0  0  0  0  0  0  0  0  0
   -1.4964    0.9728    1.4429 H   0  0  0  0  0  0  0  0  0  0  0  0
   -0.2431   -0.1450    0.8759 H   0  0  0  0  0  0  0  0  0  0  0  0
   -1.9984    1.0264   -1.2069 H   0  0  0  0  0  0  0  0  0  0  0  0
    1.4275    1.6608    1.8743 H   0  0  0  0  0  0  0  0  0  0  0  0
    3.7325    0.7230    2.1085 H   0  0  0  0  0  0  0  0  0  0  0  0
    7.3782   -2.0740   -0.5145 H   0  0  0  0  0  0  0  0  0  0  0  0
    7.8572   -1.6887    1.2259 H   0  0  0  0  0  0  0  0  0  0  0  0
    8.2731    0.5168    0.7645 H   0  0  0  0  0  0  0  0  0  0  0  0
    8.4417   -0.0732   -0.9255 H   0  0  0  0  0  0  0  0  0  0  0  0
    4.0759    0.4824   -2.1116 H   0  0  0  0  0  0  0  0  0  0  0  0
    1.8249    1.3974   -2.4014 H   0  0  0  0  0  0  0  0  0  0  0  0
   -4.2238   -2.5928    0.5172 H   0  0  0  0  0  0  0  0  0  0  0  0
   -6.6397   -2.0828    0.3468 H   0  0  0  0  0  0  0  0  0  0  0  0
   -3.3140    1.5309    0.7263 H   0  0  0  0  0  0  0  0  0  0  0  0
   -7.4143    2.0304   -1.1275 H   0  0  0  0  0  0  0  0  0  0  0  0
   -8.1792    2.6023    0.4540 H   0  0  0  0  0  0  0  0  0  0  0  0
   -0.6841    0.0000    0.0000 H   0  0  0  0  0  0  0  0  0  0  0  0
  1  2  1  0
  2  3  1  0
  2  4  1  0
  4  5  1  0
  5  6  1  0
  6  7  1  0
  7  8  2  0
  7  9  2  0
  7 10  1  0
 10 11  2  0
 11 12  1  0
 12 13  2  0
 13 14  1  0
 14 15  1  0
 15 16  2  0
 15 17  1  0
 17 18  1  0
 18 19  1  0
 19 20  2  0
 13 21  1  0
 21 22  2  0
  4 23  1  0
 23 24  2  0
 24 25  1  0
 25 26  2  0
 26 27  1  0
 27 28  2  0
 27 29  1  0
 29 30  1  0
 30 31  1  0
 22 10  1  0
 28 23  1  0
 19 14  1  0
 31 26  1  0
  1 33  1  0
  1 34  1  0
  1 35  1  0
  3 36  1  0
  3 37  1  0
  3 38  1  0
  4 39  1  0
  5 40  1  0
  5 41  1  0
  6 42  1  0
 11 43  1  0
 12 44  1  0
 17 45  1  0
 17 46  1  0
 18 47  1  0
 18 48  1  0
 21 49  1  0
 22 50  1  0
 24 51  1  0
 25 52  1  0
 28 53  1  0
 30 54  1  0
 30 55  1  0
 32 56  1  0
M  END
$$$$
