
     RDKit          3D

 34 36  0  0  0  0  0  0  0  0999 V2000
    6.2377   -1.0417   -0.1338 C   0  0  0  0  0  0  0  0  0  0  0  0
    5.0993   -0.6899   -0.9094 O   0  0  0  0  0  0  0  0  0  0  0  0
    4.1192    0.0300   -0.2836 C   0  0  0  0  0  0  0  0  0  0  0  0
    4.1239    0.4303    1.0536 C   0  0  0  0  0  0  0  0  0  0  0  0
    3.0547    1.1666    1.5719 C   0  0  0  0  0  0  0  0  0  0  0  0
    1.9737    1.5046    0.7571 C   0  0  0  0  0  0  0  0  0  0  0  0
    1.9582    1.1045   -0.5845 C   0  0  0  0  0  0  0  0  0  0  0  0
    0.8158    1.4458   -1.4866 C   0  0  0  0  0  0  0  0  0  0  0  0
    0.9111    1.2565   -2.6936 O   0  0  0  0  0  0  0  0  0  0  0  0
   -0.2829    2.0141   -0.8993 N   0  0  0  0  0  0  0  0  0  0  0  0
   -1.2629    1.2066   -0.6927 C   0  0  0  0  0  0  0  0  0  0  0  0
   -1.2507   -0.1512   -0.9335 N   0  0  0  0  0  0  0  0  0  0  0  0
   -2.4190   -0.6270   -0.5858 C   0  0  0  0  0  0  0  0  0  0  0  0
   -2.7387   -2.0713   -0.7322 C   0  0  0  0  0  0  0  0  0  0  0  0
   -3.9682   -2.4447   -0.3379 C   0  0  0  0  0  0  0  0  0  0  0  0
   -4.9382   -1.4996    0.2024 C   0  0  0  0  0  0  0  0  0  0  0  0
   -4.6353   -0.1872    0.3304 C   0  0  0  0  0  0  0  0  0  0  0  0
   -5.6386    0.7857    0.8850 C   0  0  0  0  0  0  0  0  0  0  0  0
   -3.3728    0.2397   -0.0660 N   0  0  0  0  0  0  0  0  0  0  0  0
   -2.7845    1.7908    0.0054 S   0  0  0  0  0  0  0  0  0  0  0  0
    3.0353    0.3703   -1.0976 C   0  0  0  0  0  0  0  0  0  0  0  0
    6.7650   -0.1500    0.2210 H   0  0  0  0  0  0  0  0  0  0  0  0
    6.9233   -1.5986   -0.7797 H   0  0  0  0  0  0  0  0  0  0  0  0
    5.9603   -1.6956    0.6995 H   0  0  0  0  0  0  0  0  0  0  0  0
    4.9454    0.1875    1.7197 H   0  0  0  0  0  0  0  0  0  0  0  0
    3.0669    1.4798    2.6132 H   0  0  0  0  0  0  0  0  0  0  0  0
    1.1568    2.0869    1.1753 H   0  0  0  0  0  0  0  0  0  0  0  0
   -1.9942   -2.7399   -1.1401 H   0  0  0  0  0  0  0  0  0  0  0  0
   -4.2756   -3.4836   -0.4171 H   0  0  0  0  0  0  0  0  0  0  0  0
   -5.9080   -1.8930    0.4930 H   0  0  0  0  0  0  0  0  0  0  0  0
   -5.2563    1.2597    1.7950 H   0  0  0  0  0  0  0  0  0  0  0  0
   -6.5818    0.2935    1.1469 H   0  0  0  0  0  0  0  0  0  0  0  0
   -5.8714    1.5632    0.1499 H   0  0  0  0  0  0  0  0  0  0  0  0
    3.0326    0.0571   -2.1402 H   0  0  0  0  0  0  0  0  0  0  0  0
  1  2  1  0
  2  3  1  0
  3  4  2  0
  4  5  1  0
  5  6  2  0
  6  7  1  0
  7  8  1  0
  8  9  2  0
  8 10  1  0
 10 11  2  0
 11 12  1  0
 12 13  2  0
 13 14  1  0
 14 15  2  0
 15 16  1  0
 16 17  2  0
 17 18  1  0
 17 19  1  0
 19 20  1  0
  7 21  2  0
 21  3  1  0
 20 11  1  0
 19 13  1  0
  1 22  1  0
  1 23  1  0
  1 24  1  0
  4 25  1  0
  5 26  1  0
  6 27  1  0
 14 28  1  0
 15 29  1  0
 16 30  1  0
 18 31  1  0
 18 32  1  0
 18 33  1  0
 21 34  1  0
M  END
$$$$
