
     RDKit          3D

 46 47  0  0  0  0  0  0  0  0999 V2000
    6.1430   -1.4826   -1.1206 C   0  0  0  0  0  0  0  0  0  0  0  0
    5.2824   -0.2283   -1.2905 C   0  0  0  0  0  0  0  0  0  0  0  0
    6.0561    0.9983   -0.8052 C   0  0  0  0  0  0  0  0  0  0  0  0
    3.9453   -0.4082   -0.5501 C   0  0  0  0  0  0  0  0  0  0  0  0
    2.9610    0.7379   -0.7868 C   0  0  0  0  0  0  0  0  0  0  0  0
    1.6674    0.4562   -0.1962 N   0  0  0  0  0  0  0  0  0  0  0  0
    1.4259    0.6763    1.1445 C   0  0  0  0  0  0  0  0  0  0  0  0
    2.2457    1.1662    1.9128 O   0  0  0  0  0  0  0  0  0  0  0  0
    0.0944    0.2495    1.6521 C   0  0  0  0  0  0  0  0  0  0  0  0
   -0.0190   -0.1277    2.9963 C   0  0  0  0  0  0  0  0  0  0  0  0
   -1.2523   -0.5283    3.5111 C   0  0  0  0  0  0  0  0  0  0  0  0
   -2.3749   -0.5522    2.6835 C   0  0  0  0  0  0  0  0  0  0  0  0
   -2.2653   -0.1846    1.3407 C   0  0  0  0  0  0  0  0  0  0  0  0
   -3.4696   -0.1537    0.5542 N   0  0  0  0  0  0  0  0  0  0  0  0
   -4.0850    1.1882    0.3930 C   0  0  0  0  0  0  0  0  0  0  0  0
   -5.5541    1.0355   -0.0003 C   0  0  0  0  0  0  0  0  0  0  0  0
   -5.7392    0.2862   -1.3207 C   0  0  0  0  0  0  0  0  0  0  0  0
   -5.1544   -1.1186   -1.2720 C   0  0  0  0  0  0  0  0  0  0  0  0
   -3.4155   -1.0847   -0.8798 S   0  0  0  0  0  6  0  0  0  0  0  0
   -2.7249   -0.3174   -1.8969 O   0  0  0  0  0  0  0  0  0  0  0  0
   -2.9962   -2.4295   -0.5486 O   0  0  0  0  0  0  0  0  0  0  0  0
   -1.0385    0.2472    0.8302 C   0  0  0  0  0  0  0  0  0  0  0  0
    7.0836   -1.3874   -1.6734 H   0  0  0  0  0  0  0  0  0  0  0  0
    6.3851   -1.6590   -0.0670 H   0  0  0  0  0  0  0  0  0  0  0  0
    5.6218   -2.3671   -1.5018 H   0  0  0  0  0  0  0  0  0  0  0  0
    5.0779   -0.1040   -2.3615 H   0  0  0  0  0  0  0  0  0  0  0  0
    5.5171    1.9238   -1.0288 H   0  0  0  0  0  0  0  0  0  0  0  0
    7.0306    1.0638   -1.3012 H   0  0  0  0  0  0  0  0  0  0  0  0
    6.2296    0.9563    0.2754 H   0  0  0  0  0  0  0  0  0  0  0  0
    3.4774   -1.3452   -0.8806 H   0  0  0  0  0  0  0  0  0  0  0  0
    4.1272   -0.5230    0.5263 H   0  0  0  0  0  0  0  0  0  0  0  0
    2.7954    0.8868   -1.8588 H   0  0  0  0  0  0  0  0  0  0  0  0
    3.3389    1.6735   -0.3627 H   0  0  0  0  0  0  0  0  0  0  0  0
    1.0325   -0.1301   -0.7232 H   0  0  0  0  0  0  0  0  0  0  0  0
    0.8565   -0.1096    3.6432 H   0  0  0  0  0  0  0  0  0  0  0  0
   -1.3367   -0.8210    4.5546 H   0  0  0  0  0  0  0  0  0  0  0  0
   -3.3346   -0.8647    3.0866 H   0  0  0  0  0  0  0  0  0  0  0  0
   -4.0369    1.7338    1.3434 H   0  0  0  0  0  0  0  0  0  0  0  0
   -3.5360    1.7792   -0.3493 H   0  0  0  0  0  0  0  0  0  0  0  0
   -6.0069    2.0300   -0.0865 H   0  0  0  0  0  0  0  0  0  0  0  0
   -6.0943    0.5056    0.7944 H   0  0  0  0  0  0  0  0  0  0  0  0
   -6.8084    0.2230   -1.5529 H   0  0  0  0  0  0  0  0  0  0  0  0
   -5.2700    0.8584   -2.1301 H   0  0  0  0  0  0  0  0  0  0  0  0
   -5.6519   -1.7313   -0.5133 H   0  0  0  0  0  0  0  0  0  0  0  0
   -5.2571   -1.6156   -2.2413 H   0  0  0  0  0  0  0  0  0  0  0  0
   -0.9732    0.5985   -0.1948 H   0  0  0  0  0  0  0  0  0  0  0  0
  1  2  1  0
  2  3  1  0
  2  4  1  0
  4  5  1  0
  5  6  1  0
  6  7  1  0
  7  8  2  0
  7  9  1  0
  9 10  2  0
 10 11  1  0
 11 12  2  0
 12 13  1  0
 13 14  1  0
 14 15  1  0
 15 16  1  0
 16 17  1  0
 17 18  1  0
 18 19  1  0
 19 20  2  0
 19 21  2  0
 13 22  2  0
 22  9  1  0
 19 14  1  0
  1 23  1  0
  1 24  1  0
  1 25  1  0
  2 26  1  0
  3 27  1  0
  3 28  1  0
  3 29  1  0
  4 30  1  0
  4 31  1  0
  5 32  1  0
  5 33  1  0
  6 34  1  0
 10 35  1  0
 11 36  1  0
 12 37  1  0
 15 38  1  0
 15 39  1  0
 16 40  1  0
 16 41  1  0
 17 42  1  0
 17 43  1  0
 18 44  1  0
 18 45  1  0
 22 46  1  0
M  END
$$$$
