
     RDKit          3D

 48 50  0  0  0  0  0  0  0  0999 V2000
    0.0726   -3.2723   -1.2503 C   0  0  0  0  0  0  0  0  0  0  0  0
   -0.0006   -1.9394   -0.7600 O   0  0  0  0  0  0  0  0  0  0  0  0
   -1.2392   -1.4016   -0.5611 C   0  0  0  0  0  0  0  0  0  0  0  0
   -2.4207   -1.9627   -1.0433 C   0  0  0  0  0  0  0  0  0  0  0  0
   -3.6590   -1.3380   -0.8234 C   0  0  0  0  0  0  0  0  0  0  0  0
   -3.7645   -0.1267   -0.1253 C   0  0  0  0  0  0  0  0  0  0  0  0
   -5.0290    0.5080    0.0879 N   0  0  0  0  0  0  0  0  0  0  0  0
   -6.2534   -0.1092   -0.0589 C   0  0  0  0  0  0  0  0  0  0  0  0
   -6.5073   -1.2797   -0.3100 O   0  0  0  0  0  0  0  0  0  0  0  0
   -7.3405    0.9059    0.1289 C   0  0  0  0  0  0  0  0  0  0  0  0
   -6.6333    2.0930    0.7277 C   0  0  0  0  0  0  0  0  0  0  0  0
   -5.1868    1.8321    0.4383 C   0  0  0  0  0  0  0  0  0  0  0  0
   -4.3452    2.7168    0.5130 O   0  0  0  0  0  0  0  0  0  0  0  0
   -2.5718    0.4307    0.3580 C   0  0  0  0  0  0  0  0  0  0  0  0
   -1.3291   -0.1974    0.1423 C   0  0  0  0  0  0  0  0  0  0  0  0
    0.1315    0.5552    0.8280 S   0  0  0  0  0  6  0  0  0  0  0  0
    0.8516   -0.4570    1.5699 O   0  0  0  0  0  0  0  0  0  0  0  0
   -0.2625    1.8016    1.4540 O   0  0  0  0  0  0  0  0  0  0  0  0
    0.9789    1.0054   -0.5862 N   0  0  0  0  0  0  0  0  0  0  0  0
    2.3706    1.2798   -0.3732 C   0  0  0  0  0  0  0  0  0  0  0  0
    2.8084    2.5944   -0.2329 C   0  0  0  0  0  0  0  0  0  0  0  0
    4.1596    2.8455   -0.0033 C   0  0  0  0  0  0  0  0  0  0  0  0
    5.0669    1.7854    0.1008 C   0  0  0  0  0  0  0  0  0  0  0  0
    4.6301    0.4643   -0.0147 C   0  0  0  0  0  0  0  0  0  0  0  0
    5.4736   -0.6599    0.1056 N   0  0  0  0  0  0  0  0  0  0  0  0
    6.8395   -0.6708    0.3201 C   0  0  0  0  0  0  0  0  0  0  0  0
    7.3854   -2.0724    0.4356 C   0  0  0  0  0  0  0  0  0  0  0  0
    7.5786    0.3005    0.4322 O   0  0  0  0  0  0  0  0  0  0  0  0
    3.2720    0.2199   -0.2532 C   0  0  0  0  0  0  0  0  0  0  0  0
   -0.2645   -3.3245   -2.2905 H   0  0  0  0  0  0  0  0  0  0  0  0
    1.1226   -3.5794   -1.2255 H   0  0  0  0  0  0  0  0  0  0  0  0
   -0.4919   -3.9631   -0.6151 H   0  0  0  0  0  0  0  0  0  0  0  0
   -2.4243   -2.8889   -1.6109 H   0  0  0  0  0  0  0  0  0  0  0  0
   -4.5310   -1.8292   -1.2486 H   0  0  0  0  0  0  0  0  0  0  0  0
   -8.1198    0.5243    0.7939 H   0  0  0  0  0  0  0  0  0  0  0  0
   -7.7744    1.1456   -0.8471 H   0  0  0  0  0  0  0  0  0  0  0  0
   -6.7753    2.1447    1.8117 H   0  0  0  0  0  0  0  0  0  0  0  0
   -6.9611    3.0295    0.2688 H   0  0  0  0  0  0  0  0  0  0  0  0
   -2.5847    1.3482    0.9417 H   0  0  0  0  0  0  0  0  0  0  0  0
    0.4997    1.8221   -0.9690 H   0  0  0  0  0  0  0  0  0  0  0  0
    2.1141    3.4275   -0.2902 H   0  0  0  0  0  0  0  0  0  0  0  0
    4.5133    3.8678    0.1070 H   0  0  0  0  0  0  0  0  0  0  0  0
    6.1086    2.0273    0.2888 H   0  0  0  0  0  0  0  0  0  0  0  0
    5.0138   -1.5602    0.0468 H   0  0  0  0  0  0  0  0  0  0  0  0
    7.2213   -2.4429    1.4508 H   0  0  0  0  0  0  0  0  0  0  0  0
    6.9018   -2.7398   -0.2836 H   0  0  0  0  0  0  0  0  0  0  0  0
    8.4581   -2.0637    0.2217 H   0  0  0  0  0  0  0  0  0  0  0  0
    2.8972   -0.7965   -0.3413 H   0  0  0  0  0  0  0  0  0  0  0  0
  1  2  1  0
  2  3  1  0
  3  4  2  0
  4  5  1  0
  5  6  2  0
  6  7  1  0
  7  8  1  0
  8  9  2  0
  8 10  1  0
 10 11  1  0
 11 12  1  0
 12 13  2  0
  6 14  1  0
 14 15  2  0
 15 16  1  0
 16 17  2  0
 16 18  2  0
 16 19  1  0
 19 20  1  0
 20 21  2  0
 21 22  1  0
 22 23  2  0
 23 24  1  0
 24 25  1  0
 25 26  1  0
 26 27  1  0
 26 28  2  0
 24 29  2  0
 15  3  1  0
 29 20  1  0
 12  7  1  0
  1 30  1  0
  1 31  1  0
  1 32  1  0
  4 33  1  0
  5 34  1  0
 10 35  1  0
 10 36  1  0
 11 37  1  0
 11 38  1  0
 14 39  1  0
 19 40  1  0
 21 41  1  0
 22 42  1  0
 23 43  1  0
 25 44  1  0
 27 45  1  0
 27 46  1  0
 27 47  1  0
 29 48  1  0
M  END
$$$$
