
     RDKit          3D

 43 44  0  0  0  0  0  0  0  0999 V2000
    4.1251    1.9678    1.1520 C   0  0  0  0  0  0  0  0  0  0  0  0
    4.3366    0.5055    0.7279 C   0  0  0  0  0  0  0  0  0  0  0  0
    5.2379   -0.1727    1.7766 C   0  0  0  0  0  0  0  0  0  0  0  0
    5.0444    0.4454   -0.6343 C   0  0  0  0  0  0  0  0  0  0  0  0
    3.0608   -0.2262    0.6854 N   0  0  0  0  0  0  0  0  0  0  0  0
    1.9952    0.0892   -0.1278 C   0  0  0  0  0  0  0  0  0  0  0  0
    1.9604    1.0838   -0.8447 O   0  0  0  0  0  0  0  0  0  0  0  0
    0.8027   -0.8081   -0.0794 C   0  0  0  0  0  0  0  0  0  0  0  0
   -0.4320   -0.1954   -0.3674 C   0  0  0  0  0  0  0  0  0  0  0  0
   -1.6215   -0.9262   -0.3566 C   0  0  0  0  0  0  0  0  0  0  0  0
   -2.8518   -0.2160   -0.5703 N   0  0  0  0  0  0  0  0  0  0  0  0
   -3.4288    0.4457    0.6290 C   0  0  0  0  0  0  0  0  0  0  0  0
   -4.7484    1.1592    0.3181 C   0  0  0  0  0  0  0  0  0  0  0  0
   -4.8100    1.6603   -1.1215 C   0  0  0  0  0  0  0  0  0  0  0  0
   -4.9102    0.5160   -2.1257 C   0  0  0  0  0  0  0  0  0  0  0  0
   -3.9594   -0.9220   -1.6484 S   0  0  0  0  0  6  0  0  0  0  0  0
   -4.8126   -1.8064   -0.8797 O   0  0  0  0  0  0  0  0  0  0  0  0
   -3.2461   -1.4003   -2.8133 O   0  0  0  0  0  0  0  0  0  0  0  0
   -1.5964   -2.2726    0.0027 C   0  0  0  0  0  0  0  0  0  0  0  0
   -0.3780   -2.8993    0.2709 C   0  0  0  0  0  0  0  0  0  0  0  0
    0.8223   -2.1776    0.2216 C   0  0  0  0  0  0  0  0  0  0  0  0
    2.2668   -3.0789    0.5238 Cl  0  0  0  0  0  0  0  0  0  0  0  0
    3.5548    2.5343    0.4094 H   0  0  0  0  0  0  0  0  0  0  0  0
    5.0834    2.4829    1.2847 H   0  0  0  0  0  0  0  0  0  0  0  0
    3.5773    2.0265    2.0996 H   0  0  0  0  0  0  0  0  0  0  0  0
    5.4245   -1.2218    1.5181 H   0  0  0  0  0  0  0  0  0  0  0  0
    6.2079    0.3304    1.8578 H   0  0  0  0  0  0  0  0  0  0  0  0
    4.7679   -0.1612    2.7671 H   0  0  0  0  0  0  0  0  0  0  0  0
    5.1812   -0.5922   -0.9604 H   0  0  0  0  0  0  0  0  0  0  0  0
    4.4731    0.9589   -1.4145 H   0  0  0  0  0  0  0  0  0  0  0  0
    6.0324    0.9172   -0.5882 H   0  0  0  0  0  0  0  0  0  0  0  0
    3.0333   -1.1187    1.1642 H   0  0  0  0  0  0  0  0  0  0  0  0
   -0.4639    0.8649   -0.6141 H   0  0  0  0  0  0  0  0  0  0  0  0
   -3.5725   -0.2750    1.4421 H   0  0  0  0  0  0  0  0  0  0  0  0
   -2.7108    1.1983    0.9789 H   0  0  0  0  0  0  0  0  0  0  0  0
   -5.5910    0.4822    0.5061 H   0  0  0  0  0  0  0  0  0  0  0  0
   -4.8714    1.9982    1.0129 H   0  0  0  0  0  0  0  0  0  0  0  0
   -3.9173    2.2617   -1.3348 H   0  0  0  0  0  0  0  0  0  0  0  0
   -5.6709    2.3258   -1.2518 H   0  0  0  0  0  0  0  0  0  0  0  0
   -4.5582    0.8469   -3.1074 H   0  0  0  0  0  0  0  0  0  0  0  0
   -5.9484    0.1825   -2.2255 H   0  0  0  0  0  0  0  0  0  0  0  0
   -2.5144   -2.8527    0.0634 H   0  0  0  0  0  0  0  0  0  0  0  0
   -0.3742   -3.9602    0.5138 H   0  0  0  0  0  0  0  0  0  0  0  0
  1  2  1  0
  2  3  1  0
  2  4  1  0
  2  5  1  0
  5  6  1  0
  6  7  2  0
  6  8  1  0
  8  9  2  0
  9 10  1  0
 10 11  1  0
 11 12  1  0
 12 13  1  0
 13 14  1  0
 14 15  1  0
 15 16  1  0
 16 17  2  0
 16 18  2  0
 10 19  2  0
 19 20  1  0
 20 21  2  0
 21 22  1  0
 21  8  1  0
 16 11  1  0
  1 23  1  0
  1 24  1  0
  1 25  1  0
  3 26  1  0
  3 27  1  0
  3 28  1  0
  4 29  1  0
  4 30  1  0
  4 31  1  0
  5 32  1  0
  9 33  1  0
 12 34  1  0
 12 35  1  0
 13 36  1  0
 13 37  1  0
 14 38  1  0
 14 39  1  0
 15 40  1  0
 15 41  1  0
 19 42  1  0
 20 43  1  0
M  END
$$$$
