
     RDKit          3D

 39 42  0  0  0  0  0  0  0  0999 V2000
    7.0851    0.0043    0.5551 C   0  0  0  0  0  0  0  0  0  0  0  0
    6.1286    0.0815   -0.4949 O   0  0  0  0  0  0  0  0  0  0  0  0
    4.8225    0.2592   -0.1311 C   0  0  0  0  0  0  0  0  0  0  0  0
    4.3345    0.3091    1.1768 C   0  0  0  0  0  0  0  0  0  0  0  0
    2.9675    0.4930    1.4089 C   0  0  0  0  0  0  0  0  0  0  0  0
    2.0872    0.6126    0.3302 C   0  0  0  0  0  0  0  0  0  0  0  0
    0.6464    0.8117    0.6006 C   0  0  0  0  0  0  0  0  0  0  0  0
    0.3410    1.7912    1.2726 O   0  0  0  0  0  0  0  0  0  0  0  0
   -0.2240   -0.1752    0.1568 N   0  0  0  0  0  0  0  0  0  0  0  0
    0.1567   -1.4792   -0.3701 C   0  0  0  0  0  0  0  0  0  0  0  0
   -1.1386   -2.2721   -0.4394 C   0  0  0  0  0  0  0  0  0  0  0  0
   -2.1573   -1.2628   -0.3500 N   0  0  0  0  0  0  0  0  0  0  0  0
   -1.6181   -0.0534    0.0665 C   0  0  0  0  0  0  0  0  0  0  0  0
   -2.3178    0.9973    0.3081 N   0  0  0  0  0  0  0  0  0  0  0  0
   -3.7115    0.8907    0.1433 C   0  0  0  0  0  0  0  0  0  0  0  0
   -4.4990    2.0188    0.3819 C   0  0  0  0  0  0  0  0  0  0  0  0
   -5.8883    1.9628    0.2344 C   0  0  0  0  0  0  0  0  0  0  0  0
   -6.5059    0.7730   -0.1535 C   0  0  0  0  0  0  0  0  0  0  0  0
   -5.7357   -0.3639   -0.3950 C   0  0  0  0  0  0  0  0  0  0  0  0
   -4.3460   -0.2977   -0.2467 C   0  0  0  0  0  0  0  0  0  0  0  0
   -3.5024   -1.4873   -0.4909 C   0  0  0  0  0  0  0  0  0  0  0  0
   -3.9886   -2.5746   -0.7821 O   0  0  0  0  0  0  0  0  0  0  0  0
    2.5698    0.5901   -0.9798 C   0  0  0  0  0  0  0  0  0  0  0  0
    3.9352    0.4038   -1.2037 C   0  0  0  0  0  0  0  0  0  0  0  0
    6.9075   -0.8733    1.1854 H   0  0  0  0  0  0  0  0  0  0  0  0
    8.0735   -0.1079    0.0992 H   0  0  0  0  0  0  0  0  0  0  0  0
    7.0948    0.9238    1.1497 H   0  0  0  0  0  0  0  0  0  0  0  0
    4.9895    0.2164    2.0370 H   0  0  0  0  0  0  0  0  0  0  0  0
    2.5916    0.5504    2.4284 H   0  0  0  0  0  0  0  0  0  0  0  0
    0.5673   -1.3379   -1.3755 H   0  0  0  0  0  0  0  0  0  0  0  0
    0.9133   -1.9582    0.2586 H   0  0  0  0  0  0  0  0  0  0  0  0
   -1.2412   -2.8582   -1.3575 H   0  0  0  0  0  0  0  0  0  0  0  0
   -1.2477   -2.9434    0.4196 H   0  0  0  0  0  0  0  0  0  0  0  0
   -4.0206    2.9465    0.6876 H   0  0  0  0  0  0  0  0  0  0  0  0
   -6.4868    2.8505    0.4253 H   0  0  0  0  0  0  0  0  0  0  0  0
   -7.5868    0.7322   -0.2655 H   0  0  0  0  0  0  0  0  0  0  0  0
   -6.2133   -1.2935   -0.6950 H   0  0  0  0  0  0  0  0  0  0  0  0
    1.8995    0.7345   -1.8229 H   0  0  0  0  0  0  0  0  0  0  0  0
    4.3179    0.3853   -2.2219 H   0  0  0  0  0  0  0  0  0  0  0  0
  1  2  1  0
  2  3  1  0
  3  4  2  0
  4  5  1  0
  5  6  2  0
  6  7  1  0
  7  8  2  0
  7  9  1  0
  9 10  1  0
 10 11  1  0
 11 12  1  0
 12 13  1  0
 13 14  2  0
 14 15  1  0
 15 16  2  0
 16 17  1  0
 17 18  2  0
 18 19  1  0
 19 20  2  0
 20 21  1  0
 21 22  2  0
  6 23  1  0
 23 24  2  0
 24  3  1  0
 13  9  1  0
 20 15  1  0
 21 12  1  0
  1 25  1  0
  1 26  1  0
  1 27  1  0
  4 28  1  0
  5 29  1  0
 10 30  1  0
 10 31  1  0
 11 32  1  0
 11 33  1  0
 16 34  1  0
 17 35  1  0
 18 36  1  0
 19 37  1  0
 23 38  1  0
 24 39  1  0
M  END
$$$$
