
     RDKit          3D

 46 47  0  0  0  0  0  0  0  0999 V2000
   -5.9784   -0.2889   -0.6946 C   0  0  0  0  0  0  0  0  0  0  0  0
   -4.8973    0.7336   -1.0473 C   0  0  0  0  0  0  0  0  0  0  0  0
   -4.9251    1.0171   -2.5511 C   0  0  0  0  0  0  0  0  0  0  0  0
   -3.4918    0.2668   -0.6297 C   0  0  0  0  0  0  0  0  0  0  0  0
   -3.3292    0.1073    0.8820 C   0  0  0  0  0  0  0  0  0  0  0  0
   -1.9551   -0.1909    1.2340 N   0  0  0  0  0  0  0  0  0  0  0  0
   -1.4636   -1.4798    1.1894 C   0  0  0  0  0  0  0  0  0  0  0  0
   -2.1353   -2.4615    0.9048 O   0  0  0  0  0  0  0  0  0  0  0  0
   -0.0200   -1.6147    1.4889 C   0  0  0  0  0  0  0  0  0  0  0  0
    0.8856   -0.8076    0.7793 C   0  0  0  0  0  0  0  0  0  0  0  0
    2.2592   -0.9334    1.0002 C   0  0  0  0  0  0  0  0  0  0  0  0
    3.2189   -0.0595    0.3799 N   0  0  0  0  0  0  0  0  0  0  0  0
    3.5530    1.1690    1.1499 C   0  0  0  0  0  0  0  0  0  0  0  0
    4.5477    2.0677    0.4086 C   0  0  0  0  0  0  0  0  0  0  0  0
    5.4842    1.2725   -0.4951 C   0  0  0  0  0  0  0  0  0  0  0  0
    4.7551    0.6786   -1.6960 C   0  0  0  0  0  0  0  0  0  0  0  0
    3.1000    0.1224   -1.3071 S   0  0  0  0  0  6  0  0  0  0  0  0
    2.9078   -1.1805   -1.9059 O   0  0  0  0  0  0  0  0  0  0  0  0
    2.1739    1.2084   -1.5589 O   0  0  0  0  0  0  0  0  0  0  0  0
    2.7229   -1.8265    1.9682 C   0  0  0  0  0  0  0  0  0  0  0  0
    1.8248   -2.6306    2.6744 C   0  0  0  0  0  0  0  0  0  0  0  0
    0.4504   -2.5312    2.4360 C   0  0  0  0  0  0  0  0  0  0  0  0
   -0.5927   -3.5108    3.4018 Cl  0  0  0  0  0  0  0  0  0  0  0  0
   -6.0657   -0.4195    0.3881 H   0  0  0  0  0  0  0  0  0  0  0  0
   -5.7615   -1.2656   -1.1404 H   0  0  0  0  0  0  0  0  0  0  0  0
   -6.9573    0.0393   -1.0607 H   0  0  0  0  0  0  0  0  0  0  0  0
   -5.1271    1.6708   -0.5247 H   0  0  0  0  0  0  0  0  0  0  0  0
   -4.7050    0.1138   -3.1304 H   0  0  0  0  0  0  0  0  0  0  0  0
   -5.9087    1.3868   -2.8598 H   0  0  0  0  0  0  0  0  0  0  0  0
   -4.1853    1.7795   -2.8172 H   0  0  0  0  0  0  0  0  0  0  0  0
   -2.7522    0.9964   -0.9859 H   0  0  0  0  0  0  0  0  0  0  0  0
   -3.2487   -0.6799   -1.1293 H   0  0  0  0  0  0  0  0  0  0  0  0
   -3.9679   -0.6954    1.2637 H   0  0  0  0  0  0  0  0  0  0  0  0
   -3.5966    1.0355    1.3975 H   0  0  0  0  0  0  0  0  0  0  0  0
   -1.3396    0.5808    1.4520 H   0  0  0  0  0  0  0  0  0  0  0  0
    0.5109   -0.1047    0.0392 H   0  0  0  0  0  0  0  0  0  0  0  0
    2.6467    1.7340    1.3967 H   0  0  0  0  0  0  0  0  0  0  0  0
    4.0157    0.8594    2.0955 H   0  0  0  0  0  0  0  0  0  0  0  0
    4.0046    2.8100   -0.1894 H   0  0  0  0  0  0  0  0  0  0  0  0
    5.1293    2.6362    1.1439 H   0  0  0  0  0  0  0  0  0  0  0  0
    5.9550    0.4696    0.0859 H   0  0  0  0  0  0  0  0  0  0  0  0
    6.2971    1.9146   -0.8530 H   0  0  0  0  0  0  0  0  0  0  0  0
    5.3165   -0.1729   -2.0920 H   0  0  0  0  0  0  0  0  0  0  0  0
    4.6530    1.4247   -2.4910 H   0  0  0  0  0  0  0  0  0  0  0  0
    3.7883   -1.9113    2.1674 H   0  0  0  0  0  0  0  0  0  0  0  0
    2.2038   -3.3300    3.4165 H   0  0  0  0  0  0  0  0  0  0  0  0
  1  2  1  0
  2  3  1  0
  2  4  1  0
  4  5  1  0
  5  6  1  0
  6  7  1  0
  7  8  2  0
  7  9  1  0
  9 10  2  0
 10 11  1  0
 11 12  1  0
 12 13  1  0
 13 14  1  0
 14 15  1  0
 15 16  1  0
 16 17  1  0
 17 18  2  0
 17 19  2  0
 11 20  2  0
 20 21  1  0
 21 22  2  0
 22 23  1  0
 22  9  1  0
 17 12  1  0
  1 24  1  0
  1 25  1  0
  1 26  1  0
  2 27  1  0
  3 28  1  0
  3 29  1  0
  3 30  1  0
  4 31  1  0
  4 32  1  0
  5 33  1  0
  5 34  1  0
  6 35  1  0
 10 36  1  0
 13 37  1  0
 13 38  1  0
 14 39  1  0
 14 40  1  0
 15 41  1  0
 15 42  1  0
 16 43  1  0
 16 44  1  0
 20 45  1  0
 21 46  1  0
M  END
$$$$
