
     RDKit          3D

 43 44  0  0  0  0  0  0  0  0999 V2000
    5.3029    0.9880    0.9605 C   0  0  0  0  0  0  0  0  0  0  0  0
    4.3636   -0.1363    0.4857 C   0  0  0  0  0  0  0  0  0  0  0  0
    5.0348   -0.8498   -0.6994 C   0  0  0  0  0  0  0  0  0  0  0  0
    4.1527   -1.1211    1.6458 C   0  0  0  0  0  0  0  0  0  0  0  0
    3.0881    0.4791    0.0860 N   0  0  0  0  0  0  0  0  0  0  0  0
    2.0160   -0.2192   -0.4315 C   0  0  0  0  0  0  0  0  0  0  0  0
    2.0110   -1.4175   -0.6812 O   0  0  0  0  0  0  0  0  0  0  0  0
    0.7834    0.5781   -0.6593 C   0  0  0  0  0  0  0  0  0  0  0  0
    0.8438    1.9041   -1.1085 C   0  0  0  0  0  0  0  0  0  0  0  0
   -0.3349    2.6219   -1.3151 C   0  0  0  0  0  0  0  0  0  0  0  0
   -1.5696    2.0134   -1.0851 C   0  0  0  0  0  0  0  0  0  0  0  0
   -1.6302    0.6836   -0.6628 C   0  0  0  0  0  0  0  0  0  0  0  0
   -2.9241    0.1099   -0.4154 N   0  0  0  0  0  0  0  0  0  0  0  0
   -3.2694   -1.0911   -1.2207 C   0  0  0  0  0  0  0  0  0  0  0  0
   -4.6397   -1.6644   -0.8456 C   0  0  0  0  0  0  0  0  0  0  0  0
   -5.5856   -0.6030   -0.2948 C   0  0  0  0  0  0  0  0  0  0  0  0
   -5.1451   -0.1046    1.0774 C   0  0  0  0  0  0  0  0  0  0  0  0
   -3.3707    0.0671    1.2273 S   0  0  0  0  0  6  0  0  0  0  0  0
   -2.8372   -1.1534    1.7969 O   0  0  0  0  0  0  0  0  0  0  0  0
   -3.0980    1.3571    1.8264 O   0  0  0  0  0  0  0  0  0  0  0  0
   -0.4550   -0.0347   -0.4404 C   0  0  0  0  0  0  0  0  0  0  0  0
    4.8744    1.5277    1.8132 H   0  0  0  0  0  0  0  0  0  0  0  0
    6.2772    0.5931    1.2695 H   0  0  0  0  0  0  0  0  0  0  0  0
    5.4733    1.7220    0.1642 H   0  0  0  0  0  0  0  0  0  0  0  0
    4.4591   -1.7161   -1.0395 H   0  0  0  0  0  0  0  0  0  0  0  0
    6.0327   -1.2127   -0.4277 H   0  0  0  0  0  0  0  0  0  0  0  0
    5.1441   -0.1730   -1.5546 H   0  0  0  0  0  0  0  0  0  0  0  0
    5.1077   -1.5241    2.0015 H   0  0  0  0  0  0  0  0  0  0  0  0
    3.6575   -0.6312    2.4921 H   0  0  0  0  0  0  0  0  0  0  0  0
    3.5282   -1.9707    1.3509 H   0  0  0  0  0  0  0  0  0  0  0  0
    2.8846    1.3896    0.4784 H   0  0  0  0  0  0  0  0  0  0  0  0
    1.7987    2.3790   -1.3181 H   0  0  0  0  0  0  0  0  0  0  0  0
   -0.2943    3.6536   -1.6554 H   0  0  0  0  0  0  0  0  0  0  0  0
   -2.4858    2.5791   -1.2329 H   0  0  0  0  0  0  0  0  0  0  0  0
   -2.5069   -1.8724   -1.1324 H   0  0  0  0  0  0  0  0  0  0  0  0
   -3.3030   -0.7832   -2.2737 H   0  0  0  0  0  0  0  0  0  0  0  0
   -4.5152   -2.4617   -0.1021 H   0  0  0  0  0  0  0  0  0  0  0  0
   -5.0814   -2.1390   -1.7296 H   0  0  0  0  0  0  0  0  0  0  0  0
   -5.6381    0.2388   -0.9967 H   0  0  0  0  0  0  0  0  0  0  0  0
   -6.6010   -1.0082   -0.2180 H   0  0  0  0  0  0  0  0  0  0  0  0
   -5.4574   -0.8053    1.8587 H   0  0  0  0  0  0  0  0  0  0  0  0
   -5.5998    0.8687    1.2852 H   0  0  0  0  0  0  0  0  0  0  0  0
   -0.4914   -1.0609   -0.0822 H   0  0  0  0  0  0  0  0  0  0  0  0
  1  2  1  0
  2  3  1  0
  2  4  1  0
  2  5  1  0
  5  6  1  0
  6  7  2  0
  6  8  1  0
  8  9  2  0
  9 10  1  0
 10 11  2  0
 11 12  1  0
 12 13  1  0
 13 14  1  0
 14 15  1  0
 15 16  1  0
 16 17  1  0
 17 18  1  0
 18 19  2  0
 18 20  2  0
 12 21  2  0
 21  8  1  0
 18 13  1  0
  1 22  1  0
  1 23  1  0
  1 24  1  0
  3 25  1  0
  3 26  1  0
  3 27  1  0
  4 28  1  0
  4 29  1  0
  4 30  1  0
  5 31  1  0
  9 32  1  0
 10 33  1  0
 11 34  1  0
 14 35  1  0
 14 36  1  0
 15 37  1  0
 15 38  1  0
 16 39  1  0
 16 40  1  0
 17 41  1  0
 17 42  1  0
 21 43  1  0
M  END
$$$$
