
     RDKit          3D

 34 34  0  0  0  0  0  0  0  0999 V2000
   -3.2011    2.9164   -0.4842 C   0  0  0  0  0  0  0  0  0  0  0  0
   -3.0439    1.5870   -0.0107 O   0  0  0  0  0  0  0  0  0  0  0  0
   -1.8127    0.9980   -0.1562 C   0  0  0  0  0  0  0  0  0  0  0  0
   -0.6862    1.6404   -0.6792 C   0  0  0  0  0  0  0  0  0  0  0  0
    0.5318    0.9610   -0.7833 C   0  0  0  0  0  0  0  0  0  0  0  0
    0.6452   -0.3651   -0.3554 C   0  0  0  0  0  0  0  0  0  0  0  0
    1.9049   -1.0998   -0.4459 C   0  0  0  0  0  0  0  0  0  0  0  0
    2.0444   -2.3281   -0.9145 N   0  0  0  0  0  0  0  0  0  0  0  0
    3.3690   -2.6852   -0.8299 N   0  0  0  0  0  0  0  0  0  0  0  0
    4.0124   -1.6820   -0.2852 C   0  0  0  0  0  0  0  0  0  0  0  0
    3.1388   -0.6734   -0.0140 N   0  0  0  0  0  0  0  0  0  0  0  0
    3.4668    0.5471    0.6727 C   0  0  0  0  0  0  0  0  0  0  0  0
   -0.4905   -1.0155    0.1482 C   0  0  0  0  0  0  0  0  0  0  0  0
   -1.7159   -0.3463    0.2543 C   0  0  0  0  0  0  0  0  0  0  0  0
   -2.8651   -0.9107    0.7517 O   0  0  0  0  0  0  0  0  0  0  0  0
   -2.8508   -2.3084    1.0077 C   0  0  0  0  0  0  0  0  0  0  0  0
   -1.2062   -0.9991    0.2055 O   0  0  0  0  0  0  0  0  0  0  0  0
   -0.4085   -0.0873    0.0266 N   0  0  0  0  0  4  0  0  0  0  0  0
   -0.5531    1.1135   -0.1750 O   0  0  0  0  0  1  0  0  0  0  0  0
    0.9212   -0.4627    0.0531 O   0  0  0  0  0  0  0  0  0  0  0  0
   -4.2415    3.2107   -0.3160 H   0  0  0  0  0  0  0  0  0  0  0  0
   -2.5652    3.6113    0.0739 H   0  0  0  0  0  0  0  0  0  0  0  0
   -3.0080    2.9792   -1.5602 H   0  0  0  0  0  0  0  0  0  0  0  0
   -0.7247    2.6685   -1.0234 H   0  0  0  0  0  0  0  0  0  0  0  0
    1.3805    1.4769   -1.2252 H   0  0  0  0  0  0  0  0  0  0  0  0
    5.0702   -1.6478   -0.0661 H   0  0  0  0  0  0  0  0  0  0  0  0
    4.4195    0.4243    1.1952 H   0  0  0  0  0  0  0  0  0  0  0  0
    3.5531    1.3478   -0.0654 H   0  0  0  0  0  0  0  0  0  0  0  0
    2.6863    0.7734    1.4032 H   0  0  0  0  0  0  0  0  0  0  0  0
   -0.3872   -2.0522    0.4572 H   0  0  0  0  0  0  0  0  0  0  0  0
   -2.5974   -2.8762    0.1062 H   0  0  0  0  0  0  0  0  0  0  0  0
   -3.8600   -2.6024    1.3122 H   0  0  0  0  0  0  0  0  0  0  0  0
   -2.1725   -2.5491    1.8326 H   0  0  0  0  0  0  0  0  0  0  0  0
    1.2466    0.4356   -0.1101 H   0  0  0  0  0  0  0  0  0  0  0  0
  1  2  1  0
  2  3  1  0
  3  4  2  0
  4  5  1  0
  5  6  2  0
  6  7  1  0
  7  8  2  0
  8  9  1  0
  9 10  2  0
 10 11  1  0
 11 12  1  0
  6 13  1  0
 13 14  2  0
 14 15  1  0
 15 16  1  0
 17 18  2  0
 18 19  1  0
 18 20  1  0
 14  3  1  0
 11  7  1  0
  1 21  1  0
  1 22  1  0
  1 23  1  0
  4 24  1  0
  5 25  1  0
 10 26  1  0
 12 27  1  0
 12 28  1  0
 12 29  1  0
 13 30  1  0
 16 31  1  0
 16 32  1  0
 16 33  1  0
 20 34  1  0
M  CHG  2  18   1  19  -1
M  END
$$$$
