
     RDKit          3D

 37 39  0  0  0  0  0  0  0  0999 V2000
    2.3670   -0.7679    2.5427 C   0  0  0  0  0  0  0  0  0  0  0  0
    1.9088    0.0444    1.4690 O   0  0  0  0  0  0  0  0  0  0  0  0
    2.4463   -0.2132    0.2302 C   0  0  0  0  0  0  0  0  0  0  0  0
    3.6408   -0.9134    0.0237 C   0  0  0  0  0  0  0  0  0  0  0  0
    4.1289   -1.1131   -1.2697 C   0  0  0  0  0  0  0  0  0  0  0  0
    3.4330   -0.6121   -2.3652 C   0  0  0  0  0  0  0  0  0  0  0  0
    2.2471    0.0951   -2.1698 C   0  0  0  0  0  0  0  0  0  0  0  0
    1.7365    0.3055   -0.8757 C   0  0  0  0  0  0  0  0  0  0  0  0
    0.4913    1.0753   -0.7004 C   0  0  0  0  0  0  0  0  0  0  0  0
    0.5609    2.4690   -0.8431 C   0  0  0  0  0  0  0  0  0  0  0  0
   -0.5731    3.2235   -0.6276 C   0  0  0  0  0  0  0  0  0  0  0  0
   -1.7576    2.6922   -0.2740 N   0  0  0  0  0  0  0  0  0  0  0  0
   -1.8358    1.3435   -0.1255 C   0  0  0  0  0  0  0  0  0  0  0  0
   -0.7514    0.5048   -0.3500 C   0  0  0  0  0  0  0  0  0  0  0  0
   -0.9786   -0.9490   -0.2308 C   0  0  0  0  0  0  0  0  0  0  0  0
   -0.1788   -1.7557   -0.6977 O   0  0  0  0  0  0  0  0  0  0  0  0
   -2.1606   -1.3480    0.3792 N   0  0  0  0  0  0  0  0  0  0  0  0
   -2.3517   -2.7708    0.5938 C   0  0  0  0  0  0  0  0  0  0  0  0
   -3.2650   -0.5270    0.5430 C   0  0  0  0  0  0  0  0  0  0  0  0
   -4.3574   -0.9778    0.8956 O   0  0  0  0  0  0  0  0  0  0  0  0
   -3.0800    0.8120    0.2723 N   0  0  0  0  0  0  0  0  0  0  0  0
   -4.1823    1.7463    0.4474 C   0  0  0  0  0  0  0  0  0  0  0  0
    2.2870   -1.8337    2.3033 H   0  0  0  0  0  0  0  0  0  0  0  0
    3.3903   -0.5002    2.8243 H   0  0  0  0  0  0  0  0  0  0  0  0
    1.7237   -0.5724    3.4061 H   0  0  0  0  0  0  0  0  0  0  0  0
    4.2193   -1.3105    0.8507 H   0  0  0  0  0  0  0  0  0  0  0  0
    5.0538   -1.6640   -1.4206 H   0  0  0  0  0  0  0  0  0  0  0  0
    3.8093   -0.7752   -3.3716 H   0  0  0  0  0  0  0  0  0  0  0  0
    1.7096    0.4731   -3.0369 H   0  0  0  0  0  0  0  0  0  0  0  0
    1.4957    2.9589   -1.1008 H   0  0  0  0  0  0  0  0  0  0  0  0
   -0.5559    4.3053   -0.7258 H   0  0  0  0  0  0  0  0  0  0  0  0
   -2.7987   -3.2010   -0.3082 H   0  0  0  0  0  0  0  0  0  0  0  0
   -3.0209   -2.9484    1.4412 H   0  0  0  0  0  0  0  0  0  0  0  0
   -1.3976   -3.2687    0.7917 H   0  0  0  0  0  0  0  0  0  0  0  0
   -4.3547    2.2895   -0.4876 H   0  0  0  0  0  0  0  0  0  0  0  0
   -5.1111    1.2350    0.7155 H   0  0  0  0  0  0  0  0  0  0  0  0
   -3.9381    2.4485    1.2513 H   0  0  0  0  0  0  0  0  0  0  0  0
  1  2  1  0
  2  3  1  0
  3  4  2  0
  4  5  1  0
  5  6  2  0
  6  7  1  0
  7  8  2  0
  8  9  1  0
  9 10  2  0
 10 11  1  0
 11 12  2  0
 12 13  1  0
 13 14  2  0
 14 15  1  0
 15 16  2  0
 15 17  1  0
 17 18  1  0
 17 19  1  0
 19 20  2  0
 19 21  1  0
 21 22  1  0
  8  3  1  0
 14  9  1  0
 21 13  1  0
  1 23  1  0
  1 24  1  0
  1 25  1  0
  4 26  1  0
  5 27  1  0
  6 28  1  0
  7 29  1  0
 10 30  1  0
 11 31  1  0
 18 32  1  0
 18 33  1  0
 18 34  1  0
 22 35  1  0
 22 36  1  0
 22 37  1  0
M  END
$$$$
