
     RDKit          3D

 32 34  0  0  0  0  0  0  0  0999 V2000
    1.5370    1.8749    1.1367 O   0  0  0  0  0  0  0  0  0  0  0  0
    0.9492    0.9421    0.5989 C   0  0  0  0  0  0  0  0  0  0  0  0
    1.5450   -0.1148   -0.0593 N   0  0  0  0  0  0  0  0  0  0  0  0
    2.9183   -0.3542   -0.2596 C   0  0  0  0  0  0  0  0  0  0  0  0
    3.2651   -1.5129   -0.9709 C   0  0  0  0  0  0  0  0  0  0  0  0
    4.6051   -1.8248   -1.2138 C   0  0  0  0  0  0  0  0  0  0  0  0
    5.5993   -0.9773   -0.7449 C   0  0  0  0  0  0  0  0  0  0  0  0
    6.8843   -1.2744   -0.9768 F   0  0  0  0  0  0  0  0  0  0  0  0
    5.2768    0.1735   -0.0387 C   0  0  0  0  0  0  0  0  0  0  0  0
    3.9351    0.4855    0.2044 C   0  0  0  0  0  0  0  0  0  0  0  0
   -0.5432    0.9218    0.6607 C   0  0  0  0  0  0  0  0  0  0  0  0
   -1.1623    1.8750    1.4540 C   0  0  0  0  0  0  0  0  0  0  0  0
   -2.5048    1.9880    1.6146 N   0  0  0  0  0  0  0  0  0  0  0  0
   -3.2980    1.1153    0.9815 C   0  0  0  0  0  0  0  0  0  0  0  0
   -4.6708    1.2260    1.1680 C   0  0  0  0  0  0  0  0  0  0  0  0
   -5.5686    0.3482    0.5600 C   0  0  0  0  0  0  0  0  0  0  0  0
   -5.0773   -0.6633   -0.2442 C   0  0  0  0  0  0  0  0  0  0  0  0
   -5.9245   -1.5224   -0.8240 F   0  0  0  0  0  0  0  0  0  0  0  0
   -3.7107   -0.8030   -0.4564 C   0  0  0  0  0  0  0  0  0  0  0  0
   -2.7937    0.0940    0.1434 C   0  0  0  0  0  0  0  0  0  0  0  0
   -1.3856    0.0356   -0.0203 C   0  0  0  0  0  0  0  0  0  0  0  0
   -0.8242   -0.8969   -0.8655 O   0  0  0  0  0  0  0  0  0  0  0  0
    0.9061   -0.8010   -0.4542 H   0  0  0  0  0  0  0  0  0  0  0  0
    2.4977   -2.1867   -1.3429 H   0  0  0  0  0  0  0  0  0  0  0  0
    4.8772   -2.7202   -1.7629 H   0  0  0  0  0  0  0  0  0  0  0  0
    6.0668    0.8250    0.3211 H   0  0  0  0  0  0  0  0  0  0  0  0
    3.7182    1.3925    0.7597 H   0  0  0  0  0  0  0  0  0  0  0  0
   -0.5847    2.6109    2.0108 H   0  0  0  0  0  0  0  0  0  0  0  0
   -5.0511    2.0178    1.8109 H   0  0  0  0  0  0  0  0  0  0  0  0
   -6.6374    0.4478    0.7196 H   0  0  0  0  0  0  0  0  0  0  0  0
   -3.3871   -1.6329   -1.0755 H   0  0  0  0  0  0  0  0  0  0  0  0
   -1.4572   -1.0891   -1.5806 H   0  0  0  0  0  0  0  0  0  0  0  0
  1  2  2  0
  2  3  1  0
  3  4  1  0
  4  5  2  0
  5  6  1  0
  6  7  2  0
  7  8  1  0
  7  9  1  0
  9 10  2  0
  2 11  1  0
 11 12  2  0
 12 13  1  0
 13 14  2  0
 14 15  1  0
 15 16  2  0
 16 17  1  0
 17 18  1  0
 17 19  2  0
 19 20  1  0
 20 21  2  0
 21 22  1  0
 10  4  1  0
 21 11  1  0
 20 14  1  0
  3 23  1  0
  5 24  1  0
  6 25  1  0
  9 26  1  0
 10 27  1  0
 12 28  1  0
 15 29  1  0
 16 30  1  0
 19 31  1  0
 22 32  1  0
M  END
$$$$
