
     RDKit          3D

 36 39  0  0  0  0  0  0  0  0999 V2000
   -0.3061   -1.8440   -1.1341 O   0  0  0  0  0  0  0  0  0  0  0  0
   -0.3082   -0.7990   -0.4799 C   0  0  0  0  0  0  0  0  0  0  0  0
    1.0180   -0.1124   -0.1213 C   0  0  0  0  0  0  0  0  0  0  0  0
    1.3525    0.8854   -1.2239 C   0  0  0  0  0  0  0  0  0  0  0  0
    2.4964    1.6683   -0.8527 O   0  0  0  0  0  0  0  0  0  0  0  0
    3.5063    0.8655   -0.3837 C   0  0  0  0  0  0  0  0  0  0  0  0
    4.7760    1.4333   -0.3042 C   0  0  0  0  0  0  0  0  0  0  0  0
    5.8527    0.6651    0.1424 C   0  0  0  0  0  0  0  0  0  0  0  0
    5.6573   -0.6676    0.5103 C   0  0  0  0  0  0  0  0  0  0  0  0
    4.3824   -1.2323    0.4441 C   0  0  0  0  0  0  0  0  0  0  0  0
    3.3051   -0.4617    0.0126 C   0  0  0  0  0  0  0  0  0  0  0  0
    2.0763   -1.0716   -0.0038 O   0  0  0  0  0  0  0  0  0  0  0  0
   -1.4650   -0.1485   -0.0639 N   0  0  0  0  0  0  0  0  0  0  0  0
   -1.5379    1.0256    0.8280 C   0  0  0  0  0  0  0  0  0  0  0  0
   -3.0110    1.4302    0.9508 C   0  0  0  0  0  0  0  0  0  0  0  0
   -3.6995    0.2887    0.2787 C   0  0  0  0  0  0  0  0  0  0  0  0
   -5.0675    0.0792    0.1787 C   0  0  0  0  0  0  0  0  0  0  0  0
   -5.5167   -1.0374   -0.5261 C   0  0  0  0  0  0  0  0  0  0  0  0
   -4.6010   -1.9167   -1.1206 C   0  0  0  0  0  0  0  0  0  0  0  0
   -3.2240   -1.6922   -1.0169 C   0  0  0  0  0  0  0  0  0  0  0  0
   -2.7834   -0.5851   -0.3110 C   0  0  0  0  0  0  0  0  0  0  0  0
    0.9347    0.3790    0.8545 H   0  0  0  0  0  0  0  0  0  0  0  0
    1.5674    0.3835   -2.1770 H   0  0  0  0  0  0  0  0  0  0  0  0
    0.5273    1.5818   -1.4033 H   0  0  0  0  0  0  0  0  0  0  0  0
    4.9297    2.4666   -0.6018 H   0  0  0  0  0  0  0  0  0  0  0  0
    6.8460    1.1036    0.1968 H   0  0  0  0  0  0  0  0  0  0  0  0
    6.4979   -1.2669    0.8509 H   0  0  0  0  0  0  0  0  0  0  0  0
    4.2275   -2.2676    0.7351 H   0  0  0  0  0  0  0  0  0  0  0  0
   -0.9286    1.8441    0.4330 H   0  0  0  0  0  0  0  0  0  0  0  0
   -1.1306    0.7353    1.8039 H   0  0  0  0  0  0  0  0  0  0  0  0
   -3.2058    2.3639    0.4135 H   0  0  0  0  0  0  0  0  0  0  0  0
   -3.3100    1.5372    1.9975 H   0  0  0  0  0  0  0  0  0  0  0  0
   -5.7757    0.7654    0.6320 H   0  0  0  0  0  0  0  0  0  0  0  0
   -6.5833   -1.2275   -0.6195 H   0  0  0  0  0  0  0  0  0  0  0  0
   -4.9625   -2.7834   -1.6693 H   0  0  0  0  0  0  0  0  0  0  0  0
   -2.5368   -2.3879   -1.4856 H   0  0  0  0  0  0  0  0  0  0  0  0
  1  2  2  0
  2  3  1  0
  3  4  1  0
  4  5  1  0
  5  6  1  0
  6  7  2  0
  7  8  1  0
  8  9  2  0
  9 10  1  0
 10 11  2  0
 11 12  1  0
  2 13  1  0
 13 14  1  0
 14 15  1  0
 15 16  1  0
 16 17  2  0
 17 18  1  0
 18 19  2  0
 19 20  1  0
 20 21  2  0
 12  3  1  0
 21 13  1  0
 11  6  1  0
 21 16  1  0
  3 22  1  0
  4 23  1  0
  4 24  1  0
  7 25  1  0
  8 26  1  0
  9 27  1  0
 10 28  1  0
 14 29  1  0
 14 30  1  0
 15 31  1  0
 15 32  1  0
 17 33  1  0
 18 34  1  0
 19 35  1  0
 20 36  1  0
M  END
$$$$
