
     RDKit          3D

 49 50  0  0  0  0  0  0  0  0999 V2000
    7.0660   -0.8560   -0.8266 C   0  0  0  0  0  0  0  0  0  0  0  0
    6.5762    0.5744   -0.5998 C   0  0  0  0  0  0  0  0  0  0  0  0
    6.2681    0.8033    0.8791 C   0  0  0  0  0  0  0  0  0  0  0  0
    5.4074    0.9528   -1.5333 C   0  0  0  0  0  0  0  0  0  0  0  0
    4.1381    0.1067   -1.4293 C   0  0  0  0  0  0  0  0  0  0  0  0
    3.3788    0.3801   -0.2272 N   0  0  0  0  0  0  0  0  0  0  0  0
    2.4001   -0.4965    0.1956 C   0  0  0  0  0  0  0  0  0  0  0  0
    2.1987   -1.5952   -0.3197 O   0  0  0  0  0  0  0  0  0  0  0  0
    1.6084   -0.0157    1.4148 C   0  0  0  0  0  0  0  0  0  0  0  0
    0.2612   -0.5542    1.3444 N   0  0  0  0  0  0  0  0  0  0  0  0
   -0.7270    0.1578    0.6988 C   0  0  0  0  0  0  0  0  0  0  0  0
   -0.5683    1.3066    0.2994 O   0  0  0  0  0  0  0  0  0  0  0  0
   -2.0043   -0.6244    0.4901 C   0  0  0  0  0  0  0  0  0  0  0  0
   -2.6087   -1.1315    1.7880 C   0  0  0  0  0  0  0  0  0  0  0  0
   -4.0912   -1.1522    1.5098 C   0  0  0  0  0  0  0  0  0  0  0  0
   -4.8791   -1.7554    2.2224 O   0  0  0  0  0  0  0  0  0  0  0  0
   -4.3342   -0.3601    0.3810 N   0  0  0  0  0  0  0  0  0  0  0  0
   -5.6063   -0.0423   -0.1727 C   0  0  0  0  0  0  0  0  0  0  0  0
   -6.7790   -0.6786    0.2542 C   0  0  0  0  0  0  0  0  0  0  0  0
   -8.0238   -0.3597   -0.3023 C   0  0  0  0  0  0  0  0  0  0  0  0
   -8.1197    0.6042   -1.2994 C   0  0  0  0  0  0  0  0  0  0  0  0
   -6.9699    1.2489   -1.7397 C   0  0  0  0  0  0  0  0  0  0  0  0
   -5.7266    0.9279   -1.1819 C   0  0  0  0  0  0  0  0  0  0  0  0
   -3.1080    0.2388   -0.0957 C   0  0  0  0  0  0  0  0  0  0  0  0
    7.9888   -1.0382   -0.2650 H   0  0  0  0  0  0  0  0  0  0  0  0
    6.3295   -1.5960   -0.4979 H   0  0  0  0  0  0  0  0  0  0  0  0
    7.2810   -1.0321   -1.8856 H   0  0  0  0  0  0  0  0  0  0  0  0
    7.4067    1.2449   -0.8598 H   0  0  0  0  0  0  0  0  0  0  0  0
    5.8653    1.8076    1.0456 H   0  0  0  0  0  0  0  0  0  0  0  0
    7.1818    0.7094    1.4765 H   0  0  0  0  0  0  0  0  0  0  0  0
    5.5519    0.0724    1.2664 H   0  0  0  0  0  0  0  0  0  0  0  0
    5.7707    0.8787   -2.5669 H   0  0  0  0  0  0  0  0  0  0  0  0
    5.1545    2.0092   -1.3747 H   0  0  0  0  0  0  0  0  0  0  0  0
    3.4768    0.3469   -2.2703 H   0  0  0  0  0  0  0  0  0  0  0  0
    4.3582   -0.9633   -1.4944 H   0  0  0  0  0  0  0  0  0  0  0  0
    3.2604    1.3527    0.0309 H   0  0  0  0  0  0  0  0  0  0  0  0
    1.5857    1.0765    1.4671 H   0  0  0  0  0  0  0  0  0  0  0  0
    2.0848   -0.4162    2.3143 H   0  0  0  0  0  0  0  0  0  0  0  0
    0.2108   -1.5664    1.2901 H   0  0  0  0  0  0  0  0  0  0  0  0
   -1.7969   -1.4662   -0.1833 H   0  0  0  0  0  0  0  0  0  0  0  0
   -2.4148   -0.4665    2.6362 H   0  0  0  0  0  0  0  0  0  0  0  0
   -2.2557   -2.1397    2.0239 H   0  0  0  0  0  0  0  0  0  0  0  0
   -6.7633   -1.4467    1.0212 H   0  0  0  0  0  0  0  0  0  0  0  0
   -8.9162   -0.8715    0.0494 H   0  0  0  0  0  0  0  0  0  0  0  0
   -9.0863    0.8514   -1.7295 H   0  0  0  0  0  0  0  0  0  0  0  0
   -7.0358    2.0065   -2.5164 H   0  0  0  0  0  0  0  0  0  0  0  0
   -4.8633    1.4716   -1.5532 H   0  0  0  0  0  0  0  0  0  0  0  0
   -3.0565    0.2184   -1.1895 H   0  0  0  0  0  0  0  0  0  0  0  0
   -3.0749    1.2767    0.2559 H   0  0  0  0  0  0  0  0  0  0  0  0
  1  2  1  0
  2  3  1  0
  2  4  1  0
  4  5  1  0
  5  6  1  0
  6  7  1  0
  7  8  2  0
  7  9  1  0
  9 10  1  0
 10 11  1  0
 11 12  2  0
 11 13  1  0
 13 14  1  0
 14 15  1  0
 15 16  2  0
 15 17  1  0
 17 18  1  0
 18 19  2  0
 19 20  1  0
 20 21  2  0
 21 22  1  0
 22 23  2  0
 17 24  1  0
 24 13  1  0
 23 18  1  0
  1 25  1  0
  1 26  1  0
  1 27  1  0
  2 28  1  0
  3 29  1  0
  3 30  1  0
  3 31  1  0
  4 32  1  0
  4 33  1  0
  5 34  1  0
  5 35  1  0
  6 36  1  0
  9 37  1  0
  9 38  1  0
 10 39  1  0
 13 40  1  0
 14 41  1  0
 14 42  1  0
 19 43  1  0
 20 44  1  0
 21 45  1  0
 22 46  1  0
 23 47  1  0
 24 48  1  0
 24 49  1  0
M  END
$$$$
