
     RDKit          3D

 45 48  0  0  0  0  0  0  0  0999 V2000
    2.3833    2.4577   -0.6752 O   0  0  0  0  0  0  0  0  0  0  0  0
    1.8569    1.3504   -0.7465 C   0  0  0  0  0  0  0  0  0  0  0  0
    0.4424    1.3251   -1.1758 C   0  0  0  0  0  0  0  0  0  0  0  0
    0.1080    1.8495   -2.4284 C   0  0  0  0  0  0  0  0  0  0  0  0
   -1.2219    1.8426   -2.8465 C   0  0  0  0  0  0  0  0  0  0  0  0
   -2.2085    1.3093   -2.0144 C   0  0  0  0  0  0  0  0  0  0  0  0
   -1.8687    0.7783   -0.7666 C   0  0  0  0  0  0  0  0  0  0  0  0
   -2.9293    0.2962    0.0743 N   0  0  0  0  0  0  0  0  0  0  0  0
   -3.5125    1.3006    1.0018 C   0  0  0  0  0  0  0  0  0  0  0  0
   -4.5945    0.6947    1.9017 C   0  0  0  0  0  0  0  0  0  0  0  0
   -5.3169   -0.4726    1.2358 C   0  0  0  0  0  0  0  0  0  0  0  0
   -4.4166   -1.6951    1.0819 C   0  0  0  0  0  0  0  0  0  0  0  0
   -2.7219   -1.2732    0.6954 S   0  0  0  0  0  6  0  0  0  0  0  0
   -1.9779   -1.1627    1.9338 O   0  0  0  0  0  0  0  0  0  0  0  0
   -2.2659   -2.1438   -0.3684 O   0  0  0  0  0  0  0  0  0  0  0  0
   -0.5471    0.8295   -0.3236 C   0  0  0  0  0  0  0  0  0  0  0  0
    2.4662    0.1305   -0.4988 N   0  0  0  0  0  0  0  0  0  0  0  0
    1.8768   -1.2094   -0.7056 C   0  0  0  0  0  0  0  0  0  0  0  0
    2.9972   -2.2408   -0.5258 C   0  0  0  0  0  0  0  0  0  0  0  0
    4.1180   -1.3960   -0.0139 C   0  0  0  0  0  0  0  0  0  0  0  0
    5.3686   -1.8246    0.4062 C   0  0  0  0  0  0  0  0  0  0  0  0
    6.2976   -0.8641    0.8082 C   0  0  0  0  0  0  0  0  0  0  0  0
    5.9690    0.4989    0.7780 C   0  0  0  0  0  0  0  0  0  0  0  0
    4.7062    0.9192    0.3482 C   0  0  0  0  0  0  0  0  0  0  0  0
    3.7875   -0.0400   -0.0430 C   0  0  0  0  0  0  0  0  0  0  0  0
    0.8822    2.2656   -3.0695 H   0  0  0  0  0  0  0  0  0  0  0  0
   -1.4895    2.2509   -3.8178 H   0  0  0  0  0  0  0  0  0  0  0  0
   -3.2433    1.3000   -2.3464 H   0  0  0  0  0  0  0  0  0  0  0  0
   -2.7345    1.7708    1.6140 H   0  0  0  0  0  0  0  0  0  0  0  0
   -3.9756    2.0889    0.3947 H   0  0  0  0  0  0  0  0  0  0  0  0
   -5.3138    1.4775    2.1694 H   0  0  0  0  0  0  0  0  0  0  0  0
   -4.1470    0.3569    2.8448 H   0  0  0  0  0  0  0  0  0  0  0  0
   -5.6841   -0.1579    0.2508 H   0  0  0  0  0  0  0  0  0  0  0  0
   -6.2001   -0.7517    1.8216 H   0  0  0  0  0  0  0  0  0  0  0  0
   -4.3890   -2.2713    2.0126 H   0  0  0  0  0  0  0  0  0  0  0  0
   -4.7965   -2.3426    0.2859 H   0  0  0  0  0  0  0  0  0  0  0  0
   -0.2799    0.4851    0.6716 H   0  0  0  0  0  0  0  0  0  0  0  0
    1.4189   -1.2721   -1.6986 H   0  0  0  0  0  0  0  0  0  0  0  0
    1.0970   -1.3665    0.0474 H   0  0  0  0  0  0  0  0  0  0  0  0
    2.7109   -3.0223    0.1840 H   0  0  0  0  0  0  0  0  0  0  0  0
    3.2672   -2.6944   -1.4849 H   0  0  0  0  0  0  0  0  0  0  0  0
    5.6251   -2.8790    0.4186 H   0  0  0  0  0  0  0  0  0  0  0  0
    7.2852   -1.1720    1.1429 H   0  0  0  0  0  0  0  0  0  0  0  0
    6.7019    1.2385    1.0912 H   0  0  0  0  0  0  0  0  0  0  0  0
    4.4687    1.9772    0.3347 H   0  0  0  0  0  0  0  0  0  0  0  0
  1  2  2  0
  2  3  1  0
  3  4  2  0
  4  5  1  0
  5  6  2  0
  6  7  1  0
  7  8  1  0
  8  9  1  0
  9 10  1  0
 10 11  1  0
 11 12  1  0
 12 13  1  0
 13 14  2  0
 13 15  2  0
  7 16  2  0
  2 17  1  0
 17 18  1  0
 18 19  1  0
 19 20  1  0
 20 21  2  0
 21 22  1  0
 22 23  2  0
 23 24  1  0
 24 25  2  0
 16  3  1  0
 25 17  1  0
 13  8  1  0
 25 20  1  0
  4 26  1  0
  5 27  1  0
  6 28  1  0
  9 29  1  0
  9 30  1  0
 10 31  1  0
 10 32  1  0
 11 33  1  0
 11 34  1  0
 12 35  1  0
 12 36  1  0
 16 37  1  0
 18 38  1  0
 18 39  1  0
 19 40  1  0
 19 41  1  0
 21 42  1  0
 22 43  1  0
 23 44  1  0
 24 45  1  0
M  END
$$$$
