
     RDKit          3D

 48 51  0  0  0  0  0  0  0  0999 V2000
   -5.1207    2.4376    1.7333 C   0  0  0  0  0  0  0  0  0  0  0  0
   -5.3172    1.3393    0.8549 O   0  0  0  0  0  0  0  0  0  0  0  0
   -4.2052    0.6469    0.4348 C   0  0  0  0  0  0  0  0  0  0  0  0
   -2.8914    0.9813    0.7977 C   0  0  0  0  0  0  0  0  0  0  0  0
   -1.8540    0.2045    0.3059 C   0  0  0  0  0  0  0  0  0  0  0  0
   -2.1306   -0.8983   -0.5422 C   0  0  0  0  0  0  0  0  0  0  0  0
   -3.4103   -1.2479   -0.9129 C   0  0  0  0  0  0  0  0  0  0  0  0
   -4.4634   -0.4660   -0.4197 C   0  0  0  0  0  0  0  0  0  0  0  0
   -5.7895   -0.6950   -0.7066 O   0  0  0  0  0  0  0  0  0  0  0  0
   -6.1055   -1.8019   -1.5381 C   0  0  0  0  0  0  0  0  0  0  0  0
   -0.8563   -1.4524   -0.8451 C   0  0  0  0  0  0  0  0  0  0  0  0
    0.1437   -0.7460   -0.2341 C   0  0  0  0  0  0  0  0  0  0  0  0
    1.3411   -1.4099   -0.5775 C   0  0  0  0  0  0  0  0  0  0  0  0
    2.7228   -1.0810   -0.1847 C   0  0  0  0  0  0  0  0  0  0  0  0
    3.6276   -1.9082   -0.1104 O   0  0  0  0  0  0  0  0  0  0  0  0
    2.9410    0.2680    0.0747 N   0  0  0  0  0  0  0  0  0  0  0  0
    4.2868    0.7606    0.3255 C   0  0  0  0  0  0  0  0  0  0  0  0
    4.8344    0.3134    1.6907 C   0  0  0  0  0  0  0  0  0  0  0  0
    6.1490    1.0578    1.8762 C   0  0  0  0  0  0  0  0  0  0  0  0
    5.8647    2.6766    1.1821 S   0  0  0  0  0  6  0  0  0  0  0  0
    6.8808    2.9443    0.1865 O   0  0  0  0  0  0  0  0  0  0  0  0
    5.5681    3.6035    2.2544 O   0  0  0  0  0  0  0  0  0  0  0  0
    4.3419    2.2855    0.3460 C   0  0  0  0  0  0  0  0  0  0  0  0
    1.0603   -2.4762   -1.3673 N   0  0  0  0  0  0  0  0  0  0  0  0
   -0.2889   -2.4799   -1.5025 N   0  0  0  0  0  0  0  0  0  0  0  0
   -0.9372   -3.5134   -2.2674 C   0  0  0  0  0  0  0  0  0  0  0  0
   -0.3514    0.3991    0.5823 C   0  0  0  0  0  0  0  0  0  0  0  0
   -6.1036    2.8547    1.9725 H   0  0  0  0  0  0  0  0  0  0  0  0
   -4.6592    2.1154    2.6726 H   0  0  0  0  0  0  0  0  0  0  0  0
   -4.5332    3.2268    1.2529 H   0  0  0  0  0  0  0  0  0  0  0  0
   -2.6643    1.8195    1.4445 H   0  0  0  0  0  0  0  0  0  0  0  0
   -3.5717   -2.0970   -1.5617 H   0  0  0  0  0  0  0  0  0  0  0  0
   -7.1934   -1.8360   -1.6509 H   0  0  0  0  0  0  0  0  0  0  0  0
   -5.6718   -1.6822   -2.5363 H   0  0  0  0  0  0  0  0  0  0  0  0
   -5.7895   -2.7443   -1.0789 H   0  0  0  0  0  0  0  0  0  0  0  0
    2.2650    0.8976   -0.3393 H   0  0  0  0  0  0  0  0  0  0  0  0
    4.9407    0.3785   -0.4697 H   0  0  0  0  0  0  0  0  0  0  0  0
    4.1296    0.5891    2.4858 H   0  0  0  0  0  0  0  0  0  0  0  0
    4.9879   -0.7678    1.7549 H   0  0  0  0  0  0  0  0  0  0  0  0
    6.9535    0.5843    1.3061 H   0  0  0  0  0  0  0  0  0  0  0  0
    6.4353    1.1486    2.9258 H   0  0  0  0  0  0  0  0  0  0  0  0
    4.3463    2.7178   -0.6573 H   0  0  0  0  0  0  0  0  0  0  0  0
    3.5176    2.7143    0.9251 H   0  0  0  0  0  0  0  0  0  0  0  0
   -0.1848   -4.1855   -2.6881 H   0  0  0  0  0  0  0  0  0  0  0  0
   -1.5051   -3.0426   -3.0735 H   0  0  0  0  0  0  0  0  0  0  0  0
   -1.6019   -4.0700   -1.6023 H   0  0  0  0  0  0  0  0  0  0  0  0
   -0.0090    1.3624    0.1968 H   0  0  0  0  0  0  0  0  0  0  0  0
   -0.1290    0.2743    1.6448 H   0  0  0  0  0  0  0  0  0  0  0  0
  1  2  1  0
  2  3  1  0
  3  4  2  0
  4  5  1  0
  5  6  2  0
  6  7  1  0
  7  8  2  0
  8  9  1  0
  9 10  1  0
  6 11  1  0
 11 12  2  0
 12 13  1  0
 13 14  1  0
 14 15  2  0
 14 16  1  0
 16 17  1  0
 17 18  1  0
 18 19  1  0
 19 20  1  0
 20 21  2  0
 20 22  2  0
 20 23  1  0
 13 24  2  0
 24 25  1  0
 25 26  1  0
 12 27  1  0
  8  3  1  0
 25 11  1  0
 27  5  1  0
 23 17  1  0
  1 28  1  0
  1 29  1  0
  1 30  1  0
  4 31  1  0
  7 32  1  0
 10 33  1  0
 10 34  1  0
 10 35  1  0
 16 36  1  0
 17 37  1  0
 18 38  1  0
 18 39  1  0
 19 40  1  0
 19 41  1  0
 23 42  1  0
 23 43  1  0
 26 44  1  0
 26 45  1  0
 26 46  1  0
 27 47  1  0
 27 48  1  0
M  END
$$$$
