
     RDKit          3D

 49 50  0  0  0  0  0  0  0  0999 V2000
    4.8771    0.4108   -0.5096 C   0  0  0  0  0  0  0  0  0  0  0  0
    3.4021    0.2254   -0.7905 C   0  0  0  0  0  0  0  0  0  0  0  0
    2.9378    1.4760   -1.5161 C   0  0  0  0  0  0  0  0  0  0  0  0
    2.6236    0.0117    0.4358 C   0  0  0  0  0  0  0  0  0  0  0  0
    3.1758   -0.0016    1.5637 O   0  0  0  0  0  0  0  0  0  0  0  0
    1.1945   -0.1903    0.3820 N   0  0  0  0  0  0  0  0  0  0  0  0
    0.4716   -0.3944    1.5961 C   0  0  0  0  0  0  0  0  0  0  0  0
   -0.9902   -0.5942    1.3988 C   0  0  0  0  0  0  0  0  0  0  0  0
   -1.6280    0.5794    0.7362 C   0  0  0  0  0  0  0  0  0  0  0  0
   -2.9463    0.5481    0.3271 C   0  0  0  0  0  0  0  0  0  0  0  0
   -3.5295    1.6398   -0.2790 C   0  0  0  0  0  0  0  0  0  0  0  0
   -2.8040    2.8126   -0.4983 C   0  0  0  0  0  0  0  0  0  0  0  0
   -1.4900    2.8636   -0.0980 C   0  0  0  0  0  0  0  0  0  0  0  0
   -0.9345    1.7318    0.5147 C   0  0  0  0  0  0  0  0  0  0  0  0
   -0.9678    4.1275   -0.4172 O   0  0  0  0  0  0  0  0  0  0  0  0
   -2.1057    4.9858   -0.5421 C   0  0  0  0  0  0  0  0  0  0  0  0
   -3.0657    4.0543   -1.0596 O   0  0  0  0  0  0  0  0  0  0  0  0
   -1.3296   -1.8137    0.8020 N   0  0  0  0  0  0  0  0  0  0  0  0
   -0.9806   -2.9825    1.4845 C   0  0  0  0  0  0  0  0  0  0  0  0
   -1.2704   -4.2601    0.7073 C   0  0  0  0  0  0  0  0  0  0  0  0
   -0.8439   -4.2411   -0.5910 O   0  0  0  0  0  0  0  0  0  0  0  0
   -0.3903   -3.0061   -1.0180 C   0  0  0  0  0  0  0  0  0  0  0  0
   -1.4121   -1.9451   -0.5800 C   0  0  0  0  0  0  0  0  0  0  0  0
    0.6913    0.0000    0.0000 Cl  0  0  0  0  0  0  0  0  0  0  0  0
    5.3450    0.8807   -1.3915 H   0  0  0  0  0  0  0  0  0  0  0  0
    5.3970   -0.5575   -0.3585 H   0  0  0  0  0  0  0  0  0  0  0  0
    4.9835    1.0257    0.4176 H   0  0  0  0  0  0  0  0  0  0  0  0
    3.2191   -0.6426   -1.4717 H   0  0  0  0  0  0  0  0  0  0  0  0
    2.0521    1.2704   -2.1524 H   0  0  0  0  0  0  0  0  0  0  0  0
    3.7657    1.9329   -2.0643 H   0  0  0  0  0  0  0  0  0  0  0  0
    2.6482    2.2031   -0.7165 H   0  0  0  0  0  0  0  0  0  0  0  0
    0.7941   -0.1673   -0.5789 H   0  0  0  0  0  0  0  0  0  0  0  0
    0.9319   -1.2051    2.2309 H   0  0  0  0  0  0  0  0  0  0  0  0
    0.5816    0.5150    2.2611 H   0  0  0  0  0  0  0  0  0  0  0  0
   -1.4479   -0.5971    2.4451 H   0  0  0  0  0  0  0  0  0  0  0  0
   -3.5580   -0.3256    0.4677 H   0  0  0  0  0  0  0  0  0  0  0  0
   -4.5560    1.6589   -0.6141 H   0  0  0  0  0  0  0  0  0  0  0  0
    0.1098    1.8339    0.8131 H   0  0  0  0  0  0  0  0  0  0  0  0
   -2.4985    5.2799    0.4604 H   0  0  0  0  0  0  0  0  0  0  0  0
   -1.9310    5.8263   -1.2127 H   0  0  0  0  0  0  0  0  0  0  0  0
   -1.4757   -3.1265    2.4728 H   0  0  0  0  0  0  0  0  0  0  0  0
    0.1119   -2.9860    1.7187 H   0  0  0  0  0  0  0  0  0  0  0  0
   -2.3348   -4.5431    0.8442 H   0  0  0  0  0  0  0  0  0  0  0  0
   -0.6883   -5.0619    1.2457 H   0  0  0  0  0  0  0  0  0  0  0  0
   -0.3217   -3.0439   -2.1243 H   0  0  0  0  0  0  0  0  0  0  0  0
    0.5848   -2.7314   -0.5919 H   0  0  0  0  0  0  0  0  0  0  0  0
   -2.4025   -2.4434   -0.8235 H   0  0  0  0  0  0  0  0  0  0  0  0
   -1.3042   -1.0329   -1.2003 H   0  0  0  0  0  0  0  0  0  0  0  0
   -0.6913    0.0000    0.0000 H   0  0  0  0  0  0  0  0  0  0  0  0
  1  2  1  0
  2  3  1  0
  2  4  1  0
  4  5  2  0
  4  6  1  0
  6  7  1  0
  7  8  1  0
  8  9  1  0
  9 10  2  0
 10 11  1  0
 11 12  2  0
 12 13  1  0
 13 14  2  0
 13 15  1  0
 15 16  1  0
 16 17  1  0
  8 18  1  0
 18 19  1  0
 19 20  1  0
 20 21  1  0
 21 22  1  0
 22 23  1  0
 14  9  1  0
 23 18  1  0
 17 12  1  0
  1 25  1  0
  1 26  1  0
  1 27  1  0
  2 28  1  0
  3 29  1  0
  3 30  1  0
  3 31  1  0
  6 32  1  0
  7 33  1  0
  7 34  1  0
  8 35  1  0
 10 36  1  0
 11 37  1  0
 14 38  1  0
 16 39  1  0
 16 40  1  0
 19 41  1  0
 19 42  1  0
 20 43  1  0
 20 44  1  0
 22 45  1  0
 22 46  1  0
 23 47  1  0
 23 48  1  0
 24 49  1  0
M  END
$$$$
