
     RDKit          3D

 53 55  0  0  0  0  0  0  0  0999 V2000
    5.5152   -3.9210   -1.0533 C   0  0  0  0  0  0  0  0  0  0  0  0
    4.9907   -3.1912    0.0484 O   0  0  0  0  0  0  0  0  0  0  0  0
    3.9155   -2.3838   -0.2023 C   0  0  0  0  0  0  0  0  0  0  0  0
    3.4957   -1.6156    0.8863 C   0  0  0  0  0  0  0  0  0  0  0  0
    2.4064   -0.7485    0.7696 C   0  0  0  0  0  0  0  0  0  0  0  0
    1.7161   -0.6492   -0.4404 C   0  0  0  0  0  0  0  0  0  0  0  0
    0.5674    0.2437   -0.5632 C   0  0  0  0  0  0  0  0  0  0  0  0
    0.5293    1.6245   -0.7146 C   0  0  0  0  0  0  0  0  0  0  0  0
    1.5958    2.5937   -0.7969 C   0  0  0  0  0  0  0  0  0  0  0  0
    2.7817    2.2902   -0.7006 O   0  0  0  0  0  0  0  0  0  0  0  0
    1.1382    3.9053   -0.9855 N   0  0  0  0  0  0  0  0  0  0  0  0
    2.1367    4.9521   -1.0800 C   0  0  0  0  0  0  0  0  0  0  0  0
   -0.2048    4.3265   -1.0302 C   0  0  0  0  0  0  0  0  0  0  0  0
   -0.4925    5.5230   -1.1374 O   0  0  0  0  0  0  0  0  0  0  0  0
   -1.1923    3.3390   -0.9449 N   0  0  0  0  0  0  0  0  0  0  0  0
   -2.5947    3.7211   -1.0008 C   0  0  0  0  0  0  0  0  0  0  0  0
   -0.8133    2.0171   -0.7932 C   0  0  0  0  0  0  0  0  0  0  0  0
   -1.5939    0.8955   -0.6880 C   0  0  0  0  0  0  0  0  0  0  0  0
   -0.7514   -0.1823   -0.5303 N   0  0  0  0  0  0  0  0  0  0  0  0
   -1.2219   -1.5515   -0.3706 C   0  0  0  0  0  0  0  0  0  0  0  0
   -1.2437   -2.0392    1.0795 C   0  0  0  0  0  0  0  0  0  0  0  0
   -2.2113   -1.2711    1.9905 C   0  0  0  0  0  0  0  0  0  0  0  0
   -3.6028   -1.2565    1.5070 N   0  0  0  0  0  0  0  0  0  0  0  0
   -4.2342   -2.5740    1.6189 C   0  0  0  0  0  0  0  0  0  0  0  0
   -4.3830   -0.2733    2.2656 C   0  0  0  0  0  0  0  0  0  0  0  0
    2.1409   -1.4111   -1.5335 C   0  0  0  0  0  0  0  0  0  0  0  0
    3.2342   -2.2773   -1.4151 C   0  0  0  0  0  0  0  0  0  0  0  0
    6.3873   -4.4794   -0.6995 H   0  0  0  0  0  0  0  0  0  0  0  0
    4.7855   -4.6464   -1.4279 H   0  0  0  0  0  0  0  0  0  0  0  0
    5.8509   -3.2492   -1.8503 H   0  0  0  0  0  0  0  0  0  0  0  0
    4.0284   -1.6842    1.8314 H   0  0  0  0  0  0  0  0  0  0  0  0
    2.1067   -0.1490    1.6251 H   0  0  0  0  0  0  0  0  0  0  0  0
    2.0964    5.5547   -0.1667 H   0  0  0  0  0  0  0  0  0  0  0  0
    1.9104    5.6001   -1.9332 H   0  0  0  0  0  0  0  0  0  0  0  0
    3.1490    4.5582   -1.2012 H   0  0  0  0  0  0  0  0  0  0  0  0
   -3.0736    3.2040   -1.8384 H   0  0  0  0  0  0  0  0  0  0  0  0
   -2.7239    4.7974   -1.1409 H   0  0  0  0  0  0  0  0  0  0  0  0
   -3.0803    3.4325   -0.0632 H   0  0  0  0  0  0  0  0  0  0  0  0
   -2.6679    0.7597   -0.6921 H   0  0  0  0  0  0  0  0  0  0  0  0
   -2.2168   -1.6172   -0.8262 H   0  0  0  0  0  0  0  0  0  0  0  0
   -0.5705   -2.1947   -0.9716 H   0  0  0  0  0  0  0  0  0  0  0  0
   -1.4928   -3.1066    1.0870 H   0  0  0  0  0  0  0  0  0  0  0  0
   -0.2393   -1.9641    1.5119 H   0  0  0  0  0  0  0  0  0  0  0  0
   -2.1606   -1.6925    3.0033 H   0  0  0  0  0  0  0  0  0  0  0  0
   -1.8416   -0.2410    2.0735 H   0  0  0  0  0  0  0  0  0  0  0  0
   -4.2328   -2.9477    2.6492 H   0  0  0  0  0  0  0  0  0  0  0  0
   -5.2729   -2.5318    1.2715 H   0  0  0  0  0  0  0  0  0  0  0  0
   -3.7327   -3.3089    0.9816 H   0  0  0  0  0  0  0  0  0  0  0  0
   -5.4115   -0.2253    1.8905 H   0  0  0  0  0  0  0  0  0  0  0  0
   -4.4150   -0.5074    3.3359 H   0  0  0  0  0  0  0  0  0  0  0  0
   -3.9612    0.7306    2.1426 H   0  0  0  0  0  0  0  0  0  0  0  0
    1.6266   -1.3297   -2.4881 H   0  0  0  0  0  0  0  0  0  0  0  0
    3.5278   -2.8482   -2.2892 H   0  0  0  0  0  0  0  0  0  0  0  0
  1  2  1  0
  2  3  1  0
  3  4  2  0
  4  5  1  0
  5  6  2  0
  6  7  1  0
  7  8  2  0
  8  9  1  0
  9 10  2  0
  9 11  1  0
 11 12  1  0
 11 13  1  0
 13 14  2  0
 13 15  1  0
 15 16  1  0
 15 17  1  0
 17 18  2  0
 18 19  1  0
 19 20  1  0
 20 21  1  0
 21 22  1  0
 22 23  1  0
 23 24  1  0
 23 25  1  0
  6 26  1  0
 26 27  2  0
 27  3  1  0
 19  7  1  0
 17  8  1  0
  1 28  1  0
  1 29  1  0
  1 30  1  0
  4 31  1  0
  5 32  1  0
 12 33  1  0
 12 34  1  0
 12 35  1  0
 16 36  1  0
 16 37  1  0
 16 38  1  0
 18 39  1  0
 20 40  1  0
 20 41  1  0
 21 42  1  0
 21 43  1  0
 22 44  1  0
 22 45  1  0
 24 46  1  0
 24 47  1  0
 24 48  1  0
 25 49  1  0
 25 50  1  0
 25 51  1  0
 26 52  1  0
 27 53  1  0
M  END
$$$$
