
     RDKit          3D

 45 46  0  0  0  0  0  0  0  0999 V2000
   -0.3769   -2.0375    1.8862 C   0  0  0  0  0  0  0  0  0  0  0  0
   -1.0169   -2.4199    0.7237 N   0  0  0  0  0  0  0  0  0  0  0  0
   -0.9099   -3.8728    0.5356 C   0  0  0  0  0  0  0  0  0  0  0  0
   -1.1342   -1.6977   -0.4506 C   0  0  0  0  0  0  0  0  0  0  0  0
    0.1424   -1.3244   -1.1737 C   0  0  0  0  0  0  0  0  0  0  0  0
    1.0455   -0.4968   -0.4500 N   0  0  0  0  0  0  0  0  0  0  0  0
    2.2704   -0.1554   -1.1388 C   0  0  0  0  0  0  0  0  0  0  0  0
    2.4918   -0.5794   -2.3007 O   0  0  0  0  0  0  0  0  0  0  0  0
    3.2741    0.6873   -0.5024 C   0  0  0  0  0  0  0  0  0  0  0  0
    2.9714    1.7489    0.3231 C   0  0  0  0  0  0  0  0  0  0  0  0
    3.9052    2.5478    0.9246 C   0  0  0  0  0  0  0  0  0  0  0  0
    5.2415    2.2965    0.7077 C   0  0  0  0  0  0  0  0  0  0  0  0
    5.5969    1.2501   -0.1068 C   0  0  0  0  0  0  0  0  0  0  0  0
    4.6382    0.4662   -0.6965 C   0  0  0  0  0  0  0  0  0  0  0  0
    5.0980   -0.9958   -1.8349 Br  0  0  0  0  0  0  0  0  0  0  0  0
   -2.0925   -0.5471   -0.4730 C   0  0  0  0  0  0  0  0  0  0  0  0
   -3.1266   -0.4964   -1.4164 C   0  0  0  0  0  0  0  0  0  0  0  0
   -4.0176    0.5258   -1.5101 C   0  0  0  0  0  0  0  0  0  0  0  0
   -3.8904    1.5688   -0.6231 C   0  0  0  0  0  0  0  0  0  0  0  0
   -2.8955    1.5797    0.3278 C   0  0  0  0  0  0  0  0  0  0  0  0
   -2.0059    0.5161    0.3893 C   0  0  0  0  0  0  0  0  0  0  0  0
   -3.0247    2.7420    1.0595 O   0  0  0  0  0  0  0  0  0  0  0  0
   -4.2107    3.4260    0.6783 C   0  0  0  0  0  0  0  0  0  0  0  0
   -4.6354    2.7242   -0.4806 O   0  0  0  0  0  0  0  0  0  0  0  0
    0.6879    0.0000    0.0000 Cl  0  0  0  0  0  0  0  0  0  0  0  0
   -0.8049   -1.2144    2.4689 H   0  0  0  0  0  0  0  0  0  0  0  0
    0.7564   -1.9791    1.8127 H   0  0  0  0  0  0  0  0  0  0  0  0
   -0.4710   -2.9340    2.6215 H   0  0  0  0  0  0  0  0  0  0  0  0
   -0.2999   -4.2851    1.3382 H   0  0  0  0  0  0  0  0  0  0  0  0
   -1.9392   -4.2643    0.4972 H   0  0  0  0  0  0  0  0  0  0  0  0
   -0.4434   -4.0666   -0.4537 H   0  0  0  0  0  0  0  0  0  0  0  0
   -1.6147   -2.4434   -1.2103 H   0  0  0  0  0  0  0  0  0  0  0  0
   -0.1313   -0.8570   -2.1490 H   0  0  0  0  0  0  0  0  0  0  0  0
    0.6986   -2.2647   -1.4508 H   0  0  0  0  0  0  0  0  0  0  0  0
    0.9507   -0.0961    0.4909 H   0  0  0  0  0  0  0  0  0  0  0  0
    1.9158    1.9466    0.4934 H   0  0  0  0  0  0  0  0  0  0  0  0
    3.6404    3.3838    1.5743 H   0  0  0  0  0  0  0  0  0  0  0  0
    5.9962    2.9360    1.1892 H   0  0  0  0  0  0  0  0  0  0  0  0
    6.6465    1.0673   -0.2666 H   0  0  0  0  0  0  0  0  0  0  0  0
   -3.2466   -1.3217   -2.1372 H   0  0  0  0  0  0  0  0  0  0  0  0
   -4.7863    0.5115   -2.2494 H   0  0  0  0  0  0  0  0  0  0  0  0
   -1.2231    0.5786    1.1531 H   0  0  0  0  0  0  0  0  0  0  0  0
   -4.0135    4.4745    0.3985 H   0  0  0  0  0  0  0  0  0  0  0  0
   -4.9690    3.3718    1.4806 H   0  0  0  0  0  0  0  0  0  0  0  0
   -0.6879    0.0000    0.0000 H   0  0  0  0  0  0  0  0  0  0  0  0
  1  2  1  0
  2  3  1  0
  2  4  1  0
  4  5  1  0
  5  6  1  0
  6  7  1  0
  7  8  2  0
  7  9  1  0
  9 10  2  0
 10 11  1  0
 11 12  2  0
 12 13  1  0
 13 14  2  0
 14 15  1  0
  4 16  1  0
 16 17  2  0
 17 18  1  0
 18 19  2  0
 19 20  1  0
 20 21  2  0
 20 22  1  0
 22 23  1  0
 23 24  1  0
 14  9  1  0
 21 16  1  0
 24 19  1  0
  1 26  1  0
  1 27  1  0
  1 28  1  0
  3 29  1  0
  3 30  1  0
  3 31  1  0
  4 32  1  0
  5 33  1  0
  5 34  1  0
  6 35  1  0
 10 36  1  0
 11 37  1  0
 12 38  1  0
 13 39  1  0
 17 40  1  0
 18 41  1  0
 21 42  1  0
 23 43  1  0
 23 44  1  0
 25 45  1  0
M  END
$$$$
