
     RDKit          3D

 57 59  0  0  0  0  0  0  0  0999 V2000
   -4.4836   -0.8668    2.9257 C   0  0  0  0  0  0  0  0  0  0  0  0
   -3.7062   -0.8766    1.6146 C   0  0  0  0  0  0  0  0  0  0  0  0
   -3.9014    0.4097    0.7809 C   0  0  0  0  0  0  0  0  0  0  0  0
   -3.4186    1.6702    1.5139 C   0  0  0  0  0  0  0  0  0  0  0  0
   -3.3279    0.3742   -0.5926 N   0  0  0  0  0  0  0  0  0  0  0  0
   -2.0094   -0.2718   -0.7387 C   0  0  0  0  0  0  0  0  0  0  0  0
   -0.8366    0.3984   -0.0045 C   0  0  0  0  0  0  0  0  0  0  0  0
    0.4485   -0.1247   -0.4535 N   0  0  0  0  0  0  0  0  0  0  0  0
    1.5779    0.1298    0.3057 C   0  0  0  0  0  0  0  0  0  0  0  0
    1.5409    0.7234    1.3738 O   0  0  0  0  0  0  0  0  0  0  0  0
    2.6964   -0.3945   -0.3114 N   0  0  0  0  0  0  0  0  0  0  0  0
    4.0248   -0.2809    0.0613 C   0  0  0  0  0  0  0  0  0  0  0  0
    4.4449    0.5330    1.0456 C   0  0  0  0  0  0  0  0  0  0  0  0
    5.7669    0.6705    1.4265 N   0  0  0  0  0  0  0  0  0  0  0  0
    6.0737    1.5838    2.5187 C   0  0  0  0  0  0  0  0  0  0  0  0
    6.8001   -0.0299    0.8141 C   0  0  0  0  0  0  0  0  0  0  0  0
    7.9827    0.0701    1.1315 O   0  0  0  0  0  0  0  0  0  0  0  0
    6.4103   -0.9442   -0.2909 C   0  0  0  0  0  0  0  0  0  0  0  0
    7.4203   -1.6698   -0.9451 C   0  0  0  0  0  0  0  0  0  0  0  0
    7.0996   -2.5358   -1.9850 C   0  0  0  0  0  0  0  0  0  0  0  0
    5.7725   -2.6779   -2.3717 C   0  0  0  0  0  0  0  0  0  0  0  0
    4.7641   -1.9553   -1.7205 C   0  0  0  0  0  0  0  0  0  0  0  0
    5.0594   -1.0709   -0.6648 C   0  0  0  0  0  0  0  0  0  0  0  0
   -4.2803   -0.2395   -1.5500 C   0  0  0  0  0  0  0  0  0  0  0  0
   -5.4584    0.6336   -1.8303 C   0  0  0  0  0  0  0  0  0  0  0  0
   -5.5988    1.9722   -2.1376 C   0  0  0  0  0  0  0  0  0  0  0  0
   -6.9858    2.2032   -2.2958 C   0  0  0  0  0  0  0  0  0  0  0  0
   -7.6024    0.9935   -2.0793 C   0  0  0  0  0  0  0  0  0  0  0  0
   -6.6841    0.0336   -1.7982 O   0  0  0  0  0  0  0  0  0  0  0  0
   -4.1091   -0.0986    3.6084 H   0  0  0  0  0  0  0  0  0  0  0  0
   -5.5491   -0.6883    2.7505 H   0  0  0  0  0  0  0  0  0  0  0  0
   -4.3813   -1.8337    3.4287 H   0  0  0  0  0  0  0  0  0  0  0  0
   -2.6487   -1.0374    1.8484 H   0  0  0  0  0  0  0  0  0  0  0  0
   -4.0412   -1.7444    1.0341 H   0  0  0  0  0  0  0  0  0  0  0  0
   -4.9858    0.5581    0.6936 H   0  0  0  0  0  0  0  0  0  0  0  0
   -3.4548    2.5461    0.8559 H   0  0  0  0  0  0  0  0  0  0  0  0
   -2.4021    1.5737    1.9007 H   0  0  0  0  0  0  0  0  0  0  0  0
   -4.0706    1.8928    2.3657 H   0  0  0  0  0  0  0  0  0  0  0  0
   -2.0535   -1.3355   -0.4712 H   0  0  0  0  0  0  0  0  0  0  0  0
   -1.7449   -0.2524   -1.8054 H   0  0  0  0  0  0  0  0  0  0  0  0
   -0.9066    0.2356    1.0742 H   0  0  0  0  0  0  0  0  0  0  0  0
   -0.8255    1.4783   -0.1919 H   0  0  0  0  0  0  0  0  0  0  0  0
    0.6126   -0.0510   -1.4471 H   0  0  0  0  0  0  0  0  0  0  0  0
    2.4705   -1.0534   -1.0362 H   0  0  0  0  0  0  0  0  0  0  0  0
    3.7537    1.1499    1.6111 H   0  0  0  0  0  0  0  0  0  0  0  0
    7.1452    1.6204    2.7325 H   0  0  0  0  0  0  0  0  0  0  0  0
    5.7369    2.5897    2.2482 H   0  0  0  0  0  0  0  0  0  0  0  0
    5.5486    1.2508    3.4198 H   0  0  0  0  0  0  0  0  0  0  0  0
    8.4595   -1.5581   -0.6406 H   0  0  0  0  0  0  0  0  0  0  0  0
    7.8829   -3.0965   -2.4888 H   0  0  0  0  0  0  0  0  0  0  0  0
    5.5166   -3.3553   -3.1835 H   0  0  0  0  0  0  0  0  0  0  0  0
    3.7510   -2.1159   -2.0720 H   0  0  0  0  0  0  0  0  0  0  0  0
   -3.7903   -0.3948   -2.5204 H   0  0  0  0  0  0  0  0  0  0  0  0
   -4.6023   -1.2290   -1.2032 H   0  0  0  0  0  0  0  0  0  0  0  0
   -4.7921    2.6867   -2.2239 H   0  0  0  0  0  0  0  0  0  0  0  0
   -7.4764    3.1358   -2.5353 H   0  0  0  0  0  0  0  0  0  0  0  0
   -8.6325    0.6659   -2.0870 H   0  0  0  0  0  0  0  0  0  0  0  0
  1  2  1  0
  2  3  1  0
  3  4  1  0
  3  5  1  0
  5  6  1  0
  6  7  1  0
  7  8  1  0
  8  9  1  0
  9 10  2  0
  9 11  1  0
 11 12  1  0
 12 13  2  0
 13 14  1  0
 14 15  1  0
 14 16  1  0
 16 17  2  0
 16 18  1  0
 18 19  2  0
 19 20  1  0
 20 21  2  0
 21 22  1  0
 22 23  2  0
  5 24  1  0
 24 25  1  0
 25 26  2  0
 26 27  1  0
 27 28  2  0
 28 29  1  0
 23 12  1  0
 29 25  1  0
 23 18  1  0
  1 30  1  0
  1 31  1  0
  1 32  1  0
  2 33  1  0
  2 34  1  0
  3 35  1  0
  4 36  1  0
  4 37  1  0
  4 38  1  0
  6 39  1  0
  6 40  1  0
  7 41  1  0
  7 42  1  0
  8 43  1  0
 11 44  1  0
 13 45  1  0
 15 46  1  0
 15 47  1  0
 15 48  1  0
 19 49  1  0
 20 50  1  0
 21 51  1  0
 22 52  1  0
 24 53  1  0
 24 54  1  0
 26 55  1  0
 27 56  1  0
 28 57  1  0
M  END
$$$$
