
     RDKit          3D

 48 49  0  0  0  0  0  0  0  0999 V2000
    7.1370   -2.1366   -0.3487 C   0  0  0  0  0  0  0  0  0  0  0  0
    5.4837   -2.2543   -1.0770 S   0  0  0  0  0  0  0  0  0  0  0  0
    4.4816   -1.6705    0.3298 C   0  0  0  0  0  0  0  0  0  0  0  0
    4.6006   -0.1767    0.6535 C   0  0  0  0  0  0  0  0  0  0  0  0
    3.7781    0.7985   -0.2146 C   0  0  1  0  0  0  0  0  0  0  0  0
    4.2064    0.8107   -1.6976 C   0  0  0  0  0  0  0  0  0  0  0  0
    3.9081    2.0589   -2.3254 O   0  0  0  0  0  0  0  0  0  0  0  0
    2.3426    0.5461   -0.0437 N   0  0  0  0  0  0  0  0  0  0  0  0
    1.3505    1.3945   -0.4585 C   0  0  0  0  0  0  0  0  0  0  0  0
    1.5831    2.4355   -1.0679 O   0  0  0  0  0  0  0  0  0  0  0  0
   -0.0383    0.9632   -0.1344 C   0  0  0  0  0  0  0  0  0  0  0  0
   -1.0608    1.7408   -0.5218 C   0  0  0  0  0  0  0  0  0  0  0  0
   -2.3891    1.4870   -0.2906 N   0  0  0  0  0  0  0  0  0  0  0  0
   -2.8100    0.2830    0.3045 C   0  0  0  0  0  0  0  0  0  0  0  0
   -4.1765   -0.0096    0.5238 C   0  0  0  0  0  0  0  0  0  0  0  0
   -5.2803    0.9499    0.0872 C   0  0  0  0  0  0  0  0  0  0  0  0
   -6.4974    0.9843    1.0214 C   0  0  0  0  0  0  0  0  0  0  0  0
   -5.7200    0.6321   -1.3438 C   0  0  0  0  0  0  0  0  0  0  0  0
   -4.5074   -1.2391    1.1305 C   0  0  0  0  0  0  0  0  0  0  0  0
   -3.5236   -2.1314    1.5618 C   0  0  0  0  0  0  0  0  0  0  0  0
   -2.1810   -1.8184    1.3936 C   0  0  0  0  0  0  0  0  0  0  0  0
   -1.8275   -0.6176    0.7724 C   0  0  0  0  0  0  0  0  0  0  0  0
   -0.3872   -0.2914    0.5865 C   0  0  0  0  0  0  0  0  0  0  0  0
    0.4872   -1.0465    1.0096 O   0  0  0  0  0  0  0  0  0  0  0  0
    7.8620   -2.5720   -1.0417 H   0  0  0  0  0  0  0  0  0  0  0  0
    7.1830   -2.6915    0.5917 H   0  0  0  0  0  0  0  0  0  0  0  0
    7.4129   -1.0935   -0.1784 H   0  0  0  0  0  0  0  0  0  0  0  0
    4.7836   -2.2541    1.2067 H   0  0  0  0  0  0  0  0  0  0  0  0
    3.4416   -1.9419    0.1258 H   0  0  0  0  0  0  0  0  0  0  0  0
    4.2565   -0.0500    1.6898 H   0  0  0  0  0  0  0  0  0  0  0  0
    5.6508    0.1366    0.6550 H   0  0  0  0  0  0  0  0  0  0  0  0
    3.9413    1.8087    0.1849 H   0  0  0  0  0  0  0  0  0  0  0  0
    3.7079    0.0206   -2.2676 H   0  0  0  0  0  0  0  0  0  0  0  0
    5.2893    0.6862   -1.7877 H   0  0  0  0  0  0  0  0  0  0  0  0
    3.0144    2.3313   -2.0233 H   0  0  0  0  0  0  0  0  0  0  0  0
    2.0460   -0.2911    0.4607 H   0  0  0  0  0  0  0  0  0  0  0  0
   -0.8930    2.6677   -1.0676 H   0  0  0  0  0  0  0  0  0  0  0  0
   -3.0579    2.0148   -0.8401 H   0  0  0  0  0  0  0  0  0  0  0  0
   -4.8835    1.9718    0.1074 H   0  0  0  0  0  0  0  0  0  0  0  0
   -7.1703    1.8014    0.7374 H   0  0  0  0  0  0  0  0  0  0  0  0
   -6.1919    1.1497    2.0603 H   0  0  0  0  0  0  0  0  0  0  0  0
   -7.0803    0.0584    0.9787 H   0  0  0  0  0  0  0  0  0  0  0  0
   -4.8751    0.6819   -2.0395 H   0  0  0  0  0  0  0  0  0  0  0  0
   -6.1504   -0.3731   -1.4167 H   0  0  0  0  0  0  0  0  0  0  0  0
   -6.4754    1.3478   -1.6857 H   0  0  0  0  0  0  0  0  0  0  0  0
   -5.5467   -1.5240    1.2797 H   0  0  0  0  0  0  0  0  0  0  0  0
   -3.8089   -3.0687    2.0338 H   0  0  0  0  0  0  0  0  0  0  0  0
   -1.4161   -2.5096    1.7394 H   0  0  0  0  0  0  0  0  0  0  0  0
  1  2  1  0
  2  3  1  0
  3  4  1  0
  4  5  1  0
  5  6  1  0
  6  7  1  0
  5  8  1  0
  8  9  1  0
  9 10  2  0
  9 11  1  0
 11 12  2  0
 12 13  1  0
 13 14  1  0
 14 15  2  0
 15 16  1  0
 16 17  1  0
 16 18  1  0
 15 19  1  0
 19 20  2  0
 20 21  1  0
 21 22  2  0
 22 23  1  0
 23 24  2  0
 23 11  1  0
 22 14  1  0
  1 25  1  0
  1 26  1  0
  1 27  1  0
  3 28  1  0
  3 29  1  0
  4 30  1  0
  4 31  1  0
  5 32  1  1
  6 33  1  0
  6 34  1  0
  7 35  1  0
  8 36  1  0
 12 37  1  0
 13 38  1  0
 16 39  1  0
 17 40  1  0
 17 41  1  0
 17 42  1  0
 18 43  1  0
 18 44  1  0
 18 45  1  0
 19 46  1  0
 20 47  1  0
 21 48  1  0
M  END
$$$$
