
     RDKit          3D

 45 47  0  0  0  0  0  0  0  0999 V2000
    7.3798   -2.0890    1.2421 C   0  0  0  0  0  0  0  0  0  0  0  0
    7.0120   -0.7456    0.9573 O   0  0  0  0  0  0  0  0  0  0  0  0
    5.7151   -0.5254    0.5855 C   0  0  0  0  0  0  0  0  0  0  0  0
    4.7185   -1.4912    0.4674 C   0  0  0  0  0  0  0  0  0  0  0  0
    3.4250   -1.1222    0.0749 C   0  0  0  0  0  0  0  0  0  0  0  0
    3.1103    0.2131   -0.2062 C   0  0  0  0  0  0  0  0  0  0  0  0
    1.7827    0.4951   -0.5891 N   0  0  0  0  0  0  0  0  0  0  0  0
    1.2592    1.7188   -0.9653 C   0  0  0  0  0  0  0  0  0  0  0  0
    1.8659    2.7746   -1.0969 O   0  0  0  0  0  0  0  0  0  0  0  0
   -0.1984    1.7067   -1.2702 C   0  0  0  0  0  0  0  0  0  0  0  0
   -0.6771    2.5322   -2.2952 C   0  0  0  0  0  0  0  0  0  0  0  0
   -2.0378    2.5493   -2.6017 C   0  0  0  0  0  0  0  0  0  0  0  0
   -2.9209    1.7401   -1.8861 C   0  0  0  0  0  0  0  0  0  0  0  0
   -2.4465    0.9051   -0.8714 C   0  0  0  0  0  0  0  0  0  0  0  0
   -3.4088    0.1577   -0.1071 N   0  0  0  0  0  0  0  0  0  0  0  0
   -3.9662    0.8664    1.0756 C   0  0  0  0  0  0  0  0  0  0  0  0
   -4.9318   -0.0131    1.8762 C   0  0  0  0  0  0  0  0  0  0  0  0
   -5.6502   -1.0329    0.9983 C   0  0  0  0  0  0  0  0  0  0  0  0
   -4.7064   -2.1170    0.4874 C   0  0  0  0  0  0  0  0  0  0  0  0
   -3.0756   -1.4973    0.0921 S   0  0  0  0  0  6  0  0  0  0  0  0
   -2.2280   -1.6358    1.2596 O   0  0  0  0  0  0  0  0  0  0  0  0
   -2.6728   -2.0515   -1.1833 O   0  0  0  0  0  0  0  0  0  0  0  0
   -1.0907    0.9176   -0.5346 C   0  0  0  0  0  0  0  0  0  0  0  0
    4.1101    1.1758   -0.0832 C   0  0  0  0  0  0  0  0  0  0  0  0
    5.4022    0.8061    0.3090 C   0  0  0  0  0  0  0  0  0  0  0  0
    8.4389   -2.0946    1.5170 H   0  0  0  0  0  0  0  0  0  0  0  0
    7.2616   -2.7265    0.3597 H   0  0  0  0  0  0  0  0  0  0  0  0
    6.8130   -2.4815    2.0929 H   0  0  0  0  0  0  0  0  0  0  0  0
    4.9092   -2.5390    0.6724 H   0  0  0  0  0  0  0  0  0  0  0  0
    2.6687   -1.8992   -0.0067 H   0  0  0  0  0  0  0  0  0  0  0  0
    1.1676   -0.3075   -0.6456 H   0  0  0  0  0  0  0  0  0  0  0  0
    0.0120    3.1637   -2.8536 H   0  0  0  0  0  0  0  0  0  0  0  0
   -2.4078    3.1925   -3.3962 H   0  0  0  0  0  0  0  0  0  0  0  0
   -3.9803    1.7566   -2.1282 H   0  0  0  0  0  0  0  0  0  0  0  0
   -4.5227    1.7398    0.7122 H   0  0  0  0  0  0  0  0  0  0  0  0
   -3.1655    1.2341    1.7274 H   0  0  0  0  0  0  0  0  0  0  0  0
   -4.3861   -0.5356    2.6716 H   0  0  0  0  0  0  0  0  0  0  0  0
   -5.6633    0.6294    2.3802 H   0  0  0  0  0  0  0  0  0  0  0  0
   -6.4649   -1.5047    1.5594 H   0  0  0  0  0  0  0  0  0  0  0  0
   -6.1156   -0.5173    0.1488 H   0  0  0  0  0  0  0  0  0  0  0  0
   -5.1213   -2.5821   -0.4119 H   0  0  0  0  0  0  0  0  0  0  0  0
   -4.5678   -2.8944    1.2460 H   0  0  0  0  0  0  0  0  0  0  0  0
   -0.7372    0.3326    0.3095 H   0  0  0  0  0  0  0  0  0  0  0  0
    3.9216    2.2259   -0.2816 H   0  0  0  0  0  0  0  0  0  0  0  0
    6.1705    1.5704    0.3988 H   0  0  0  0  0  0  0  0  0  0  0  0
  1  2  1  0
  2  3  1  0
  3  4  2  0
  4  5  1  0
  5  6  2  0
  6  7  1  0
  7  8  1  0
  8  9  2  0
  8 10  1  0
 10 11  2  0
 11 12  1  0
 12 13  2  0
 13 14  1  0
 14 15  1  0
 15 16  1  0
 16 17  1  0
 17 18  1  0
 18 19  1  0
 19 20  1  0
 20 21  2  0
 20 22  2  0
 14 23  2  0
  6 24  1  0
 24 25  2  0
 25  3  1  0
 23 10  1  0
 20 15  1  0
  1 26  1  0
  1 27  1  0
  1 28  1  0
  4 29  1  0
  5 30  1  0
  7 31  1  0
 11 32  1  0
 12 33  1  0
 13 34  1  0
 16 35  1  0
 16 36  1  0
 17 37  1  0
 17 38  1  0
 18 39  1  0
 18 40  1  0
 19 41  1  0
 19 42  1  0
 23 43  1  0
 24 44  1  0
 25 45  1  0
M  END
$$$$
