
     RDKit          3D

 38 40  0  0  0  0  0  0  0  0999 V2000
   -3.8257   -0.4952   -1.4162 O   0  0  0  0  0  0  0  0  0  0  0  0
   -2.9982   -0.4494   -0.5120 C   0  0  0  0  0  0  0  0  0  0  0  0
   -1.6294   -0.5300   -0.6583 N   0  0  0  0  0  0  0  0  0  0  0  0
   -0.8707   -0.7055   -1.8434 C   0  0  0  0  0  0  0  0  0  0  0  0
   -1.4641   -0.9140   -3.0928 C   0  0  0  0  0  0  0  0  0  0  0  0
   -0.6814   -1.1353   -4.2307 C   0  0  0  0  0  0  0  0  0  0  0  0
    0.7065   -1.1596   -4.1371 C   0  0  0  0  0  0  0  0  0  0  0  0
    1.3207   -0.9373   -2.9062 C   0  0  0  0  0  0  0  0  0  0  0  0
    0.5431   -0.6839   -1.7619 C   0  0  0  0  0  0  0  0  0  0  0  0
    1.2177   -0.3778   -0.4584 C   0  0  0  0  0  0  0  0  0  0  0  0
    0.6592   -0.7374    0.5737 O   0  0  0  0  0  0  0  0  0  0  0  0
    2.3818    0.3584   -0.5611 N   0  0  0  0  0  0  0  0  0  0  0  0
    3.1821    0.7619    0.5183 C   0  0  0  0  0  0  0  0  0  0  0  0
    4.2855    1.5619    0.2299 C   0  0  0  0  0  0  0  0  0  0  0  0
    5.1124    1.9809    1.2713 C   0  0  0  0  0  0  0  0  0  0  0  0
    4.8182    1.5898    2.5697 C   0  0  0  0  0  0  0  0  0  0  0  0
    3.7052    0.7941    2.7683 C   0  0  0  0  0  0  0  0  0  0  0  0
    2.8917    0.3791    1.7734 N   0  0  0  0  0  0  0  0  0  0  0  0
   -3.4949   -0.3018    0.8907 C   0  0  0  0  0  0  0  0  0  0  0  0
   -2.7113    0.2128    1.9261 C   0  0  0  0  0  0  0  0  0  0  0  0
   -3.2788    0.3086    3.1855 C   0  0  0  0  0  0  0  0  0  0  0  0
   -4.5468   -0.0565    3.4704 N   0  0  0  0  0  0  0  0  0  0  0  0
   -5.2876   -0.5373    2.4501 C   0  0  0  0  0  0  0  0  0  0  0  0
   -4.8144   -0.6754    1.1585 C   0  0  0  0  0  0  0  0  0  0  0  0
   -1.0610   -0.5594    0.1901 H   0  0  0  0  0  0  0  0  0  0  0  0
   -2.5430   -0.9311   -3.2145 H   0  0  0  0  0  0  0  0  0  0  0  0
   -1.1670   -1.3078   -5.1888 H   0  0  0  0  0  0  0  0  0  0  0  0
    1.3061   -1.3588   -5.0221 H   0  0  0  0  0  0  0  0  0  0  0  0
    2.4045   -0.9914   -2.8500 H   0  0  0  0  0  0  0  0  0  0  0  0
    2.6509    0.7077   -1.4676 H   0  0  0  0  0  0  0  0  0  0  0  0
    4.5142    1.8657   -0.7855 H   0  0  0  0  0  0  0  0  0  0  0  0
    5.9775    2.6059    1.0689 H   0  0  0  0  0  0  0  0  0  0  0  0
    5.4382    1.8950    3.4050 H   0  0  0  0  0  0  0  0  0  0  0  0
    3.4255    0.4555    3.7618 H   0  0  0  0  0  0  0  0  0  0  0  0
   -1.6921    0.5533    1.7845 H   0  0  0  0  0  0  0  0  0  0  0  0
   -2.7102    0.6992    4.0253 H   0  0  0  0  0  0  0  0  0  0  0  0
   -6.3053   -0.8175    2.7066 H   0  0  0  0  0  0  0  0  0  0  0  0
   -5.4592   -1.0674    0.3784 H   0  0  0  0  0  0  0  0  0  0  0  0
  1  2  2  0
  2  3  1  0
  3  4  1  0
  4  5  2  0
  5  6  1  0
  6  7  2  0
  7  8  1  0
  8  9  2  0
  9 10  1  0
 10 11  2  0
 10 12  1  0
 12 13  1  0
 13 14  2  0
 14 15  1  0
 15 16  2  0
 16 17  1  0
 17 18  2  0
  2 19  1  0
 19 20  2  0
 20 21  1  0
 21 22  2  0
 22 23  1  0
 23 24  2  0
  9  4  1  0
 18 13  1  0
 24 19  1  0
  3 25  1  0
  5 26  1  0
  6 27  1  0
  7 28  1  0
  8 29  1  0
 12 30  1  0
 14 31  1  0
 15 32  1  0
 16 33  1  0
 17 34  1  0
 20 35  1  0
 21 36  1  0
 23 37  1  0
 24 38  1  0
M  END
$$$$
