
     RDKit          3D

 55 57  0  0  0  0  0  0  0  0999 V2000
    0.6859    0.0000    0.0000 Cl  0  0  0  0  0  0  0  0  0  0  0  0
   -2.2989    0.4007    1.2840 O   0  0  0  0  0  0  0  0  0  0  0  0
   -1.9317   -0.7000    1.7373 C   0  0  0  0  0  0  0  0  0  0  0  0
   -2.7502   -1.9121    1.7004 C   0  0  0  0  0  0  0  0  0  0  0  0
   -4.0621   -1.7278    1.0494 C   0  0  0  0  0  0  0  0  0  0  0  0
   -4.0560   -1.3016   -0.3649 C   0  0  0  0  0  0  0  0  0  0  0  0
   -4.2745   -0.0086   -0.7628 C   0  0  0  0  0  0  0  0  0  0  0  0
   -4.2246    0.3487   -2.1171 C   0  0  0  0  0  0  0  0  0  0  0  0
   -3.9578   -0.5701   -3.1069 C   0  0  0  0  0  0  0  0  0  0  0  0
   -3.7381   -1.8731   -2.7158 C   0  0  0  0  0  0  0  0  0  0  0  0
   -3.7857   -2.2271   -1.3876 C   0  0  0  0  0  0  0  0  0  0  0  0
   -0.6077   -0.6983    2.3172 N   0  0  0  0  0  0  0  0  0  0  0  0
    0.2584    0.4241    2.3915 C   0  0  0  0  0  0  0  0  0  0  0  0
    0.6801    1.0149    1.0524 C   0  0  0  0  0  0  0  0  0  0  0  0
    1.3932    0.0934    0.1809 C   0  0  0  0  0  0  0  0  0  0  0  0
    0.6285   -0.6408   -0.7415 C   0  0  0  0  0  0  0  0  0  0  0  0
    1.1757   -1.5430   -1.6194 C   0  0  0  0  0  0  0  0  0  0  0  0
    2.5382   -1.7491   -1.6070 C   0  0  0  0  0  0  0  0  0  0  0  0
    3.3206   -1.0473   -0.7163 C   0  0  0  0  0  0  0  0  0  0  0  0
    2.7342   -0.1464    0.1535 C   0  0  0  0  0  0  0  0  0  0  0  0
    4.6395   -1.4605   -0.9345 O   0  0  0  0  0  0  0  0  0  0  0  0
    4.6410   -2.6014   -1.7563 C   0  0  0  0  0  0  0  0  0  0  0  0
    3.3539   -2.5902   -2.3730 O   0  0  0  0  0  0  0  0  0  0  0  0
    1.1866    2.3010    1.2846 N   0  0  0  0  0  0  0  0  0  0  0  0
    2.2923    2.5246    2.1056 C   0  0  0  0  0  0  0  0  0  0  0  0
    3.3208    3.2169    1.2607 C   0  0  0  0  0  0  0  0  0  0  0  0
    2.7244    3.3329   -0.0921 C   0  0  0  0  0  0  0  0  0  0  0  0
    1.2351    3.1832    0.1574 C   0  0  0  0  0  0  0  0  0  0  0  0
   -0.6859    0.0000    0.0000 H   0  0  0  0  0  0  0  0  0  0  0  0
   -2.9669   -2.2333    2.7695 H   0  0  0  0  0  0  0  0  0  0  0  0
   -2.1847   -2.7952    1.2958 H   0  0  0  0  0  0  0  0  0  0  0  0
   -4.5869   -0.8905    1.6120 H   0  0  0  0  0  0  0  0  0  0  0  0
   -4.7507   -2.5962    1.1839 H   0  0  0  0  0  0  0  0  0  0  0  0
   -4.5173    0.7615   -0.0239 H   0  0  0  0  0  0  0  0  0  0  0  0
   -4.4015    1.3851   -2.4044 H   0  0  0  0  0  0  0  0  0  0  0  0
   -3.9166   -0.3057   -4.1538 H   0  0  0  0  0  0  0  0  0  0  0  0
   -3.5284   -2.5968   -3.4957 H   0  0  0  0  0  0  0  0  0  0  0  0
   -3.6169   -3.2407   -1.0588 H   0  0  0  0  0  0  0  0  0  0  0  0
   -0.3081   -1.6269    2.7008 H   0  0  0  0  0  0  0  0  0  0  0  0
   -0.2061    1.2639    2.9964 H   0  0  0  0  0  0  0  0  0  0  0  0
    1.1597    0.1323    2.9920 H   0  0  0  0  0  0  0  0  0  0  0  0
   -0.3358    1.2096    0.5471 H   0  0  0  0  0  0  0  0  0  0  0  0
   -0.4646   -0.5091   -0.7864 H   0  0  0  0  0  0  0  0  0  0  0  0
    0.5455   -2.0861   -2.3129 H   0  0  0  0  0  0  0  0  0  0  0  0
    3.3704    0.3844    0.8377 H   0  0  0  0  0  0  0  0  0  0  0  0
    5.4315   -2.5958   -2.5249 H   0  0  0  0  0  0  0  0  0  0  0  0
    4.7619   -3.5198   -1.1430 H   0  0  0  0  0  0  0  0  0  0  0  0
    1.9673    3.3063    2.8821 H   0  0  0  0  0  0  0  0  0  0  0  0
    2.7049    1.6519    2.6608 H   0  0  0  0  0  0  0  0  0  0  0  0
    4.2988    2.6699    1.2630 H   0  0  0  0  0  0  0  0  0  0  0  0
    3.5041    4.2553    1.6389 H   0  0  0  0  0  0  0  0  0  0  0  0
    3.0942    2.5672   -0.8062 H   0  0  0  0  0  0  0  0  0  0  0  0
    2.9719    4.3176   -0.5275 H   0  0  0  0  0  0  0  0  0  0  0  0
    0.8624    4.1778    0.4740 H   0  0  0  0  0  0  0  0  0  0  0  0
    0.6766    2.8706   -0.7184 H   0  0  0  0  0  0  0  0  0  0  0  0
  2  3  2  0
  3  4  1  0
  4  5  1  0
  5  6  1  0
  6  7  2  0
  7  8  1  0
  8  9  2  0
  9 10  1  0
 10 11  2  0
  3 12  1  0
 12 13  1  0
 13 14  1  0
 14 15  1  0
 15 16  2  0
 16 17  1  0
 17 18  2  0
 18 19  1  0
 19 20  2  0
 19 21  1  0
 21 22  1  0
 22 23  1  0
 14 24  1  0
 24 25  1  0
 25 26  1  0
 26 27  1  0
 27 28  1  0
 11  6  1  0
 20 15  1  0
 28 24  1  0
 23 18  1  0
  1 29  1  0
  4 30  1  0
  4 31  1  0
  5 32  1  0
  5 33  1  0
  7 34  1  0
  8 35  1  0
  9 36  1  0
 10 37  1  0
 11 38  1  0
 12 39  1  0
 13 40  1  0
 13 41  1  0
 14 42  1  0
 16 43  1  0
 17 44  1  0
 20 45  1  0
 22 46  1  0
 22 47  1  0
 25 48  1  0
 25 49  1  0
 26 50  1  0
 26 51  1  0
 27 52  1  0
 27 53  1  0
 28 54  1  0
 28 55  1  0
M  END
$$$$
