
     RDKit          3D

 57 60  0  0  0  0  0  0  0  0999 V2000
   -7.8367    1.6232   -2.1159 C   0  0  0  0  0  0  0  0  0  0  0  0
   -7.9513    0.3917   -1.4142 O   0  0  0  0  0  0  0  0  0  0  0  0
   -6.8652   -0.0114   -0.6886 C   0  0  0  0  0  0  0  0  0  0  0  0
   -7.0403   -1.2031    0.0145 C   0  0  0  0  0  0  0  0  0  0  0  0
   -6.0070   -1.7238    0.7972 C   0  0  0  0  0  0  0  0  0  0  0  0
   -4.7820   -1.0616    0.8888 C   0  0  0  0  0  0  0  0  0  0  0  0
   -3.8598   -1.6842    1.6821 O   0  0  0  0  0  0  0  0  0  0  0  0
   -2.5833   -1.0663    1.8681 C   0  0  0  0  0  0  0  0  0  0  0  0
   -1.6118   -1.4844    0.7477 C   0  0  0  0  0  0  0  0  0  0  0  0
   -0.3371   -0.7333    0.7361 N   0  0  0  0  0  0  0  0  0  0  0  0
    0.4989   -1.0766    1.8973 C   0  0  0  0  0  0  0  0  0  0  0  0
    1.7193   -0.1590    1.9786 C   0  0  0  0  0  0  0  0  0  0  0  0
    2.0760    0.2767    3.0748 O   0  0  0  0  0  0  0  0  0  0  0  0
    2.4044    0.0425    0.7638 N   0  0  0  0  0  0  0  0  0  0  0  0
    3.7119    0.6360    0.8166 C   0  0  0  0  0  0  0  0  0  0  0  0
    3.9219    1.8115    1.5468 C   0  0  0  0  0  0  0  0  0  0  0  0
    5.1795    2.4178    1.5807 C   0  0  0  0  0  0  0  0  0  0  0  0
    6.2520    1.8539    0.8897 C   0  0  0  0  0  0  0  0  0  0  0  0
    6.0693    0.6750    0.1711 C   0  0  0  0  0  0  0  0  0  0  0  0
    7.0296    0.0068   -0.5384 O   0  0  0  0  0  0  0  0  0  0  0  0
    8.3454    0.5469   -0.5038 C   0  0  0  0  0  0  0  0  0  0  0  0
    4.8039    0.0751    0.1400 C   0  0  0  0  0  0  0  0  0  0  0  0
    1.9760   -0.7051   -0.4422 C   0  0  2  0  0  0  0  0  0  0  0  0
    2.4212   -0.0580   -1.7721 C   0  0  0  0  0  0  0  0  0  0  0  0
    1.0694   -0.1985   -2.8933 S   0  0  0  0  0  6  0  0  0  0  0  0
    0.9981    0.9824   -3.7252 O   0  0  0  0  0  0  0  0  0  0  0  0
    1.0672   -1.5387   -3.4430 O   0  0  0  0  0  0  0  0  0  0  0  0
   -0.1616   -0.1067   -1.6380 C   0  0  0  0  0  0  0  0  0  0  0  0
    0.4155   -0.9645   -0.5133 C   0  0  2  0  0  0  0  0  0  0  0  0
   -4.6032    0.1276    0.1823 C   0  0  0  0  0  0  0  0  0  0  0  0
   -5.6412    0.6512   -0.6028 C   0  0  0  0  0  0  0  0  0  0  0  0
   -8.7899    1.8115   -2.6193 H   0  0  0  0  0  0  0  0  0  0  0  0
   -7.0587    1.5673   -2.8847 H   0  0  0  0  0  0  0  0  0  0  0  0
   -7.6534    2.4552   -1.4274 H   0  0  0  0  0  0  0  0  0  0  0  0
   -7.9879   -1.7315   -0.0458 H   0  0  0  0  0  0  0  0  0  0  0  0
   -6.1623   -2.6530    1.3398 H   0  0  0  0  0  0  0  0  0  0  0  0
   -2.2105   -1.4377    2.8291 H   0  0  0  0  0  0  0  0  0  0  0  0
   -2.6641    0.0211    1.9782 H   0  0  0  0  0  0  0  0  0  0  0  0
   -1.4287   -2.5656    0.8131 H   0  0  0  0  0  0  0  0  0  0  0  0
   -2.1280   -1.3403   -0.2077 H   0  0  0  0  0  0  0  0  0  0  0  0
   -0.0584   -0.9211    2.8270 H   0  0  0  0  0  0  0  0  0  0  0  0
    0.8390   -2.1190    1.8713 H   0  0  0  0  0  0  0  0  0  0  0  0
    3.1039    2.2849    2.0859 H   0  0  0  0  0  0  0  0  0  0  0  0
    5.3191    3.3346    2.1491 H   0  0  0  0  0  0  0  0  0  0  0  0
    7.2126    2.3556    0.9394 H   0  0  0  0  0  0  0  0  0  0  0  0
    8.7354    0.5755    0.5196 H   0  0  0  0  0  0  0  0  0  0  0  0
    8.9940   -0.1137   -1.0875 H   0  0  0  0  0  0  0  0  0  0  0  0
    8.3754    1.5389   -0.9675 H   0  0  0  0  0  0  0  0  0  0  0  0
    4.7118   -0.8669   -0.3918 H   0  0  0  0  0  0  0  0  0  0  0  0
    2.4493   -1.6928   -0.3462 H   0  0  0  0  0  0  0  0  0  0  0  0
    3.2853   -0.5565   -2.2177 H   0  0  0  0  0  0  0  0  0  0  0  0
    2.6264    1.0119   -1.6652 H   0  0  0  0  0  0  0  0  0  0  0  0
   -1.1062   -0.4811   -2.0386 H   0  0  0  0  0  0  0  0  0  0  0  0
   -0.2692    0.9432   -1.3467 H   0  0  0  0  0  0  0  0  0  0  0  0
    0.3130   -2.0216   -0.8036 H   0  0  0  0  0  0  0  0  0  0  0  0
   -3.6700    0.6794    0.2107 H   0  0  0  0  0  0  0  0  0  0  0  0
   -5.4570    1.5787   -1.1353 H   0  0  0  0  0  0  0  0  0  0  0  0
  1  2  1  0
  2  3  1  0
  3  4  2  0
  4  5  1  0
  5  6  2  0
  6  7  1  0
  7  8  1  0
  8  9  1  0
  9 10  1  0
 10 11  1  0
 11 12  1  0
 12 13  2  0
 12 14  1  0
 14 15  1  0
 15 16  2  0
 16 17  1  0
 17 18  2  0
 18 19  1  0
 19 20  1  0
 20 21  1  0
 19 22  2  0
 14 23  1  0
 23 24  1  0
 24 25  1  0
 25 26  2  0
 25 27  2  0
 25 28  1  0
 28 29  1  0
  6 30  1  0
 30 31  2  0
 31  3  1  0
 29 10  1  0
 22 15  1  0
 29 23  1  0
  1 32  1  0
  1 33  1  0
  1 34  1  0
  4 35  1  0
  5 36  1  0
  8 37  1  0
  8 38  1  0
  9 39  1  0
  9 40  1  0
 11 41  1  0
 11 42  1  0
 16 43  1  0
 17 44  1  0
 18 45  1  0
 21 46  1  0
 21 47  1  0
 21 48  1  0
 22 49  1  0
 23 50  1  1
 24 51  1  0
 24 52  1  0
 28 53  1  0
 28 54  1  0
 29 55  1  6
 30 56  1  0
 31 57  1  0
M  END
$$$$
