
     RDKit          3D

 32 33  0  0  0  0  0  0  0  0999 V2000
   -1.7635    3.6087   -1.2050 C   0  0  0  0  0  0  0  0  0  0  0  0
   -2.3715    2.3731   -0.8534 O   0  0  0  0  0  0  0  0  0  0  0  0
   -1.5472    1.2964   -0.7035 C   0  0  0  0  0  0  0  0  0  0  0  0
   -0.1658    1.2815   -0.9020 C   0  0  0  0  0  0  0  0  0  0  0  0
    0.5910    0.0958   -0.7182 C   0  0  0  0  0  0  0  0  0  0  0  0
    2.0905    0.1544   -0.9388 C   0  0  0  0  0  0  0  0  0  0  0  0
    2.8460    0.3417    0.3685 C   0  0  0  0  0  0  0  0  0  0  0  0
    3.1434   -0.7780    1.1081 N   0  0  0  0  0  0  0  0  0  0  0  0
    3.1469    1.5534    0.7369 N   0  0  0  0  0  0  0  0  0  0  0  0
    3.8016    1.5435    1.9801 O   0  0  0  0  0  0  0  0  0  0  0  0
   -0.0442   -1.0972   -0.3111 C   0  0  0  0  0  0  0  0  0  0  0  0
    0.7786   -2.1736   -0.1190 O   0  0  0  0  0  0  0  0  0  0  0  0
    0.1662   -3.4523    0.0004 C   0  0  0  0  0  0  0  0  0  0  0  0
   -1.4172   -1.0554   -0.1177 C   0  0  0  0  0  0  0  0  0  0  0  0
   -2.1394    0.1068   -0.3137 C   0  0  0  0  0  0  0  0  0  0  0  0
   -3.4723   -0.0610   -0.0664 O   0  0  0  0  0  0  0  0  0  0  0  0
   -3.5142   -1.4422    0.3135 C   0  0  0  0  0  0  0  0  0  0  0  0
   -2.2246   -2.0782    0.2879 O   0  0  0  0  0  0  0  0  0  0  0  0
   -1.2844    3.5468   -2.1876 H   0  0  0  0  0  0  0  0  0  0  0  0
   -2.5526    4.3642   -1.2669 H   0  0  0  0  0  0  0  0  0  0  0  0
   -1.0524    3.9322   -0.4375 H   0  0  0  0  0  0  0  0  0  0  0  0
    0.3641    2.1836   -1.1963 H   0  0  0  0  0  0  0  0  0  0  0  0
    2.4384   -0.7597   -1.4344 H   0  0  0  0  0  0  0  0  0  0  0  0
    2.3420    0.9793   -1.6170 H   0  0  0  0  0  0  0  0  0  0  0  0
    2.4501   -1.5190    1.0350 H   0  0  0  0  0  0  0  0  0  0  0  0
    3.3641   -0.5229    2.0660 H   0  0  0  0  0  0  0  0  0  0  0  0
    4.0151    2.4866    2.1047 H   0  0  0  0  0  0  0  0  0  0  0  0
    0.9623   -4.2026   -0.0339 H   0  0  0  0  0  0  0  0  0  0  0  0
   -0.5109   -3.6563   -0.8356 H   0  0  0  0  0  0  0  0  0  0  0  0
   -0.3359   -3.5552    0.9670 H   0  0  0  0  0  0  0  0  0  0  0  0
   -3.9218   -1.5174    1.3281 H   0  0  0  0  0  0  0  0  0  0  0  0
   -4.1823   -1.9770   -0.3712 H   0  0  0  0  0  0  0  0  0  0  0  0
  1  2  1  0
  2  3  1  0
  3  4  2  0
  4  5  1  0
  5  6  1  0
  6  7  1  0
  7  8  1  0
  7  9  2  0
  9 10  1  0
  5 11  2  0
 11 12  1  0
 12 13  1  0
 11 14  1  0
 14 15  2  0
 15 16  1  0
 16 17  1  0
 17 18  1  0
 15  3  1  0
 18 14  1  0
  1 19  1  0
  1 20  1  0
  1 21  1  0
  4 22  1  0
  6 23  1  0
  6 24  1  0
  8 25  1  0
  8 26  1  0
 10 27  1  0
 13 28  1  0
 13 29  1  0
 13 30  1  0
 17 31  1  0
 17 32  1  0
M  END
$$$$
