
     RDKit          3D

 38 41  0  0  0  0  0  0  0  0999 V2000
   -7.5191   -1.1120    0.2457 C   0  0  0  0  0  0  0  0  0  0  0  0
   -6.3935   -1.0453   -0.6214 O   0  0  0  0  0  0  0  0  0  0  0  0
   -5.2452   -0.5129   -0.1047 C   0  0  0  0  0  0  0  0  0  0  0  0
   -4.1753   -0.4536   -1.0025 C   0  0  0  0  0  0  0  0  0  0  0  0
   -2.9378    0.0670   -0.6112 C   0  0  0  0  0  0  0  0  0  0  0  0
   -2.7597    0.5267    0.6981 C   0  0  0  0  0  0  0  0  0  0  0  0
   -1.4653    1.0941    1.1748 C   0  0  0  0  0  0  0  0  0  0  0  0
   -1.4797    1.9422    2.0591 O   0  0  0  0  0  0  0  0  0  0  0  0
   -0.3321    0.5745    0.5845 N   0  0  0  0  0  0  0  0  0  0  0  0
    0.9855    0.9250    0.8110 C   0  0  0  0  0  0  0  0  0  0  0  0
    1.4469    1.8906    1.6195 C   0  0  0  0  0  0  0  0  0  0  0  0
    2.7695    2.2070    1.8121 N   0  0  0  0  0  0  0  0  0  0  0  0
    3.6195    1.5008    1.1493 C   0  0  0  0  0  0  0  0  0  0  0  0
    5.3519    1.7597    1.2700 S   0  0  0  0  0  0  0  0  0  0  0  0
    5.6544    0.4513    0.1158 C   0  0  0  0  0  0  0  0  0  0  0  0
    6.8864    0.0113   -0.3404 C   0  0  0  0  0  0  0  0  0  0  0  0
    6.9020   -1.0372   -1.2516 C   0  0  0  0  0  0  0  0  0  0  0  0
    8.0750   -1.4883   -1.7139 F   0  0  0  0  0  0  0  0  0  0  0  0
    5.7187   -1.6320   -1.6967 C   0  0  0  0  0  0  0  0  0  0  0  0
    4.4807   -1.1781   -1.2282 C   0  0  0  0  0  0  0  0  0  0  0  0
    4.4533   -0.1285   -0.3155 C   0  0  0  0  0  0  0  0  0  0  0  0
    3.3173    0.4743    0.2767 N   0  0  0  0  0  0  0  0  0  0  0  0
    2.0069    0.1268    0.0476 C   0  0  0  0  0  0  0  0  0  0  0  0
    1.6013   -0.7565   -0.7104 O   0  0  0  0  0  0  0  0  0  0  0  0
   -3.8359    0.4834    1.5934 C   0  0  0  0  0  0  0  0  0  0  0  0
   -5.0722   -0.0386    1.1954 C   0  0  0  0  0  0  0  0  0  0  0  0
   -7.3168   -1.7591    1.1056 H   0  0  0  0  0  0  0  0  0  0  0  0
   -7.8299   -0.1123    0.5667 H   0  0  0  0  0  0  0  0  0  0  0  0
   -8.3477   -1.5540   -0.3158 H   0  0  0  0  0  0  0  0  0  0  0  0
   -4.3124   -0.8087   -2.0219 H   0  0  0  0  0  0  0  0  0  0  0  0
   -2.1446    0.1281   -1.3506 H   0  0  0  0  0  0  0  0  0  0  0  0
   -0.4350   -0.2074   -0.0593 H   0  0  0  0  0  0  0  0  0  0  0  0
    0.7628    2.5084    2.1952 H   0  0  0  0  0  0  0  0  0  0  0  0
    7.8148    0.4602   -0.0065 H   0  0  0  0  0  0  0  0  0  0  0  0
    5.7703   -2.4504   -2.4100 H   0  0  0  0  0  0  0  0  0  0  0  0
    3.5758   -1.6571   -1.5887 H   0  0  0  0  0  0  0  0  0  0  0  0
   -3.7151    0.8563    2.6093 H   0  0  0  0  0  0  0  0  0  0  0  0
   -5.8757   -0.0557    1.9246 H   0  0  0  0  0  0  0  0  0  0  0  0
  1  2  1  0
  2  3  1  0
  3  4  2  0
  4  5  1  0
  5  6  2  0
  6  7  1  0
  7  8  2  0
  7  9  1  0
  9 10  1  0
 10 11  2  0
 11 12  1  0
 12 13  2  0
 13 14  1  0
 14 15  1  0
 15 16  2  0
 16 17  1  0
 17 18  1  0
 17 19  2  0
 19 20  1  0
 20 21  2  0
 21 22  1  0
 22 23  1  0
 23 24  2  0
  6 25  1  0
 25 26  2  0
 26  3  1  0
 23 10  1  0
 22 13  1  0
 21 15  1  0
  1 27  1  0
  1 28  1  0
  1 29  1  0
  4 30  1  0
  5 31  1  0
  9 32  1  0
 11 33  1  0
 16 34  1  0
 19 35  1  0
 20 36  1  0
 25 37  1  0
 26 38  1  0
M  END
$$$$
