
     RDKit          3D

 49 50  0  0  0  0  0  0  0  0999 V2000
    4.0816   -3.1463    0.8469 C   0  0  0  0  0  0  0  0  0  0  0  0
    3.5227   -1.9290    0.4747 O   0  0  0  0  0  0  0  0  0  0  0  0
    4.1700   -0.7437    0.2577 C   0  0  0  0  0  0  0  0  0  0  0  0
    5.5424   -0.7120    0.4181 C   0  0  0  0  0  0  0  0  0  0  0  0
    6.2210    0.4470    0.2119 C   0  0  0  0  0  0  0  0  0  0  0  0
    5.5846    1.6108   -0.1568 C   0  0  0  0  0  0  0  0  0  0  0  0
    4.2204    1.5888   -0.3186 C   0  0  0  0  0  0  0  0  0  0  0  0
    3.5091    0.3875   -0.1058 C   0  0  0  0  0  0  0  0  0  0  0  0
    2.0519    0.4578   -0.3052 C   0  0  0  0  0  0  0  0  0  0  0  0
    1.5645    1.5932   -0.6442 O   0  0  0  0  0  0  0  0  0  0  0  0
    1.1232   -0.5769   -0.1680 N   0  0  0  0  0  0  0  0  0  0  0  0
   -0.2842   -0.5557   -0.3442 C   0  0  0  0  0  0  0  0  0  0  0  0
   -1.1319    0.3045    0.5012 C   0  0  0  0  0  0  0  0  0  0  0  0
   -2.5615   -0.0298    0.0630 C   0  0  0  0  0  0  0  0  0  0  0  0
   -2.9529    0.1116   -1.2376 C   0  0  0  0  0  0  0  0  0  0  0  0
   -4.2674   -0.1958   -1.5417 C   0  0  0  0  0  0  0  0  0  0  0  0
   -5.1820   -0.6305   -0.6098 C   0  0  0  0  0  0  0  0  0  0  0  0
   -4.7658   -0.7685    0.7039 C   0  0  0  0  0  0  0  0  0  0  0  0
   -3.4562   -0.4634    1.0152 C   0  0  0  0  0  0  0  0  0  0  0  0
   -5.8775   -1.2166    1.4164 O   0  0  0  0  0  0  0  0  0  0  0  0
   -6.7367   -1.8701    0.4722 C   0  0  0  0  0  0  0  0  0  0  0  0
   -6.5339   -0.9993   -0.6499 O   0  0  0  0  0  0  0  0  0  0  0  0
   -1.0472    1.6827    0.4763 N   0  0  0  0  0  0  0  0  0  0  0  0
   -1.3862    2.4923   -0.5961 C   0  0  0  0  0  0  0  0  0  0  0  0
   -0.5802    2.3341    1.6656 C   0  0  0  0  0  0  0  0  0  0  0  0
    0.6843    0.0000    0.0000 Cl  0  0  0  0  0  0  0  0  0  0  0  0
    5.0447   -3.2880    0.3411 H   0  0  0  0  0  0  0  0  0  0  0  0
    4.2502   -3.1879    1.9592 H   0  0  0  0  0  0  0  0  0  0  0  0
    3.4252   -4.0217    0.5664 H   0  0  0  0  0  0  0  0  0  0  0  0
    6.1112   -1.6039    0.7115 H   0  0  0  0  0  0  0  0  0  0  0  0
    7.3091    0.5253    0.3259 H   0  0  0  0  0  0  0  0  0  0  0  0
    6.1277    2.5472   -0.3239 H   0  0  0  0  0  0  0  0  0  0  0  0
    3.7006    2.4981   -0.6099 H   0  0  0  0  0  0  0  0  0  0  0  0
    1.5170   -1.5392    0.1142 H   0  0  0  0  0  0  0  0  0  0  0  0
   -0.5071   -0.3001   -1.4274 H   0  0  0  0  0  0  0  0  0  0  0  0
   -0.6715   -1.6160   -0.2019 H   0  0  0  0  0  0  0  0  0  0  0  0
   -1.0622   -0.0673    1.5546 H   0  0  0  0  0  0  0  0  0  0  0  0
   -2.2924    0.4340   -2.0307 H   0  0  0  0  0  0  0  0  0  0  0  0
   -4.5919   -0.0869   -2.5696 H   0  0  0  0  0  0  0  0  0  0  0  0
   -3.1682   -0.5852    2.0625 H   0  0  0  0  0  0  0  0  0  0  0  0
   -6.2516   -2.8208    0.2150 H   0  0  0  0  0  0  0  0  0  0  0  0
   -7.7722   -1.9264    0.7958 H   0  0  0  0  0  0  0  0  0  0  0  0
   -0.8958    2.2038   -1.5237 H   0  0  0  0  0  0  0  0  0  0  0  0
   -2.5012    2.4509   -0.7881 H   0  0  0  0  0  0  0  0  0  0  0  0
   -1.2416    3.6020   -0.3870 H   0  0  0  0  0  0  0  0  0  0  0  0
    0.2224    3.0600    1.4153 H   0  0  0  0  0  0  0  0  0  0  0  0
   -0.1713    1.6364    2.3984 H   0  0  0  0  0  0  0  0  0  0  0  0
   -1.4091    2.9129    2.1204 H   0  0  0  0  0  0  0  0  0  0  0  0
   -0.6843    0.0000    0.0000 H   0  0  0  0  0  0  0  0  0  0  0  0
  1  2  1  0
  2  3  1  0
  3  4  2  0
  4  5  1  0
  5  6  2  0
  6  7  1  0
  7  8  2  0
  8  9  1  0
  9 10  2  0
  9 11  1  0
 11 12  1  0
 12 13  1  0
 13 14  1  0
 14 15  2  0
 15 16  1  0
 16 17  2  0
 17 18  1  0
 18 19  2  0
 18 20  1  0
 20 21  1  0
 21 22  1  0
 13 23  1  0
 23 24  1  0
 23 25  1  0
  8  3  1  0
 19 14  1  0
 22 17  1  0
  1 27  1  0
  1 28  1  0
  1 29  1  0
  4 30  1  0
  5 31  1  0
  6 32  1  0
  7 33  1  0
 11 34  1  0
 12 35  1  0
 12 36  1  0
 13 37  1  0
 15 38  1  0
 16 39  1  0
 19 40  1  0
 21 41  1  0
 21 42  1  0
 24 43  1  0
 24 44  1  0
 24 45  1  0
 25 46  1  0
 25 47  1  0
 25 48  1  0
 26 49  1  0
M  END
$$$$
