
     RDKit          3D

 32 34  0  0  0  0  0  0  0  0999 V2000
   -5.4496   -0.3325    0.0128 C   0  0  0  0  0  0  0  0  0  0  0  0
   -4.2344    0.3792   -0.3167 N   0  0  0  0  0  0  0  0  0  0  0  0
   -4.1841    1.6759   -0.7549 C   0  0  0  0  0  0  0  0  0  0  0  0
   -2.8639    1.9972   -0.9723 C   0  0  0  0  0  0  0  0  0  0  0  0
   -2.0808    0.8559   -0.6480 C   0  0  0  0  0  0  0  0  0  0  0  0
   -0.6971    0.5881   -0.6731 C   0  0  0  0  0  0  0  0  0  0  0  0
   -0.2365   -0.6783   -0.2770 C   0  0  0  0  0  0  0  0  0  0  0  0
    1.2172   -1.0061   -0.2795 C   0  0  0  0  0  0  0  0  0  0  0  0
    1.5593   -2.1407   -0.5899 O   0  0  0  0  0  0  0  0  0  0  0  0
    2.0457    0.0278    0.1210 N   0  0  0  0  0  0  0  0  0  0  0  0
    3.4563    0.0152    0.1810 C   0  0  0  0  0  0  0  0  0  0  0  0
    4.0871    1.1484    0.6963 C   0  0  0  0  0  0  0  0  0  0  0  0
    5.4715    1.1660    0.7624 C   0  0  0  0  0  0  0  0  0  0  0  0
    6.2542    0.1483    0.3536 N   0  0  0  0  0  0  0  0  0  0  0  0
    5.6209   -0.9353   -0.1434 C   0  0  0  0  0  0  0  0  0  0  0  0
    4.2433   -1.0475   -0.2502 C   0  0  0  0  0  0  0  0  0  0  0  0
   -1.1398   -1.6732    0.1067 C   0  0  0  0  0  0  0  0  0  0  0  0
   -2.5159   -1.4260    0.1364 C   0  0  0  0  0  0  0  0  0  0  0  0
   -2.9619   -0.1504   -0.2419 C   0  0  0  0  0  0  0  0  0  0  0  0
   -5.5325   -1.1989   -0.6483 H   0  0  0  0  0  0  0  0  0  0  0  0
   -5.3938   -0.6459    1.0583 H   0  0  0  0  0  0  0  0  0  0  0  0
   -6.3103    0.3258   -0.1303 H   0  0  0  0  0  0  0  0  0  0  0  0
   -5.0836    2.2642   -0.8821 H   0  0  0  0  0  0  0  0  0  0  0  0
   -2.5004    2.9524   -1.3278 H   0  0  0  0  0  0  0  0  0  0  0  0
   -0.0146    1.3544   -1.0254 H   0  0  0  0  0  0  0  0  0  0  0  0
    1.5960    0.8631    0.4731 H   0  0  0  0  0  0  0  0  0  0  0  0
    3.5278    2.0081    1.0460 H   0  0  0  0  0  0  0  0  0  0  0  0
    6.0023    2.0271    1.1583 H   0  0  0  0  0  0  0  0  0  0  0  0
    6.2701   -1.7436   -0.4684 H   0  0  0  0  0  0  0  0  0  0  0  0
    3.8270   -1.9553   -0.6683 H   0  0  0  0  0  0  0  0  0  0  0  0
   -0.7713   -2.6583    0.3898 H   0  0  0  0  0  0  0  0  0  0  0  0
   -3.2081   -2.2055    0.4388 H   0  0  0  0  0  0  0  0  0  0  0  0
  1  2  1  0
  2  3  1  0
  3  4  2  0
  4  5  1  0
  5  6  2  0
  6  7  1  0
  7  8  1  0
  8  9  2  0
  8 10  1  0
 10 11  1  0
 11 12  2  0
 12 13  1  0
 13 14  2  0
 14 15  1  0
 15 16  2  0
  7 17  2  0
 17 18  1  0
 18 19  2  0
 19  2  1  0
 19  5  1  0
 16 11  1  0
  1 20  1  0
  1 21  1  0
  1 22  1  0
  3 23  1  0
  4 24  1  0
  6 25  1  0
 10 26  1  0
 12 27  1  0
 13 28  1  0
 15 29  1  0
 16 30  1  0
 17 31  1  0
 18 32  1  0
M  END
$$$$
