
     RDKit          3D

 47 49  0  0  0  0  0  0  0  0999 V2000
    1.5559    1.0944   -1.7992 O   0  0  0  0  0  0  0  0  0  0  0  0
    1.7487    0.8981   -0.6019 C   0  0  0  0  0  0  0  0  0  0  0  0
    0.6264    1.1425    0.3914 C   0  0  0  0  0  0  0  0  0  0  0  0
    0.0802   -0.1924    0.9253 C   0  0  0  0  0  0  0  0  0  0  0  0
    0.7309   -0.3754    2.3088 C   0  0  0  0  0  0  0  0  0  0  0  0
    1.9541   -0.4980    2.4083 O   0  0  0  0  0  0  0  0  0  0  0  0
   -0.0248   -0.2545    3.4240 O   0  0  0  0  0  0  0  0  0  0  0  0
   -1.4566   -0.2839    3.3469 C   0  0  0  0  0  0  0  0  0  0  0  0
   -1.9956    0.3658    2.0816 C   0  0  0  0  0  0  0  0  0  0  0  0
   -1.3953   -0.3268    0.9556 N   0  0  0  0  0  0  0  0  0  0  0  0
   -2.0683   -0.2252   -0.3532 C   0  0  0  0  0  0  0  0  0  0  0  0
   -3.0043   -1.4477   -0.5335 C   0  0  0  0  0  0  0  0  0  0  0  0
   -4.4804   -1.1045   -0.3751 C   0  0  0  0  0  0  0  0  0  0  0  0
   -4.9325   -0.0348   -1.3737 C   0  0  0  0  0  0  0  0  0  0  0  0
   -3.8194    0.9314   -1.7761 C   0  0  0  0  0  0  0  0  0  0  0  0
   -2.8004    1.1066   -0.6546 C   0  0  0  0  0  0  0  0  0  0  0  0
    2.9162    0.4503   -0.0147 N   0  0  0  0  0  0  0  0  0  0  0  0
    4.1300    0.1240   -0.6527 C   0  0  0  0  0  0  0  0  0  0  0  0
    4.3649    0.2793   -2.0216 C   0  0  0  0  0  0  0  0  0  0  0  0
    5.5976   -0.0811   -2.5739 C   0  0  0  0  0  0  0  0  0  0  0  0
    6.6061   -0.5954   -1.7607 C   0  0  0  0  0  0  0  0  0  0  0  0
    6.3849   -0.7445   -0.3929 C   0  0  0  0  0  0  0  0  0  0  0  0
    5.1520   -0.3879    0.1563 C   0  0  0  0  0  0  0  0  0  0  0  0
   -0.1322    1.7245   -0.1336 H   0  0  0  0  0  0  0  0  0  0  0  0
    0.9959    1.7984    1.1898 H   0  0  0  0  0  0  0  0  0  0  0  0
    0.4475   -1.0365    0.3257 H   0  0  0  0  0  0  0  0  0  0  0  0
   -1.7780   -1.3279    3.4339 H   0  0  0  0  0  0  0  0  0  0  0  0
   -1.8395    0.2501    4.2233 H   0  0  0  0  0  0  0  0  0  0  0  0
   -3.0847    0.2590    2.0922 H   0  0  0  0  0  0  0  0  0  0  0  0
   -1.7513    1.4339    2.0630 H   0  0  0  0  0  0  0  0  0  0  0  0
   -1.3041   -0.3473   -1.1348 H   0  0  0  0  0  0  0  0  0  0  0  0
   -2.8504   -1.8596   -1.5417 H   0  0  0  0  0  0  0  0  0  0  0  0
   -2.7368   -2.2603    0.1553 H   0  0  0  0  0  0  0  0  0  0  0  0
   -4.6642   -0.7514    0.6489 H   0  0  0  0  0  0  0  0  0  0  0  0
   -5.0929   -2.0054   -0.5049 H   0  0  0  0  0  0  0  0  0  0  0  0
   -5.7672    0.5259   -0.9314 H   0  0  0  0  0  0  0  0  0  0  0  0
   -5.3302   -0.5099   -2.2800 H   0  0  0  0  0  0  0  0  0  0  0  0
   -4.2569    1.9003   -2.0478 H   0  0  0  0  0  0  0  0  0  0  0  0
   -3.3119    0.5557   -2.6736 H   0  0  0  0  0  0  0  0  0  0  0  0
   -2.0806    1.8784   -0.9460 H   0  0  0  0  0  0  0  0  0  0  0  0
   -3.3312    1.4940    0.2222 H   0  0  0  0  0  0  0  0  0  0  0  0
    2.8939    0.2660    0.9899 H   0  0  0  0  0  0  0  0  0  0  0  0
    3.6092    0.6740   -2.6913 H   0  0  0  0  0  0  0  0  0  0  0  0
    5.7653    0.0363   -3.6438 H   0  0  0  0  0  0  0  0  0  0  0  0
    7.5614   -0.8757   -2.1935 H   0  0  0  0  0  0  0  0  0  0  0  0
    7.1689   -1.1376    0.2470 H   0  0  0  0  0  0  0  0  0  0  0  0
    4.9997   -0.5252    1.2252 H   0  0  0  0  0  0  0  0  0  0  0  0
  1  2  2  0
  2  3  1  0
  3  4  1  0
  4  5  1  0
  5  6  2  0
  5  7  1  0
  7  8  1  0
  8  9  1  0
  9 10  1  0
 10 11  1  0
 11 12  1  0
 12 13  1  0
 13 14  1  0
 14 15  1  0
 15 16  1  0
  2 17  1  0
 17 18  1  0
 18 19  2  0
 19 20  1  0
 20 21  2  0
 21 22  1  0
 22 23  2  0
 10  4  1  0
 16 11  1  0
 23 18  1  0
  3 24  1  0
  3 25  1  0
  4 26  1  0
  8 27  1  0
  8 28  1  0
  9 29  1  0
  9 30  1  0
 11 31  1  0
 12 32  1  0
 12 33  1  0
 13 34  1  0
 13 35  1  0
 14 36  1  0
 14 37  1  0
 15 38  1  0
 15 39  1  0
 16 40  1  0
 16 41  1  0
 17 42  1  0
 19 43  1  0
 20 44  1  0
 21 45  1  0
 22 46  1  0
 23 47  1  0
M  END
$$$$
