
     RDKit          3D

 46 48  0  0  0  0  0  0  0  0999 V2000
    7.2771    2.4763   -0.5437 C   0  0  0  0  0  0  0  0  0  0  0  0
    6.9607    1.0042   -0.5921 C   0  0  0  0  0  0  0  0  0  0  0  0
    7.8364    0.1756   -0.8320 O   0  0  0  0  0  0  0  0  0  0  0  0
    5.5578    0.5581   -0.3400 C   0  0  0  0  0  0  0  0  0  0  0  0
    5.2617   -0.8064   -0.4301 C   0  0  0  0  0  0  0  0  0  0  0  0
    3.9602   -1.2726   -0.2031 C   0  0  0  0  0  0  0  0  0  0  0  0
    2.9360   -0.3835    0.1215 C   0  0  0  0  0  0  0  0  0  0  0  0
    1.5987   -0.7658    0.3624 N   0  0  0  0  0  0  0  0  0  0  0  0
    1.0804   -2.0500    0.3664 C   0  0  0  0  0  0  0  0  0  0  0  0
    1.7176   -3.0878    0.2259 O   0  0  0  0  0  0  0  0  0  0  0  0
   -0.3922   -2.1592    0.6083 C   0  0  0  0  0  0  0  0  0  0  0  0
   -0.8836   -3.3550    1.1516 C   0  0  0  0  0  0  0  0  0  0  0  0
   -2.2461   -3.5088    1.4067 C   0  0  0  0  0  0  0  0  0  0  0  0
   -3.1282   -2.4714    1.1086 C   0  0  0  0  0  0  0  0  0  0  0  0
   -2.6593   -1.2912    0.5252 C   0  0  0  0  0  0  0  0  0  0  0  0
   -3.6016   -0.2169    0.3351 N   0  0  0  0  0  0  0  0  0  0  0  0
   -3.9059    0.5801    1.5549 C   0  0  0  0  0  0  0  0  0  0  0  0
   -4.8751    1.7321    1.2722 C   0  0  0  0  0  0  0  0  0  0  0  0
   -5.8377    1.4110    0.1339 C   0  0  0  0  0  0  0  0  0  0  0  0
   -5.1307    1.3564   -1.2163 C   0  0  0  0  0  0  0  0  0  0  0  0
   -3.4888    0.6531   -1.1206 S   0  0  0  0  0  6  0  0  0  0  0  0
   -2.5344    1.7240   -0.9081 O   0  0  0  0  0  0  0  0  0  0  0  0
   -3.3300   -0.2788   -2.2158 O   0  0  0  0  0  0  0  0  0  0  0  0
   -1.2880   -1.1268    0.2965 C   0  0  0  0  0  0  0  0  0  0  0  0
    3.2343    0.9828    0.2092 C   0  0  0  0  0  0  0  0  0  0  0  0
    4.5341    1.4536   -0.0185 C   0  0  0  0  0  0  0  0  0  0  0  0
    6.6827    3.0172   -1.2846 H   0  0  0  0  0  0  0  0  0  0  0  0
    8.3340    2.6247   -0.7864 H   0  0  0  0  0  0  0  0  0  0  0  0
    7.1009    2.8682    0.4613 H   0  0  0  0  0  0  0  0  0  0  0  0
    6.0419   -1.5235   -0.6811 H   0  0  0  0  0  0  0  0  0  0  0  0
    3.7852   -2.3404   -0.2926 H   0  0  0  0  0  0  0  0  0  0  0  0
    0.9723   -0.0087    0.5966 H   0  0  0  0  0  0  0  0  0  0  0  0
   -0.2006   -4.1718    1.3817 H   0  0  0  0  0  0  0  0  0  0  0  0
   -2.6173   -4.4365    1.8352 H   0  0  0  0  0  0  0  0  0  0  0  0
   -4.1884   -2.5954    1.3136 H   0  0  0  0  0  0  0  0  0  0  0  0
   -4.3791   -0.0870    2.2865 H   0  0  0  0  0  0  0  0  0  0  0  0
   -2.9855    0.9658    2.0082 H   0  0  0  0  0  0  0  0  0  0  0  0
   -4.3120    2.6421    1.0302 H   0  0  0  0  0  0  0  0  0  0  0  0
   -5.4370    1.9563    2.1865 H   0  0  0  0  0  0  0  0  0  0  0  0
   -6.3288    0.4503    0.3334 H   0  0  0  0  0  0  0  0  0  0  0  0
   -6.6334    2.1634    0.0901 H   0  0  0  0  0  0  0  0  0  0  0  0
   -5.0131    2.3636   -1.6295 H   0  0  0  0  0  0  0  0  0  0  0  0
   -5.7163    0.7599   -1.9223 H   0  0  0  0  0  0  0  0  0  0  0  0
   -0.9324   -0.2072   -0.1549 H   0  0  0  0  0  0  0  0  0  0  0  0
    2.4585    1.7047    0.4538 H   0  0  0  0  0  0  0  0  0  0  0  0
    4.7149    2.5212    0.0619 H   0  0  0  0  0  0  0  0  0  0  0  0
  1  2  1  0
  2  3  2  0
  2  4  1  0
  4  5  2  0
  5  6  1  0
  6  7  2  0
  7  8  1  0
  8  9  1  0
  9 10  2  0
  9 11  1  0
 11 12  2  0
 12 13  1  0
 13 14  2  0
 14 15  1  0
 15 16  1  0
 16 17  1  0
 17 18  1  0
 18 19  1  0
 19 20  1  0
 20 21  1  0
 21 22  2  0
 21 23  2  0
 15 24  2  0
  7 25  1  0
 25 26  2  0
 26  4  1  0
 24 11  1  0
 21 16  1  0
  1 27  1  0
  1 28  1  0
  1 29  1  0
  5 30  1  0
  6 31  1  0
  8 32  1  0
 12 33  1  0
 13 34  1  0
 14 35  1  0
 17 36  1  0
 17 37  1  0
 18 38  1  0
 18 39  1  0
 19 40  1  0
 19 41  1  0
 20 42  1  0
 20 43  1  0
 24 44  1  0
 25 45  1  0
 26 46  1  0
M  END
$$$$
