
     RDKit          3D

 41 43  0  0  0  0  0  0  0  0999 V2000
    2.9319   -2.3815    0.0840 O   0  0  0  0  0  0  0  0  0  0  0  0
    2.1865   -1.4766   -0.2692 C   0  0  0  0  0  0  0  0  0  0  0  0
    2.5213   -0.1517   -0.4851 N   0  0  0  0  0  0  0  0  0  0  0  0
    3.7749    0.4591   -0.2771 C   0  0  0  0  0  0  0  0  0  0  0  0
    4.8819   -0.1966    0.2699 C   0  0  0  0  0  0  0  0  0  0  0  0
    6.0902    0.4847    0.4493 C   0  0  0  0  0  0  0  0  0  0  0  0
    6.1887    1.8203    0.0838 C   0  0  0  0  0  0  0  0  0  0  0  0
    7.3462    2.4712    0.2575 F   0  0  0  0  0  0  0  0  0  0  0  0
    5.1006    2.4905   -0.4580 C   0  0  0  0  0  0  0  0  0  0  0  0
    3.8936    1.8101   -0.6374 C   0  0  0  0  0  0  0  0  0  0  0  0
    0.7612   -1.8062   -0.5392 C   0  0  0  0  0  0  0  0  0  0  0  0
    0.4530   -3.0325   -1.1402 C   0  0  0  0  0  0  0  0  0  0  0  0
   -0.8731   -3.3517   -1.4348 C   0  0  0  0  0  0  0  0  0  0  0  0
   -1.8919   -2.4513   -1.1202 C   0  0  0  0  0  0  0  0  0  0  0  0
   -1.5881   -1.2430   -0.4916 C   0  0  0  0  0  0  0  0  0  0  0  0
   -2.6680   -0.3434   -0.1940 N   0  0  0  0  0  0  0  0  0  0  0  0
   -2.8876   -0.0302    1.2345 C   0  0  0  0  0  0  0  0  0  0  0  0
   -4.3624    0.3227    1.4485 C   0  0  0  0  0  0  0  0  0  0  0  0
   -5.0618    0.9249    0.2230 C   0  0  0  0  0  0  0  0  0  0  0  0
   -4.1679    1.8715   -0.5614 C   0  0  0  0  0  0  0  0  0  0  0  0
   -2.7232    1.0339   -1.2144 S   0  0  0  0  0  6  0  0  0  0  0  0
   -1.5622    1.8532   -0.9228 O   0  0  0  0  0  0  0  0  0  0  0  0
   -3.0030    0.5854   -2.5611 O   0  0  0  0  0  0  0  0  0  0  0  0
   -0.2636   -0.9194   -0.1918 C   0  0  0  0  0  0  0  0  0  0  0  0
    1.8102    0.4409   -0.8985 H   0  0  0  0  0  0  0  0  0  0  0  0
    4.8374   -1.2389    0.5697 H   0  0  0  0  0  0  0  0  0  0  0  0
    6.9506   -0.0238    0.8725 H   0  0  0  0  0  0  0  0  0  0  0  0
    5.1967    3.5347   -0.7374 H   0  0  0  0  0  0  0  0  0  0  0  0
    3.0510    2.3497   -1.0631 H   0  0  0  0  0  0  0  0  0  0  0  0
    1.2480   -3.7324   -1.3918 H   0  0  0  0  0  0  0  0  0  0  0  0
   -1.1111   -4.2964   -1.9177 H   0  0  0  0  0  0  0  0  0  0  0  0
   -2.9223   -2.6931   -1.3680 H   0  0  0  0  0  0  0  0  0  0  0  0
   -2.2438    0.8016    1.5451 H   0  0  0  0  0  0  0  0  0  0  0  0
   -2.6275   -0.8852    1.8700 H   0  0  0  0  0  0  0  0  0  0  0  0
   -4.4369    1.0140    2.2967 H   0  0  0  0  0  0  0  0  0  0  0  0
   -4.9126   -0.5793    1.7446 H   0  0  0  0  0  0  0  0  0  0  0  0
   -5.9671    1.4500    0.5482 H   0  0  0  0  0  0  0  0  0  0  0  0
   -5.3928    0.1113   -0.4352 H   0  0  0  0  0  0  0  0  0  0  0  0
   -4.7050    2.3033   -1.4109 H   0  0  0  0  0  0  0  0  0  0  0  0
   -3.8150    2.6840    0.0819 H   0  0  0  0  0  0  0  0  0  0  0  0
   -0.0369    0.0164    0.3103 H   0  0  0  0  0  0  0  0  0  0  0  0
  1  2  2  0
  2  3  1  0
  3  4  1  0
  4  5  2  0
  5  6  1  0
  6  7  2  0
  7  8  1  0
  7  9  1  0
  9 10  2  0
  2 11  1  0
 11 12  2  0
 12 13  1  0
 13 14  2  0
 14 15  1  0
 15 16  1  0
 16 17  1  0
 17 18  1  0
 18 19  1  0
 19 20  1  0
 20 21  1  0
 21 22  2  0
 21 23  2  0
 15 24  2  0
 10  4  1  0
 24 11  1  0
 21 16  1  0
  3 25  1  0
  5 26  1  0
  6 27  1  0
  9 28  1  0
 10 29  1  0
 12 30  1  0
 13 31  1  0
 14 32  1  0
 17 33  1  0
 17 34  1  0
 18 35  1  0
 18 36  1  0
 19 37  1  0
 19 38  1  0
 20 39  1  0
 20 40  1  0
 24 41  1  0
M  END
$$$$
