
     RDKit          3D

 63 66  0  0  0  0  0  0  0  0999 V2000
   -4.4786   -4.9606   -0.7742 C   0  0  0  0  0  0  0  0  0  0  0  0
   -3.4467   -4.4930    0.2406 C   0  0  0  0  0  0  0  0  0  0  0  0
   -3.1448   -3.0686    0.0946 N   0  0  0  0  0  0  0  0  0  0  0  0
   -2.1380   -2.6792   -0.7718 C   0  0  0  0  0  0  0  0  0  0  0  0
   -1.8226   -1.3913   -0.9736 C   0  0  0  0  0  0  0  0  0  0  0  0
   -0.7080   -1.1247   -1.9183 C   0  0  0  0  0  0  0  0  0  0  0  0
   -0.9654   -0.8142   -3.0782 O   0  0  0  0  0  0  0  0  0  0  0  0
    0.5831   -1.2452   -1.4190 N   0  0  0  0  0  0  0  0  0  0  0  0
    1.6775   -0.8264   -2.3078 C   0  0  0  0  0  0  0  0  0  0  0  0
    3.0241   -1.4809   -1.9507 C   0  0  0  0  0  0  0  0  0  0  0  0
    3.3379   -1.2849   -0.5146 N   0  0  0  0  0  0  0  0  0  0  0  0
    4.0470   -0.1375   -0.1611 C   0  0  0  0  0  0  0  0  0  0  0  0
    5.2079    0.2234   -0.8656 C   0  0  0  0  0  0  0  0  0  0  0  0
    5.9609    1.3575   -0.5344 C   0  0  0  0  0  0  0  0  0  0  0  0
    5.5815    2.1687    0.5351 C   0  0  0  0  0  0  0  0  0  0  0  0
    6.4148    3.3643    0.8586 C   0  0  0  0  0  0  0  0  0  0  0  0
    6.0531    4.2041    2.0559 C   0  0  0  0  0  0  0  0  0  0  0  0
    7.3786    3.6490    0.1510 O   0  0  0  0  0  0  0  0  0  0  0  0
    4.4455    1.8239    1.2668 C   0  0  0  0  0  0  0  0  0  0  0  0
    3.7004    0.6833    0.9233 C   0  0  0  0  0  0  0  0  0  0  0  0
    2.2729   -1.8239    0.3532 C   0  0  0  0  0  0  0  0  0  0  0  0
    0.9002   -1.2070    0.0218 C   0  0  0  0  0  0  0  0  0  0  0  0
   -2.5902   -0.3374   -0.3009 C   0  0  0  0  0  0  0  0  0  0  0  0
   -2.3206    1.0246   -0.4989 C   0  0  0  0  0  0  0  0  0  0  0  0
   -3.0581    2.0059    0.1765 C   0  0  0  0  0  0  0  0  0  0  0  0
   -2.8409    3.3553    0.0452 O   0  0  0  0  0  0  0  0  0  0  0  0
   -2.0509    3.7883   -1.0549 C   0  0  0  0  0  0  0  0  0  0  0  0
   -4.0770    1.6260    1.0731 C   0  0  0  0  0  0  0  0  0  0  0  0
   -4.7380    2.6496    1.7041 O   0  0  0  0  0  0  0  0  0  0  0  0
   -5.7994    2.3073    2.5851 C   0  0  0  0  0  0  0  0  0  0  0  0
   -4.3555    0.2711    1.2639 C   0  0  0  0  0  0  0  0  0  0  0  0
   -3.6171   -0.7029    0.5782 C   0  0  0  0  0  0  0  0  0  0  0  0
   -3.9304   -2.1440    0.7931 C   0  0  0  0  0  0  0  0  0  0  0  0
   -4.8389   -2.4594    1.5566 O   0  0  0  0  0  0  0  0  0  0  0  0
   -4.6936   -6.0248   -0.6359 H   0  0  0  0  0  0  0  0  0  0  0  0
   -4.1174   -4.8155   -1.7975 H   0  0  0  0  0  0  0  0  0  0  0  0
   -5.4158   -4.4050   -0.6685 H   0  0  0  0  0  0  0  0  0  0  0  0
   -2.5210   -5.0713    0.1358 H   0  0  0  0  0  0  0  0  0  0  0  0
   -3.8243   -4.6785    1.2524 H   0  0  0  0  0  0  0  0  0  0  0  0
   -1.6028   -3.4763   -1.2835 H   0  0  0  0  0  0  0  0  0  0  0  0
    1.7524    0.2652   -2.2303 H   0  0  0  0  0  0  0  0  0  0  0  0
    1.4252   -1.0661   -3.3465 H   0  0  0  0  0  0  0  0  0  0  0  0
    3.8031   -1.1094   -2.6228 H   0  0  0  0  0  0  0  0  0  0  0  0
    2.9542   -2.5605   -2.1361 H   0  0  0  0  0  0  0  0  0  0  0  0
    5.5780   -0.4027   -1.6737 H   0  0  0  0  0  0  0  0  0  0  0  0
    6.8540    1.5885   -1.1124 H   0  0  0  0  0  0  0  0  0  0  0  0
    6.7977    4.9976    2.1754 H   0  0  0  0  0  0  0  0  0  0  0  0
    6.0637    3.5950    2.9641 H   0  0  0  0  0  0  0  0  0  0  0  0
    5.0761    4.6718    1.9092 H   0  0  0  0  0  0  0  0  0  0  0  0
    4.1105    2.4171    2.1130 H   0  0  0  0  0  0  0  0  0  0  0  0
    2.8289    0.4689    1.5339 H   0  0  0  0  0  0  0  0  0  0  0  0
    2.5101   -1.7160    1.4173 H   0  0  0  0  0  0  0  0  0  0  0  0
    2.2161   -2.9057    0.1743 H   0  0  0  0  0  0  0  0  0  0  0  0
    0.1343   -1.7285    0.6016 H   0  0  0  0  0  0  0  0  0  0  0  0
    0.8682   -0.1523    0.3181 H   0  0  0  0  0  0  0  0  0  0  0  0
   -1.5283    1.3111   -1.1836 H   0  0  0  0  0  0  0  0  0  0  0  0
   -2.4388    3.4019   -2.0035 H   0  0  0  0  0  0  0  0  0  0  0  0
   -2.1030    4.8803   -1.0942 H   0  0  0  0  0  0  0  0  0  0  0  0
   -1.0012    3.5115   -0.9138 H   0  0  0  0  0  0  0  0  0  0  0  0
   -6.5997    1.7830    2.0540 H   0  0  0  0  0  0  0  0  0  0  0  0
   -5.4342    1.7203    3.4334 H   0  0  0  0  0  0  0  0  0  0  0  0
   -6.2179    3.2369    2.9816 H   0  0  0  0  0  0  0  0  0  0  0  0
   -5.1393   -0.0576    1.9394 H   0  0  0  0  0  0  0  0  0  0  0  0
  1  2  1  0
  2  3  1  0
  3  4  1  0
  4  5  2  0
  5  6  1  0
  6  7  2  0
  6  8  1  0
  8  9  1  0
  9 10  1  0
 10 11  1  0
 11 12  1  0
 12 13  2  0
 13 14  1  0
 14 15  2  0
 15 16  1  0
 16 17  1  0
 16 18  2  0
 15 19  1  0
 19 20  2  0
 11 21  1  0
 21 22  1  0
  5 23  1  0
 23 24  2  0
 24 25  1  0
 25 26  1  0
 26 27  1  0
 25 28  2  0
 28 29  1  0
 29 30  1  0
 28 31  1  0
 31 32  2  0
 32 33  1  0
 33 34  2  0
 33  3  1  0
 22  8  1  0
 32 23  1  0
 20 12  1  0
  1 35  1  0
  1 36  1  0
  1 37  1  0
  2 38  1  0
  2 39  1  0
  4 40  1  0
  9 41  1  0
  9 42  1  0
 10 43  1  0
 10 44  1  0
 13 45  1  0
 14 46  1  0
 17 47  1  0
 17 48  1  0
 17 49  1  0
 19 50  1  0
 20 51  1  0
 21 52  1  0
 21 53  1  0
 22 54  1  0
 22 55  1  0
 24 56  1  0
 27 57  1  0
 27 58  1  0
 27 59  1  0
 30 60  1  0
 30 61  1  0
 30 62  1  0
 31 63  1  0
M  END
$$$$
