
     RDKit          3D

 30 32  0  0  0  0  0  0  0  0999 V2000
   -3.5916   -1.4082   -0.8461 C   0  0  0  0  0  0  0  0  0  0  0  0
   -3.1458   -0.1513   -0.1552 C   0  0  0  0  0  0  0  0  0  0  0  0
   -4.0547    0.7082    0.2214 N   0  0  0  0  0  0  0  0  0  0  0  0
   -3.6808    1.8827    0.8559 N   0  0  0  0  0  0  0  0  0  0  0  0
   -2.3884    2.2924    1.1608 C   0  0  0  0  0  0  0  0  0  0  0  0
   -2.1598    3.3590    1.7238 O   0  0  0  0  0  0  0  0  0  0  0  0
   -1.3850    1.3259    0.7421 C   0  0  0  0  0  0  0  0  0  0  0  0
   -0.0665    1.4144    0.9210 N   0  0  0  0  0  0  0  0  0  0  0  0
    0.4486    0.3199    0.2979 N   0  0  0  0  0  0  0  0  0  0  0  0
    1.8676    0.2388    0.1317 C   0  0  0  0  0  0  0  0  0  0  0  0
    2.6887    1.0833    0.9026 C   0  0  0  0  0  0  0  0  0  0  0  0
    4.0801    1.0444    0.7699 C   0  0  0  0  0  0  0  0  0  0  0  0
    4.6615    0.1732   -0.1449 C   0  0  0  0  0  0  0  0  0  0  0  0
    6.3720    0.1220   -0.3145 Cl  0  0  0  0  0  0  0  0  0  0  0  0
    3.8621   -0.6504   -0.9340 C   0  0  0  0  0  0  0  0  0  0  0  0
    2.4678   -0.6147   -0.8025 C   0  0  0  0  0  0  0  0  0  0  0  0
   -0.5686   -0.5628   -0.0884 C   0  0  0  0  0  0  0  0  0  0  0  0
   -0.3512   -1.9622   -0.5377 C   0  0  0  0  0  0  0  0  0  0  0  0
   -1.7512    0.1322    0.1061 C   0  0  0  0  0  0  0  0  0  0  0  0
   -3.4868   -2.2558   -0.1637 H   0  0  0  0  0  0  0  0  0  0  0  0
   -4.6424   -1.3277   -1.1400 H   0  0  0  0  0  0  0  0  0  0  0  0
   -2.9922   -1.5804   -1.7438 H   0  0  0  0  0  0  0  0  0  0  0  0
   -4.4318    2.5103    1.1223 H   0  0  0  0  0  0  0  0  0  0  0  0
    2.2575    1.7759    1.6253 H   0  0  0  0  0  0  0  0  0  0  0  0
    4.6965    1.6984    1.3811 H   0  0  0  0  0  0  0  0  0  0  0  0
    4.3167   -1.3141   -1.6655 H   0  0  0  0  0  0  0  0  0  0  0  0
    1.8920   -1.2322   -1.4812 H   0  0  0  0  0  0  0  0  0  0  0  0
    0.5283   -2.4115   -0.0672 H   0  0  0  0  0  0  0  0  0  0  0  0
   -1.1919   -2.6001   -0.2512 H   0  0  0  0  0  0  0  0  0  0  0  0
   -0.2506   -2.0095   -1.6260 H   0  0  0  0  0  0  0  0  0  0  0  0
  1  2  1  0
  2  3  2  0
  3  4  1  0
  4  5  1  0
  5  6  2  0
  5  7  1  0
  7  8  2  0
  8  9  1  0
  9 10  1  0
 10 11  2  0
 11 12  1  0
 12 13  2  0
 13 14  1  0
 13 15  1  0
 15 16  2  0
  9 17  1  0
 17 18  1  0
 17 19  2  0
 19  2  1  0
 19  7  1  0
 16 10  1  0
  1 20  1  0
  1 21  1  0
  1 22  1  0
  4 23  1  0
 11 24  1  0
 12 25  1  0
 15 26  1  0
 16 27  1  0
 18 28  1  0
 18 29  1  0
 18 30  1  0
M  END
$$$$
