
     RDKit          3D

 47 49  0  0  0  0  0  0  0  0999 V2000
   -5.6680    2.5582    0.8735 C   0  0  0  0  0  0  0  0  0  0  0  0
   -5.1131    1.3602    0.1594 C   0  0  0  0  0  0  0  0  0  0  0  0
   -5.9702    0.4492   -0.4682 C   0  0  0  0  0  0  0  0  0  0  0  0
   -5.4585   -0.6829   -1.1101 C   0  0  0  0  0  0  0  0  0  0  0  0
   -6.3821   -1.6715   -1.7580 C   0  0  0  0  0  0  0  0  0  0  0  0
   -4.0758   -0.9132   -1.0871 C   0  0  0  0  0  0  0  0  0  0  0  0
   -3.2025   -0.0195   -0.4519 C   0  0  0  0  0  0  0  0  0  0  0  0
   -1.8274   -0.3334   -0.4874 N   0  0  0  0  0  0  0  0  0  0  0  0
   -0.7796    0.3731    0.0809 C   0  0  0  0  0  0  0  0  0  0  0  0
   -0.8643    1.4241    0.7073 O   0  0  0  0  0  0  0  0  0  0  0  0
    0.5660   -0.2585   -0.2372 C   0  0  0  0  0  0  0  0  0  0  0  0
    1.6293    0.1305    0.7959 C   0  0  0  0  0  0  0  0  0  0  0  0
    1.5541   -0.7824    2.0446 C   0  0  0  0  0  0  0  0  0  0  0  0
    0.5488   -1.4082    2.3732 O   0  0  0  0  0  0  0  0  0  0  0  0
    2.6263   -0.7203    2.9129 N   0  0  0  0  0  0  0  0  0  0  0  0
    3.9616   -0.3482    2.4774 C   0  0  0  0  0  0  0  0  0  0  0  0
    3.9528    0.6643    1.3238 C   0  0  0  0  0  0  0  0  0  0  0  0
    3.0216    0.2049    0.2848 N   0  0  0  0  0  0  0  0  0  0  0  0
    3.4749   -0.8121   -0.5779 C   0  0  0  0  0  0  0  0  0  0  0  0
    2.8179   -1.8372   -0.7487 O   0  0  0  0  0  0  0  0  0  0  0  0
    4.7311   -0.5554   -1.2727 C   0  0  0  0  0  0  0  0  0  0  0  0
    5.2620    0.6448   -1.7129 C   0  0  0  0  0  0  0  0  0  0  0  0
    6.5177    0.4793   -2.3665 C   0  0  0  0  0  0  0  0  0  0  0  0
    6.9013   -0.8419   -2.4143 C   0  0  0  0  0  0  0  0  0  0  0  0
    5.7470   -1.8725   -1.6873 S   0  0  0  0  0  0  0  0  0  0  0  0
   -3.7315    1.1121    0.1706 C   0  0  0  0  0  0  0  0  0  0  0  0
   -5.8549    2.3136    1.9236 H   0  0  0  0  0  0  0  0  0  0  0  0
   -6.6064    2.8875    0.4151 H   0  0  0  0  0  0  0  0  0  0  0  0
   -4.9700    3.4004    0.8231 H   0  0  0  0  0  0  0  0  0  0  0  0
   -7.0443    0.6241   -0.4556 H   0  0  0  0  0  0  0  0  0  0  0  0
   -6.6703   -2.4429   -1.0370 H   0  0  0  0  0  0  0  0  0  0  0  0
   -7.2866   -1.1778   -2.1286 H   0  0  0  0  0  0  0  0  0  0  0  0
   -5.8999   -2.1506   -2.6167 H   0  0  0  0  0  0  0  0  0  0  0  0
   -3.6855   -1.8062   -1.5700 H   0  0  0  0  0  0  0  0  0  0  0  0
   -1.5885   -1.1991   -0.9551 H   0  0  0  0  0  0  0  0  0  0  0  0
    0.8461    0.1051   -1.2336 H   0  0  0  0  0  0  0  0  0  0  0  0
    0.4495   -1.3469   -0.2914 H   0  0  0  0  0  0  0  0  0  0  0  0
    1.4241    1.1443    1.1637 H   0  0  0  0  0  0  0  0  0  0  0  0
    2.5306   -1.3514    3.7002 H   0  0  0  0  0  0  0  0  0  0  0  0
    4.4555   -1.2744    2.1625 H   0  0  0  0  0  0  0  0  0  0  0  0
    4.5013    0.0489    3.3421 H   0  0  0  0  0  0  0  0  0  0  0  0
    3.6081    1.6448    1.6725 H   0  0  0  0  0  0  0  0  0  0  0  0
    4.9691    0.7866    0.9432 H   0  0  0  0  0  0  0  0  0  0  0  0
    4.7658    1.5994   -1.5805 H   0  0  0  0  0  0  0  0  0  0  0  0
    7.1056    1.2863   -2.7875 H   0  0  0  0  0  0  0  0  0  0  0  0
    7.7995   -1.2565   -2.8519 H   0  0  0  0  0  0  0  0  0  0  0  0
   -3.0883    1.8213    0.6822 H   0  0  0  0  0  0  0  0  0  0  0  0
  1  2  1  0
  2  3  2  0
  3  4  1  0
  4  5  1  0
  4  6  2  0
  6  7  1  0
  7  8  1  0
  8  9  1  0
  9 10  2  0
  9 11  1  0
 11 12  1  0
 12 13  1  0
 13 14  2  0
 13 15  1  0
 15 16  1  0
 16 17  1  0
 17 18  1  0
 18 19  1  0
 19 20  2  0
 19 21  1  0
 21 22  2  0
 22 23  1  0
 23 24  2  0
 24 25  1  0
  7 26  2  0
 26  2  1  0
 18 12  1  0
 25 21  1  0
  1 27  1  0
  1 28  1  0
  1 29  1  0
  3 30  1  0
  5 31  1  0
  5 32  1  0
  5 33  1  0
  6 34  1  0
  8 35  1  0
 11 36  1  0
 11 37  1  0
 12 38  1  0
 15 39  1  0
 16 40  1  0
 16 41  1  0
 17 42  1  0
 17 43  1  0
 22 44  1  0
 23 45  1  0
 24 46  1  0
 26 47  1  0
M  END
$$$$
