
     RDKit          3D

 47 48  0  0  0  0  0  0  0  0999 V2000
    3.8344    3.5211   -1.5516 C   0  0  0  0  0  0  0  0  0  0  0  0
    4.3889    2.2921   -1.0998 O   0  0  0  0  0  0  0  0  0  0  0  0
    3.5138    1.3168   -0.6978 C   0  0  0  0  0  0  0  0  0  0  0  0
    2.1256    1.4053   -0.7883 C   0  0  0  0  0  0  0  0  0  0  0  0
    1.3220    0.3533   -0.3276 C   0  0  0  0  0  0  0  0  0  0  0  0
   -0.1534    0.4994   -0.4411 C   0  0  0  0  0  0  0  0  0  0  0  0
   -0.6196    1.1045   -1.3989 O   0  0  0  0  0  0  0  0  0  0  0  0
   -0.8780   -0.0509    0.6116 N   0  0  0  0  0  0  0  0  0  0  0  0
   -2.2407    0.2838    0.7446 N   0  0  0  0  0  0  0  0  0  0  0  0
   -2.6522    1.6013    0.8228 C   0  0  0  0  0  0  0  0  0  0  0  0
   -1.9736    2.5601    1.1599 O   0  0  0  0  0  0  0  0  0  0  0  0
   -3.9864    1.6822    0.5187 O   0  0  0  0  0  0  0  0  0  0  0  0
   -4.5090    0.3356    0.3886 C   0  0  0  0  0  0  0  0  0  0  0  0
   -5.5147    0.3419   -0.7629 C   0  0  0  0  0  0  0  0  0  0  0  0
   -5.2320    0.0267    1.7075 C   0  0  0  0  0  0  0  0  0  0  0  0
   -3.2464   -0.5333    0.1289 C   0  0  0  0  0  0  0  0  0  0  0  0
   -3.2908   -1.9484    0.7020 C   0  0  0  0  0  0  0  0  0  0  0  0
   -2.9503   -0.6451   -1.2599 O   0  0  0  0  0  0  0  0  0  0  0  0
    1.8971   -0.8093    0.2057 C   0  0  0  0  0  0  0  0  0  0  0  0
    3.2851   -0.9171    0.2983 C   0  0  0  0  0  0  0  0  0  0  0  0
    3.9551   -2.0024    0.8007 O   0  0  0  0  0  0  0  0  0  0  0  0
    3.1837   -3.0663    1.3394 C   0  0  0  0  0  0  0  0  0  0  0  0
    4.0833    0.1455   -0.1660 C   0  0  0  0  0  0  0  0  0  0  0  0
    5.4522    0.0602   -0.0289 O   0  0  0  0  0  0  0  0  0  0  0  0
    6.0261   -0.4723   -1.2216 C   0  0  0  0  0  0  0  0  0  0  0  0
    3.2290    3.9940   -0.7713 H   0  0  0  0  0  0  0  0  0  0  0  0
    3.2565    3.3773   -2.4704 H   0  0  0  0  0  0  0  0  0  0  0  0
    4.6639    4.1961   -1.7835 H   0  0  0  0  0  0  0  0  0  0  0  0
    1.6347    2.2811   -1.2040 H   0  0  0  0  0  0  0  0  0  0  0  0
   -0.3930   -0.1548    1.4972 H   0  0  0  0  0  0  0  0  0  0  0  0
   -5.0676    0.7345   -1.6828 H   0  0  0  0  0  0  0  0  0  0  0  0
   -5.9056   -0.6616   -0.9579 H   0  0  0  0  0  0  0  0  0  0  0  0
   -6.3594    1.0035   -0.5374 H   0  0  0  0  0  0  0  0  0  0  0  0
   -6.0062    0.7768    1.9080 H   0  0  0  0  0  0  0  0  0  0  0  0
   -4.5446    0.0679    2.5600 H   0  0  0  0  0  0  0  0  0  0  0  0
   -5.7096   -0.9578    1.6879 H   0  0  0  0  0  0  0  0  0  0  0  0
   -3.3617   -1.9545    1.7941 H   0  0  0  0  0  0  0  0  0  0  0  0
   -4.1374   -2.5080    0.2893 H   0  0  0  0  0  0  0  0  0  0  0  0
   -2.3870   -2.5066    0.4296 H   0  0  0  0  0  0  0  0  0  0  0  0
   -3.6034   -1.2272   -1.6769 H   0  0  0  0  0  0  0  0  0  0  0  0
    1.2514   -1.6233    0.5145 H   0  0  0  0  0  0  0  0  0  0  0  0
    2.5613   -2.7224    2.1722 H   0  0  0  0  0  0  0  0  0  0  0  0
    3.8764   -3.8180    1.7299 H   0  0  0  0  0  0  0  0  0  0  0  0
    2.5772   -3.5440    0.5632 H   0  0  0  0  0  0  0  0  0  0  0  0
    7.1068   -0.5471   -1.0678 H   0  0  0  0  0  0  0  0  0  0  0  0
    5.6454   -1.4775   -1.4338 H   0  0  0  0  0  0  0  0  0  0  0  0
    5.8527    0.1867   -2.0790 H   0  0  0  0  0  0  0  0  0  0  0  0
  1  2  1  0
  2  3  1  0
  3  4  2  0
  4  5  1  0
  5  6  1  0
  6  7  2  0
  6  8  1  0
  8  9  1  0
  9 10  1  0
 10 11  2  0
 10 12  1  0
 12 13  1  0
 13 14  1  0
 13 15  1  0
 13 16  1  0
 16 17  1  0
 16 18  1  0
  5 19  2  0
 19 20  1  0
 20 21  1  0
 21 22  1  0
 20 23  2  0
 23 24  1  0
 24 25  1  0
 23  3  1  0
 16  9  1  0
  1 26  1  0
  1 27  1  0
  1 28  1  0
  4 29  1  0
  8 30  1  0
 14 31  1  0
 14 32  1  0
 14 33  1  0
 15 34  1  0
 15 35  1  0
 15 36  1  0
 17 37  1  0
 17 38  1  0
 17 39  1  0
 18 40  1  0
 19 41  1  0
 22 42  1  0
 22 43  1  0
 22 44  1  0
 25 45  1  0
 25 46  1  0
 25 47  1  0
M  END
$$$$
