
     RDKit          3D

 49 52  0  0  0  0  0  0  0  0999 V2000
   -2.0607   -2.1996   -1.1817 O   0  0  0  0  0  0  0  0  0  0  0  0
   -1.2864   -1.5497   -0.4729 C   0  0  0  0  0  0  0  0  0  0  0  0
   -1.8257   -0.6383    0.6342 C   0  0  0  0  0  0  0  0  0  0  0  0
   -3.0455   -1.2950    1.3242 C   0  0  0  0  0  0  0  0  0  0  0  0
   -4.4045   -0.7091    0.9291 C   0  0  0  0  0  0  0  0  0  0  0  0
   -4.4664   -0.2664   -0.5258 C   0  0  0  0  0  0  0  0  0  0  0  0
   -3.3431    0.6960   -0.9239 C   0  0  0  0  0  0  0  0  0  0  0  0
   -2.1735    0.7509    0.0751 C   0  0  0  0  0  0  0  0  0  0  0  0
   -1.0472    1.3714   -0.5759 O   0  0  0  0  0  0  0  0  0  0  0  0
   -0.7185    2.5190    0.2083 C   0  0  0  0  0  0  0  0  0  0  0  0
   -2.0016    2.8720    0.8993 C   0  0  0  0  0  0  0  0  0  0  0  0
   -2.5587    1.5937    1.1903 O   0  0  0  0  0  0  0  0  0  0  0  0
    0.0808   -1.6364   -0.6737 N   0  0  0  0  0  0  0  0  0  0  0  0
    0.5754   -2.4994   -1.7501 C   0  0  0  0  0  0  0  0  0  0  0  0
    2.0529   -2.8510   -1.5566 C   0  0  0  0  0  0  0  0  0  0  0  0
    2.9095   -1.7036   -1.4946 O   0  0  0  0  0  0  0  0  0  0  0  0
    2.2973   -0.5447   -0.8951 C   0  0  0  0  0  0  0  0  0  0  0  0
    3.3527    0.2566   -0.1610 C   0  0  0  0  0  0  0  0  0  0  0  0
    3.3514    1.6580   -0.2415 C   0  0  0  0  0  0  0  0  0  0  0  0
    4.2963    2.4108    0.4577 C   0  0  0  0  0  0  0  0  0  0  0  0
    5.2512    1.7733    1.2465 C   0  0  0  0  0  0  0  0  0  0  0  0
    5.2639    0.3829    1.3359 C   0  0  0  0  0  0  0  0  0  0  0  0
    4.3189   -0.3714    0.6388 C   0  0  0  0  0  0  0  0  0  0  0  0
    1.1241   -0.8952    0.0461 C   0  0  0  0  0  0  0  0  0  0  0  0
   -1.0594   -0.5490    1.4117 H   0  0  0  0  0  0  0  0  0  0  0  0
   -2.9392   -1.1851    2.4121 H   0  0  0  0  0  0  0  0  0  0  0  0
   -3.0536   -2.3775    1.1441 H   0  0  0  0  0  0  0  0  0  0  0  0
   -5.1890   -1.4488    1.1260 H   0  0  0  0  0  0  0  0  0  0  0  0
   -4.6352    0.1471    1.5751 H   0  0  0  0  0  0  0  0  0  0  0  0
   -5.4372    0.2011   -0.7289 H   0  0  0  0  0  0  0  0  0  0  0  0
   -4.4260   -1.1531   -1.1699 H   0  0  0  0  0  0  0  0  0  0  0  0
   -3.7727    1.6991   -1.0383 H   0  0  0  0  0  0  0  0  0  0  0  0
   -2.9784    0.4254   -1.9234 H   0  0  0  0  0  0  0  0  0  0  0  0
    0.0517    2.2272    0.9298 H   0  0  0  0  0  0  0  0  0  0  0  0
   -0.3291    3.3202   -0.4246 H   0  0  0  0  0  0  0  0  0  0  0  0
   -1.8559    3.4492    1.8152 H   0  0  0  0  0  0  0  0  0  0  0  0
   -2.6865    3.4131    0.2380 H   0  0  0  0  0  0  0  0  0  0  0  0
    0.4406   -1.9418   -2.6846 H   0  0  0  0  0  0  0  0  0  0  0  0
   -0.0277   -3.4122   -1.8041 H   0  0  0  0  0  0  0  0  0  0  0  0
    2.1929   -3.4218   -0.6313 H   0  0  0  0  0  0  0  0  0  0  0  0
    2.4030   -3.4784   -2.3825 H   0  0  0  0  0  0  0  0  0  0  0  0
    1.9167    0.0543   -1.7331 H   0  0  0  0  0  0  0  0  0  0  0  0
    2.6169    2.1727   -0.8580 H   0  0  0  0  0  0  0  0  0  0  0  0
    4.2900    3.4946    0.3833 H   0  0  0  0  0  0  0  0  0  0  0  0
    5.9904    2.3588    1.7867 H   0  0  0  0  0  0  0  0  0  0  0  0
    6.0134   -0.1160    1.9447 H   0  0  0  0  0  0  0  0  0  0  0  0
    4.3464   -1.4566    0.7116 H   0  0  0  0  0  0  0  0  0  0  0  0
    1.4599   -1.5532    0.8580 H   0  0  0  0  0  0  0  0  0  0  0  0
    0.7256    0.0060    0.5093 H   0  0  0  0  0  0  0  0  0  0  0  0
  1  2  2  0
  2  3  1  0
  3  4  1  0
  4  5  1  0
  5  6  1  0
  6  7  1  0
  7  8  1  0
  8  9  1  0
  9 10  1  0
 10 11  1  0
 11 12  1  0
  2 13  1  0
 13 14  1  0
 14 15  1  0
 15 16  1  0
 16 17  1  0
 17 18  1  0
 18 19  2  0
 19 20  1  0
 20 21  2  0
 21 22  1  0
 22 23  2  0
 17 24  1  0
  8  3  1  0
 24 13  1  0
 12  8  1  0
 23 18  1  0
  3 25  1  0
  4 26  1  0
  4 27  1  0
  5 28  1  0
  5 29  1  0
  6 30  1  0
  6 31  1  0
  7 32  1  0
  7 33  1  0
 10 34  1  0
 10 35  1  0
 11 36  1  0
 11 37  1  0
 14 38  1  0
 14 39  1  0
 15 40  1  0
 15 41  1  0
 17 42  1  0
 19 43  1  0
 20 44  1  0
 21 45  1  0
 22 46  1  0
 23 47  1  0
 24 48  1  0
 24 49  1  0
M  END
$$$$
