
     RDKit          3D

 48 50  0  0  0  0  0  0  0  0999 V2000
    5.1890    0.0307   -2.6367 C   0  0  0  0  0  0  0  0  0  0  0  0
    4.0002   -0.1878   -1.7959 C   0  0  0  0  0  0  0  0  0  0  0  0
    2.8807    0.5488   -1.4993 C   0  0  0  0  0  0  0  0  0  0  0  0
    2.1329   -0.2731   -0.6217 C   0  0  0  0  0  0  0  0  0  0  0  0
    0.9156    0.0970   -0.0837 N   0  0  0  0  0  0  0  0  0  0  0  0
    0.1893   -0.6742    0.7976 C   0  0  0  0  0  0  0  0  0  0  0  0
    0.4983   -1.7789    1.2446 O   0  0  0  0  0  0  0  0  0  0  0  0
   -1.1490   -0.0417    1.2172 C   0  0  2  0  0  0  0  0  0  0  0  0
   -0.9529    0.9336    2.3852 C   0  0  0  0  0  0  0  0  0  0  0  0
   -0.3077    2.2294    1.9505 C   0  0  0  0  0  0  0  0  0  0  0  0
   -1.0449    3.1810    1.2319 C   0  0  0  0  0  0  0  0  0  0  0  0
   -0.4356    4.3532    0.7838 C   0  0  0  0  0  0  0  0  0  0  0  0
    0.9122    4.5860    1.0509 C   0  0  0  0  0  0  0  0  0  0  0  0
    1.6511    3.6503    1.7720 C   0  0  0  0  0  0  0  0  0  0  0  0
    1.0446    2.4777    2.2231 C   0  0  0  0  0  0  0  0  0  0  0  0
   -2.0269   -1.1636    1.6644 N   0  0  0  0  0  0  0  0  0  0  0  0
   -3.1664   -1.7165    0.5603 S   0  0  0  0  0  6  0  0  0  0  0  0
   -3.7473   -2.9200    1.1055 O   0  0  0  0  0  0  0  0  0  0  0  0
   -3.9677   -0.5788    0.1699 O   0  0  0  0  0  0  0  0  0  0  0  0
   -2.3810   -2.2278   -0.8644 C   0  0  0  0  0  0  0  0  0  0  0  0
   -2.4894   -1.6814   -2.1639 C   0  0  0  0  0  0  0  0  0  0  0  0
   -3.3186   -0.5576   -2.6612 C   0  0  0  0  0  0  0  0  0  0  0  0
   -1.6839   -2.3272   -3.0181 N   0  0  0  0  0  0  0  0  0  0  0  0
   -1.0714   -3.3253   -2.2849 O   0  0  0  0  0  0  0  0  0  0  0  0
   -1.4940   -3.2696   -0.9926 C   0  0  0  0  0  0  0  0  0  0  0  0
   -0.9277   -4.2895   -0.0902 C   0  0  0  0  0  0  0  0  0  0  0  0
    2.7684   -1.4268   -0.4027 N   0  0  0  0  0  0  0  0  0  0  0  0
    3.9356   -1.3738   -1.1379 O   0  0  0  0  0  0  0  0  0  0  0  0
    5.2302   -0.7093   -3.4417 H   0  0  0  0  0  0  0  0  0  0  0  0
    5.1718    1.0266   -3.0900 H   0  0  0  0  0  0  0  0  0  0  0  0
    6.1027   -0.0561   -2.0409 H   0  0  0  0  0  0  0  0  0  0  0  0
    2.6394    1.5339   -1.8676 H   0  0  0  0  0  0  0  0  0  0  0  0
    0.5879    1.0218   -0.3318 H   0  0  0  0  0  0  0  0  0  0  0  0
   -1.5958    0.4719    0.3586 H   0  0  0  0  0  0  0  0  0  0  0  0
   -0.3540    0.4665    3.1783 H   0  0  0  0  0  0  0  0  0  0  0  0
   -1.9213    1.1703    2.8458 H   0  0  0  0  0  0  0  0  0  0  0  0
   -2.1020    3.0210    1.0238 H   0  0  0  0  0  0  0  0  0  0  0  0
   -1.0154    5.0919    0.2352 H   0  0  0  0  0  0  0  0  0  0  0  0
    1.3836    5.5045    0.7096 H   0  0  0  0  0  0  0  0  0  0  0  0
    2.6997    3.8379    1.9915 H   0  0  0  0  0  0  0  0  0  0  0  0
    1.6390    1.7590    2.7857 H   0  0  0  0  0  0  0  0  0  0  0  0
   -1.4804   -1.9408    2.0583 H   0  0  0  0  0  0  0  0  0  0  0  0
   -3.1924   -0.4131   -3.7397 H   0  0  0  0  0  0  0  0  0  0  0  0
   -4.3803   -0.7497   -2.4780 H   0  0  0  0  0  0  0  0  0  0  0  0
   -3.0350    0.3777   -2.1684 H   0  0  0  0  0  0  0  0  0  0  0  0
   -1.3122   -5.2801   -0.3518 H   0  0  0  0  0  0  0  0  0  0  0  0
    0.1634   -4.3132   -0.1734 H   0  0  0  0  0  0  0  0  0  0  0  0
   -1.1825   -4.0946    0.9546 H   0  0  0  0  0  0  0  0  0  0  0  0
  1  2  1  0
  2  3  2  0
  3  4  1  0
  4  5  1  0
  5  6  1  0
  6  7  2  0
  6  8  1  0
  8  9  1  0
  9 10  1  0
 10 11  2  0
 11 12  1  0
 12 13  2  0
 13 14  1  0
 14 15  2  0
  8 16  1  0
 16 17  1  0
 17 18  2  0
 17 19  2  0
 17 20  1  0
 20 21  1  0
 21 22  1  0
 21 23  2  0
 23 24  1  0
 24 25  1  0
 25 26  1  0
  4 27  2  0
 27 28  1  0
 28  2  1  0
 15 10  1  0
 25 20  2  0
  1 29  1  0
  1 30  1  0
  1 31  1  0
  3 32  1  0
  5 33  1  0
  8 34  1  6
  9 35  1  0
  9 36  1  0
 11 37  1  0
 12 38  1  0
 13 39  1  0
 14 40  1  0
 15 41  1  0
 16 42  1  0
 22 43  1  0
 22 44  1  0
 22 45  1  0
 26 46  1  0
 26 47  1  0
 26 48  1  0
M  END
$$$$
