
     RDKit          3D

 36 38  0  0  0  0  0  0  0  0999 V2000
   -5.6084   -0.2154   -1.5926 C   0  0  0  0  0  0  0  0  0  0  0  0
   -5.4198   -0.0484   -0.0877 C   0  0  0  0  0  0  0  0  0  0  0  0
   -5.7147   -1.3503    0.6513 C   0  0  0  0  0  0  0  0  0  0  0  0
   -4.0100    0.3986    0.2052 C   0  0  0  0  0  0  0  0  0  0  0  0
   -2.9514   -0.2883   -0.0934 N   0  0  0  0  0  0  0  0  0  0  0  0
   -1.8376    0.4118    0.3132 N   0  0  0  0  0  0  0  0  0  0  0  0
   -0.5633   -0.0778    0.1301 C   0  0  0  0  0  0  0  0  0  0  0  0
   -0.2552   -1.1518   -0.3893 O   0  0  0  0  0  0  0  0  0  0  0  0
    0.5270    0.8270    0.6365 C   0  0  0  0  0  0  0  0  0  0  0  0
    1.8143    0.3554    0.4595 N   0  0  0  0  0  0  0  0  0  0  0  0
    3.0012    0.9790    0.7814 C   0  0  0  0  0  0  0  0  0  0  0  0
    3.1068    2.1074    1.2468 O   0  0  0  0  0  0  0  0  0  0  0  0
    4.2404    0.1990    0.4946 C   0  0  0  0  0  0  0  0  0  0  0  0
    5.4108    0.9054    0.1821 C   0  0  0  0  0  0  0  0  0  0  0  0
    6.5975    0.2196   -0.0906 C   0  0  0  0  0  0  0  0  0  0  0  0
    6.6180   -1.1727   -0.0414 C   0  0  0  0  0  0  0  0  0  0  0  0
    8.0776   -2.0189   -0.3753 Cl  0  0  0  0  0  0  0  0  0  0  0  0
    5.4641   -1.8850    0.2848 C   0  0  0  0  0  0  0  0  0  0  0  0
    4.2744   -1.2015    0.5579 C   0  0  0  0  0  0  0  0  0  0  0  0
    0.1476    1.9823    1.2087 C   0  0  0  0  0  0  0  0  0  0  0  0
   -1.1508    2.4156    1.3686 N   0  0  0  0  0  0  0  0  0  0  0  0
   -2.0587    1.6195    0.9180 C   0  0  0  0  0  0  0  0  0  0  0  0
   -3.7600    1.9373    0.9982 S   0  0  0  0  0  0  0  0  0  0  0  0
   -4.9515   -0.9930   -1.9980 H   0  0  0  0  0  0  0  0  0  0  0  0
   -5.3781    0.7174   -2.1189 H   0  0  0  0  0  0  0  0  0  0  0  0
   -6.6422   -0.4903   -1.8263 H   0  0  0  0  0  0  0  0  0  0  0  0
   -6.1247    0.7141    0.2645 H   0  0  0  0  0  0  0  0  0  0  0  0
   -5.0608   -2.1625    0.3148 H   0  0  0  0  0  0  0  0  0  0  0  0
   -5.5606   -1.2286    1.7291 H   0  0  0  0  0  0  0  0  0  0  0  0
   -6.7519   -1.6620    0.4901 H   0  0  0  0  0  0  0  0  0  0  0  0
    1.8480   -0.5406   -0.0238 H   0  0  0  0  0  0  0  0  0  0  0  0
    5.4007    1.9938    0.1491 H   0  0  0  0  0  0  0  0  0  0  0  0
    7.4980    0.7772   -0.3356 H   0  0  0  0  0  0  0  0  0  0  0  0
    5.4868   -2.9710    0.3371 H   0  0  0  0  0  0  0  0  0  0  0  0
    3.3991   -1.7788    0.8439 H   0  0  0  0  0  0  0  0  0  0  0  0
    0.8875    2.6764    1.5993 H   0  0  0  0  0  0  0  0  0  0  0  0
  1  2  1  0
  2  3  1  0
  2  4  1  0
  4  5  2  0
  5  6  1  0
  6  7  1  0
  7  8  2  0
  7  9  1  0
  9 10  1  0
 10 11  1  0
 11 12  2  0
 11 13  1  0
 13 14  2  0
 14 15  1  0
 15 16  2  0
 16 17  1  0
 16 18  1  0
 18 19  2  0
  9 20  2  0
 20 21  1  0
 21 22  2  0
 22 23  1  0
 23  4  1  0
 22  6  1  0
 19 13  1  0
  1 24  1  0
  1 25  1  0
  1 26  1  0
  2 27  1  0
  3 28  1  0
  3 29  1  0
  3 30  1  0
 10 31  1  0
 14 32  1  0
 15 33  1  0
 18 34  1  0
 19 35  1  0
 20 36  1  0
M  END
$$$$
