
     RDKit          3D

 48 50  0  0  0  0  0  0  0  0999 V2000
   -6.6623   -0.3646    1.8995 C   0  0  0  0  0  0  0  0  0  0  0  0
   -5.7178    1.0391    2.5482 S   0  0  0  0  0  0  0  0  0  0  0  0
   -5.4428    1.9597    1.0043 C   0  0  0  0  0  0  0  0  0  0  0  0
   -4.5568    1.2888   -0.0484 C   0  0  0  0  0  0  0  0  0  0  0  0
   -3.0911    1.0658    0.3805 C   0  0  1  0  0  0  0  0  0  0  0  0
   -2.8147   -0.2900    1.0737 C   0  0  0  0  0  0  0  0  0  0  0  0
   -3.4301   -1.3966    0.4224 O   0  0  0  0  0  0  0  0  0  0  0  0
   -2.1817    1.2722   -0.7619 N   0  0  0  0  0  0  0  0  0  0  0  0
   -2.1504    0.4730   -1.8834 C   0  0  0  0  0  0  0  0  0  0  0  0
   -2.8917   -0.4934   -2.0437 O   0  0  0  0  0  0  0  0  0  0  0  0
   -1.0448    0.8182   -2.8751 C   0  0  0  0  0  0  0  0  0  0  0  0
    0.1589    0.1121   -2.4756 N   0  0  0  0  0  0  0  0  0  0  0  0
    0.4567   -1.1211   -3.0280 C   0  0  0  0  0  0  0  0  0  0  0  0
    1.4969   -1.8391   -2.7473 N   0  0  0  0  0  0  0  0  0  0  0  0
    2.3200   -1.2914   -1.8172 C   0  0  0  0  0  0  0  0  0  0  0  0
    3.7546   -2.0621   -1.3176 S   0  0  0  0  0  0  0  0  0  0  0  0
    4.1360   -0.8087   -0.2025 C   0  0  0  0  0  0  0  0  0  0  0  0
    5.3610   -0.8740    0.6068 C   0  0  0  0  0  0  0  0  0  0  0  0
    6.1592    0.2698    0.7627 C   0  0  0  0  0  0  0  0  0  0  0  0
    7.3207    0.2321    1.5390 C   0  0  0  0  0  0  0  0  0  0  0  0
    7.6966   -0.9489    2.1740 C   0  0  0  0  0  0  0  0  0  0  0  0
    6.9131   -2.0918    2.0336 C   0  0  0  0  0  0  0  0  0  0  0  0
    5.7521   -2.0545    1.2562 C   0  0  0  0  0  0  0  0  0  0  0  0
    3.1761    0.1879   -0.2347 C   0  0  0  0  0  0  0  0  0  0  0  0
    2.1334   -0.0954   -1.1636 C   0  0  0  0  0  0  0  0  0  0  0  0
    0.9541    0.6783   -1.4827 C   0  0  0  0  0  0  0  0  0  0  0  0
    0.6661    1.7260   -0.9060 O   0  0  0  0  0  0  0  0  0  0  0  0
   -6.0398   -0.9921    1.2589 H   0  0  0  0  0  0  0  0  0  0  0  0
   -7.5327   -0.0121    1.3401 H   0  0  0  0  0  0  0  0  0  0  0  0
   -7.0140   -0.9741    2.7367 H   0  0  0  0  0  0  0  0  0  0  0  0
   -6.4220    2.1828    0.5660 H   0  0  0  0  0  0  0  0  0  0  0  0
   -5.0034    2.9248    1.2802 H   0  0  0  0  0  0  0  0  0  0  0  0
   -4.5652    1.9625   -0.9169 H   0  0  0  0  0  0  0  0  0  0  0  0
   -5.0178    0.3625   -0.4069 H   0  0  0  0  0  0  0  0  0  0  0  0
   -2.7997    1.8593    1.0800 H   0  0  0  0  0  0  0  0  0  0  0  0
   -3.1772   -0.2791    2.1041 H   0  0  0  0  0  0  0  0  0  0  0  0
   -1.7370   -0.4837    1.1184 H   0  0  0  0  0  0  0  0  0  0  0  0
   -3.2817   -1.2892   -0.5417 H   0  0  0  0  0  0  0  0  0  0  0  0
   -1.3552    1.8458   -0.5853 H   0  0  0  0  0  0  0  0  0  0  0  0
   -0.8728    1.9000   -2.8859 H   0  0  0  0  0  0  0  0  0  0  0  0
   -1.3625    0.5089   -3.8764 H   0  0  0  0  0  0  0  0  0  0  0  0
   -0.2770   -1.4812   -3.7680 H   0  0  0  0  0  0  0  0  0  0  0  0
    5.8901    1.2011    0.2695 H   0  0  0  0  0  0  0  0  0  0  0  0
    7.9312    1.1249    1.6456 H   0  0  0  0  0  0  0  0  0  0  0  0
    8.5996   -0.9792    2.7782 H   0  0  0  0  0  0  0  0  0  0  0  0
    7.2017   -3.0142    2.5308 H   0  0  0  0  0  0  0  0  0  0  0  0
    5.1520   -2.9582    1.1734 H   0  0  0  0  0  0  0  0  0  0  0  0
    3.2120    1.0759    0.3862 H   0  0  0  0  0  0  0  0  0  0  0  0
  1  2  1  0
  2  3  1  0
  3  4  1  0
  4  5  1  0
  5  6  1  0
  6  7  1  0
  5  8  1  0
  8  9  1  0
  9 10  2  0
  9 11  1  0
 11 12  1  0
 12 13  1  0
 13 14  2  0
 14 15  1  0
 15 16  1  0
 16 17  1  0
 17 18  1  0
 18 19  2  0
 19 20  1  0
 20 21  2  0
 21 22  1  0
 22 23  2  0
 17 24  2  0
 24 25  1  0
 25 26  1  0
 26 27  2  0
 26 12  1  0
 25 15  2  0
 23 18  1  0
  1 28  1  0
  1 29  1  0
  1 30  1  0
  3 31  1  0
  3 32  1  0
  4 33  1  0
  4 34  1  0
  5 35  1  1
  6 36  1  0
  6 37  1  0
  7 38  1  0
  8 39  1  0
 11 40  1  0
 11 41  1  0
 13 42  1  0
 19 43  1  0
 20 44  1  0
 21 45  1  0
 22 46  1  0
 23 47  1  0
 24 48  1  0
M  END
$$$$
