
     RDKit          3D

 52 55  0  0  0  0  0  0  0  0999 V2000
   -1.4388   -0.7824    2.0291 C   0  0  0  0  0  0  0  0  0  0  0  0
   -2.7966   -0.1359    1.9724 C   0  0  0  0  0  0  0  0  0  0  0  0
   -3.5814   -0.1189    3.0643 C   0  0  0  0  0  0  0  0  0  0  0  0
   -4.8775    0.4944    3.0324 C   0  0  0  0  0  0  0  0  0  0  0  0
   -5.5775    0.4199    4.2108 O   0  0  0  0  0  0  0  0  0  0  0  0
   -5.3357    1.0841    1.9257 C   0  0  0  0  0  0  0  0  0  0  0  0
   -4.4876    1.1086    0.7074 C   0  0  0  0  0  0  0  0  0  0  0  0
   -4.9136    1.6974   -0.2842 O   0  0  0  0  0  0  0  0  0  0  0  0
   -3.2505    0.4568    0.7857 N   0  0  0  0  0  0  0  0  0  0  0  0
   -2.4159    0.4851   -0.4218 C   0  0  0  0  0  0  0  0  0  0  0  0
   -1.6061    1.7867   -0.5281 C   0  0  0  0  0  0  0  0  0  0  0  0
   -0.1669    1.5417   -0.9829 C   0  0  0  0  0  0  0  0  0  0  0  0
   -0.0581    0.9528   -2.3807 C   0  0  0  0  0  0  0  0  0  0  0  0
   -1.0482    0.8408   -3.1045 O   0  0  0  0  0  0  0  0  0  0  0  0
    1.2000    0.5924   -2.8143 N   0  0  0  0  0  0  0  0  0  0  0  0
    1.4008    0.1126   -4.1683 C   0  0  0  0  0  0  0  0  0  0  0  0
    2.8440    0.4748   -4.4726 C   0  0  0  0  0  0  0  0  0  0  0  0
    3.5319    0.2664   -3.1309 C   0  0  0  0  0  0  0  0  0  0  0  0
    2.4764    0.7029   -2.1024 C   0  0  0  0  0  0  0  0  0  0  0  0
    2.5259   -0.1827   -0.8946 C   0  0  0  0  0  0  0  0  0  0  0  0
    1.9049   -1.3333   -0.7135 N   0  0  0  0  0  0  0  0  0  0  0  0
    2.2161   -1.7321    0.5615 C   0  0  0  0  0  0  0  0  0  0  0  0
    1.8073   -2.8695    1.2711 C   0  0  0  0  0  0  0  0  0  0  0  0
    2.2612   -3.0391    2.5852 C   0  0  0  0  0  0  0  0  0  0  0  0
    3.1068   -2.0974    3.1773 C   0  0  0  0  0  0  0  0  0  0  0  0
    3.5281   -0.9575    2.4819 C   0  0  0  0  0  0  0  0  0  0  0  0
    3.0577   -0.8128    1.1753 C   0  0  0  0  0  0  0  0  0  0  0  0
    3.2540    0.1538    0.2235 N   0  0  0  0  0  0  0  0  0  0  0  0
   -1.3877   -1.6425    1.3538 H   0  0  0  0  0  0  0  0  0  0  0  0
   -0.6550   -0.0669    1.7642 H   0  0  0  0  0  0  0  0  0  0  0  0
   -1.2045   -1.1515    3.0340 H   0  0  0  0  0  0  0  0  0  0  0  0
   -3.2648   -0.5689    4.0003 H   0  0  0  0  0  0  0  0  0  0  0  0
   -6.4446    0.8410    4.0815 H   0  0  0  0  0  0  0  0  0  0  0  0
   -6.3006    1.5636    1.8484 H   0  0  0  0  0  0  0  0  0  0  0  0
   -3.0733    0.4016   -1.2968 H   0  0  0  0  0  0  0  0  0  0  0  0
   -1.7779   -0.4034   -0.4524 H   0  0  0  0  0  0  0  0  0  0  0  0
   -2.1107    2.4729   -1.2196 H   0  0  0  0  0  0  0  0  0  0  0  0
   -1.5690    2.2951    0.4432 H   0  0  0  0  0  0  0  0  0  0  0  0
    0.3761    2.4939   -0.9759 H   0  0  0  0  0  0  0  0  0  0  0  0
    0.3010    0.8748   -0.2584 H   0  0  0  0  0  0  0  0  0  0  0  0
    0.6976    0.5641   -4.8742 H   0  0  0  0  0  0  0  0  0  0  0  0
    1.2546   -0.9736   -4.1624 H   0  0  0  0  0  0  0  0  0  0  0  0
    3.2729   -0.1352   -5.2725 H   0  0  0  0  0  0  0  0  0  0  0  0
    2.9155    1.5296   -4.7651 H   0  0  0  0  0  0  0  0  0  0  0  0
    4.4573    0.8448   -3.0424 H   0  0  0  0  0  0  0  0  0  0  0  0
    3.7945   -0.7939   -3.0194 H   0  0  0  0  0  0  0  0  0  0  0  0
    2.6089    1.7553   -1.8249 H   0  0  0  0  0  0  0  0  0  0  0  0
    1.1504   -3.5949    0.8043 H   0  0  0  0  0  0  0  0  0  0  0  0
    1.9504   -3.9163    3.1485 H   0  0  0  0  0  0  0  0  0  0  0  0
    3.4460   -2.2544    4.1998 H   0  0  0  0  0  0  0  0  0  0  0  0
    4.1853   -0.2289    2.9434 H   0  0  0  0  0  0  0  0  0  0  0  0
    3.8169    0.9840    0.3380 H   0  0  0  0  0  0  0  0  0  0  0  0
  1  2  1  0
  2  3  2  0
  3  4  1  0
  4  5  1  0
  4  6  2  0
  6  7  1  0
  7  8  2  0
  7  9  1  0
  9 10  1  0
 10 11  1  0
 11 12  1  0
 12 13  1  0
 13 14  2  0
 13 15  1  0
 15 16  1  0
 16 17  1  0
 17 18  1  0
 18 19  1  0
 19 20  1  0
 20 21  2  0
 21 22  1  0
 22 23  2  0
 23 24  1  0
 24 25  2  0
 25 26  1  0
 26 27  2  0
 27 28  1  0
  9  2  1  0
 19 15  1  0
 28 20  1  0
 27 22  1  0
  1 29  1  0
  1 30  1  0
  1 31  1  0
  3 32  1  0
  5 33  1  0
  6 34  1  0
 10 35  1  0
 10 36  1  0
 11 37  1  0
 11 38  1  0
 12 39  1  0
 12 40  1  0
 16 41  1  0
 16 42  1  0
 17 43  1  0
 17 44  1  0
 18 45  1  0
 18 46  1  0
 19 47  1  0
 23 48  1  0
 24 49  1  0
 25 50  1  0
 26 51  1  0
 28 52  1  0
M  END
$$$$
