
     RDKit          3D

 47 47  0  0  0  0  0  0  0  0999 V2000
   -0.2425   -2.1904   -1.6556 C   0  0  0  0  0  0  0  0  0  0  0  0
    0.8743   -1.8267   -0.8414 N   0  0  0  0  0  0  0  0  0  0  0  0
    1.2251   -2.8693    0.0933 C   0  0  0  0  0  0  0  0  0  0  0  0
    0.9708   -0.4989   -0.4118 C   0  0  0  0  0  0  0  0  0  0  0  0
   -0.0771   -0.0194    0.5544 C   0  0  0  0  0  0  0  0  0  0  0  0
   -1.4253   -0.0212    0.1085 N   0  0  0  0  0  0  0  0  0  0  0  0
   -2.4855    0.3934    1.0007 C   0  0  0  0  0  0  0  0  0  0  0  0
   -2.1237    0.7407    2.1538 O   0  0  0  0  0  0  0  0  0  0  0  0
   -3.8984    0.3943    0.5450 C   0  0  0  0  0  0  0  0  0  0  0  0
   -4.3489   -1.0017    0.1274 C   0  0  0  0  0  0  0  0  0  0  0  0
   -4.7471    0.8766    1.7019 C   0  0  0  0  0  0  0  0  0  0  0  0
   -4.1067    1.3025   -0.6458 C   0  0  0  0  0  0  0  0  0  0  0  0
    2.2622    0.0108    0.0521 C   0  0  0  0  0  0  0  0  0  0  0  0
    2.9873   -0.5804    1.0457 C   0  0  0  0  0  0  0  0  0  0  0  0
    4.2040   -0.0497    1.4170 C   0  0  0  0  0  0  0  0  0  0  0  0
    4.7139    1.0799    0.8012 C   0  0  0  0  0  0  0  0  0  0  0  0
    4.0029    1.6940   -0.2014 C   0  0  0  0  0  0  0  0  0  0  0  0
    2.7953    1.1381   -0.5456 C   0  0  0  0  0  0  0  0  0  0  0  0
    4.7303    2.8060   -0.6540 O   0  0  0  0  0  0  0  0  0  0  0  0
    5.7955    3.0045    0.2503 C   0  0  0  0  0  0  0  0  0  0  0  0
    5.8865    1.8029    0.9777 O   0  0  0  0  0  0  0  0  0  0  0  0
    0.6924    0.0000    0.0000 Cl  0  0  0  0  0  0  0  0  0  0  0  0
    0.1036   -3.1013   -2.2436 H   0  0  0  0  0  0  0  0  0  0  0  0
   -1.0936   -2.4828   -1.0232 H   0  0  0  0  0  0  0  0  0  0  0  0
   -0.4510   -1.3913   -2.3897 H   0  0  0  0  0  0  0  0  0  0  0  0
    0.7403   -2.6539    1.0495 H   0  0  0  0  0  0  0  0  0  0  0  0
    0.6639   -3.7894   -0.2899 H   0  0  0  0  0  0  0  0  0  0  0  0
    2.2610   -3.1815    0.0956 H   0  0  0  0  0  0  0  0  0  0  0  0
    0.6990    0.1121   -1.3770 H   0  0  0  0  0  0  0  0  0  0  0  0
    0.2278    0.9947    0.9352 H   0  0  0  0  0  0  0  0  0  0  0  0
    0.0540   -0.6647    1.4883 H   0  0  0  0  0  0  0  0  0  0  0  0
   -1.7115   -0.2851   -0.8380 H   0  0  0  0  0  0  0  0  0  0  0  0
   -5.3498   -0.9070   -0.3116 H   0  0  0  0  0  0  0  0  0  0  0  0
   -4.4201   -1.6417    1.0419 H   0  0  0  0  0  0  0  0  0  0  0  0
   -3.5827   -1.4130   -0.5524 H   0  0  0  0  0  0  0  0  0  0  0  0
   -5.6533    1.3448    1.2875 H   0  0  0  0  0  0  0  0  0  0  0  0
   -4.1395    1.6580    2.2251 H   0  0  0  0  0  0  0  0  0  0  0  0
   -4.9626    0.0201    2.3748 H   0  0  0  0  0  0  0  0  0  0  0  0
   -4.1800    2.3592   -0.3011 H   0  0  0  0  0  0  0  0  0  0  0  0
   -5.0221    0.9570   -1.1680 H   0  0  0  0  0  0  0  0  0  0  0  0
   -3.2453    1.1797   -1.3199 H   0  0  0  0  0  0  0  0  0  0  0  0
    2.6571   -1.4574    1.5893 H   0  0  0  0  0  0  0  0  0  0  0  0
    4.8014   -0.5174    2.2175 H   0  0  0  0  0  0  0  0  0  0  0  0
    2.2592    1.6552   -1.3465 H   0  0  0  0  0  0  0  0  0  0  0  0
    5.6309    3.8200    0.9690 H   0  0  0  0  0  0  0  0  0  0  0  0
    6.7206    3.1992   -0.3319 H   0  0  0  0  0  0  0  0  0  0  0  0
   -0.6924    0.0000    0.0000 H   0  0  0  0  0  0  0  0  0  0  0  0
  1  2  1  0
  2  3  1  0
  2  4  1  0
  4  5  1  0
  5  6  1  0
  6  7  1  0
  7  8  2  0
  7  9  1  0
  9 10  1  0
  9 11  1  0
  9 12  1  0
  4 13  1  0
 13 14  2  0
 14 15  1  0
 15 16  2  0
 16 17  1  0
 17 18  2  0
 17 19  1  0
 19 20  1  0
 20 21  1  0
 18 13  1  0
 21 16  1  0
  1 23  1  0
  1 24  1  0
  1 25  1  0
  3 26  1  0
  3 27  1  0
  3 28  1  0
  4 29  1  0
  5 30  1  0
  5 31  1  0
  6 32  1  0
 10 33  1  0
 10 34  1  0
 10 35  1  0
 11 36  1  0
 11 37  1  0
 11 38  1  0
 12 39  1  0
 12 40  1  0
 12 41  1  0
 14 42  1  0
 15 43  1  0
 18 44  1  0
 20 45  1  0
 20 46  1  0
 22 47  1  0
M  END
$$$$
