
     RDKit          3D

 44 45  0  0  0  0  0  0  0  0999 V2000
    7.6898    0.9651   -0.0141 C   0  0  0  0  0  0  0  0  0  0  0  0
    6.4254    0.3169    0.0371 O   0  0  0  0  0  0  0  0  0  0  0  0
    5.3724    1.1877   -0.3737 C   0  0  0  0  0  0  0  0  0  0  0  0
    4.0470    0.4409   -0.3085 C   0  0  0  0  0  0  0  0  0  0  0  0
    3.7165    0.0001    1.1151 C   0  0  0  0  0  0  0  0  0  0  0  0
    2.4224   -0.6507    1.1820 N   0  0  0  0  0  0  0  0  0  0  0  0
    1.2500    0.0626    1.2691 C   0  0  0  0  0  0  0  0  0  0  0  0
    1.2010    1.2881    1.2963 O   0  0  0  0  0  0  0  0  0  0  0  0
   -0.0144   -0.7154    1.2629 C   0  0  0  0  0  0  0  0  0  0  0  0
   -1.0702   -0.1654    0.5155 C   0  0  0  0  0  0  0  0  0  0  0  0
   -2.3058   -0.8111    0.4578 C   0  0  0  0  0  0  0  0  0  0  0  0
   -3.3915   -0.2972   -0.3283 N   0  0  0  0  0  0  0  0  0  0  0  0
   -3.8946    1.0500    0.0507 C   0  0  0  0  0  0  0  0  0  0  0  0
   -5.0095    1.5346   -0.8815 C   0  0  0  0  0  0  0  0  0  0  0  0
   -5.7940    0.3836   -1.5017 C   0  0  0  0  0  0  0  0  0  0  0  0
   -4.9574   -0.3977   -2.5092 C   0  0  0  0  0  0  0  0  0  0  0  0
   -3.2554   -0.6052   -1.9984 S   0  0  0  0  0  6  0  0  0  0  0  0
   -2.4652    0.4622   -2.5767 O   0  0  0  0  0  0  0  0  0  0  0  0
   -2.8961   -1.9947   -2.1910 O   0  0  0  0  0  0  0  0  0  0  0  0
   -2.4911   -2.0195    1.1264 C   0  0  0  0  0  0  0  0  0  0  0  0
   -1.4505   -2.5678    1.8784 C   0  0  0  0  0  0  0  0  0  0  0  0
   -0.2129   -1.9171    1.9559 C   0  0  0  0  0  0  0  0  0  0  0  0
    0.9889   -2.6510    2.9571 Cl  0  0  0  0  0  0  0  0  0  0  0  0
    7.7058    1.8272    0.6597 H   0  0  0  0  0  0  0  0  0  0  0  0
    7.9172    1.2810   -1.0368 H   0  0  0  0  0  0  0  0  0  0  0  0
    8.4544    0.2541    0.3101 H   0  0  0  0  0  0  0  0  0  0  0  0
    5.5546    1.5159   -1.4034 H   0  0  0  0  0  0  0  0  0  0  0  0
    5.3454    2.0693    0.2774 H   0  0  0  0  0  0  0  0  0  0  0  0
    4.0910   -0.4464   -0.9523 H   0  0  0  0  0  0  0  0  0  0  0  0
    3.2514    1.0851   -0.7005 H   0  0  0  0  0  0  0  0  0  0  0  0
    3.7106    0.8624    1.7913 H   0  0  0  0  0  0  0  0  0  0  0  0
    4.4542   -0.7192    1.4851 H   0  0  0  0  0  0  0  0  0  0  0  0
    2.3947   -1.6616    1.1279 H   0  0  0  0  0  0  0  0  0  0  0  0
   -0.9116    0.7611   -0.0338 H   0  0  0  0  0  0  0  0  0  0  0  0
   -3.0888    1.7912    0.0777 H   0  0  0  0  0  0  0  0  0  0  0  0
   -4.3048    0.9744    1.0660 H   0  0  0  0  0  0  0  0  0  0  0  0
   -5.6851    2.1892   -0.3184 H   0  0  0  0  0  0  0  0  0  0  0  0
   -4.5803    2.1538   -1.6792 H   0  0  0  0  0  0  0  0  0  0  0  0
   -6.1442   -0.2888   -0.7085 H   0  0  0  0  0  0  0  0  0  0  0  0
   -6.6900    0.7669   -2.0032 H   0  0  0  0  0  0  0  0  0  0  0  0
   -4.9324    0.1222   -3.4727 H   0  0  0  0  0  0  0  0  0  0  0  0
   -5.3896   -1.3909   -2.6641 H   0  0  0  0  0  0  0  0  0  0  0  0
   -3.4432   -2.5399    1.0609 H   0  0  0  0  0  0  0  0  0  0  0  0
   -1.6140   -3.5060    2.4042 H   0  0  0  0  0  0  0  0  0  0  0  0
  1  2  1  0
  2  3  1  0
  3  4  1  0
  4  5  1  0
  5  6  1  0
  6  7  1  0
  7  8  2  0
  7  9  1  0
  9 10  2  0
 10 11  1  0
 11 12  1  0
 12 13  1  0
 13 14  1  0
 14 15  1  0
 15 16  1  0
 16 17  1  0
 17 18  2  0
 17 19  2  0
 11 20  2  0
 20 21  1  0
 21 22  2  0
 22 23  1  0
 22  9  1  0
 17 12  1  0
  1 24  1  0
  1 25  1  0
  1 26  1  0
  3 27  1  0
  3 28  1  0
  4 29  1  0
  4 30  1  0
  5 31  1  0
  5 32  1  0
  6 33  1  0
 10 34  1  0
 13 35  1  0
 13 36  1  0
 14 37  1  0
 14 38  1  0
 15 39  1  0
 15 40  1  0
 16 41  1  0
 16 42  1  0
 20 43  1  0
 21 44  1  0
M  END
$$$$
