
     RDKit          3D

 44 46  0  0  0  0  0  0  0  0999 V2000
   -3.3364    2.3677    0.8695 C   0  0  0  0  0  0  0  0  0  0  0  0
   -2.9401    0.9525    0.4212 C   0  0  0  0  0  0  0  0  0  0  0  0
   -2.9066    0.9064   -1.1070 C   0  0  0  0  0  0  0  0  0  0  0  0
   -3.9812    0.0575    0.8495 O   0  0  0  0  0  0  0  0  0  0  0  0
   -3.6182   -0.5804    1.9970 C   0  0  0  0  0  0  0  0  0  0  0  0
   -4.3519   -1.3251    2.6264 O   0  0  0  0  0  0  0  0  0  0  0  0
   -2.2407   -0.1706    2.4102 C   0  0  0  0  0  0  0  0  0  0  0  0
   -1.6797    0.4819    1.1529 C   0  0  0  0  0  0  0  0  0  0  0  0
   -0.8414   -0.5202    0.3608 C   0  0  0  0  0  0  0  0  0  0  0  0
   -1.0672   -1.7280    0.4694 O   0  0  0  0  0  0  0  0  0  0  0  0
    0.1303   -0.0376   -0.5144 N   0  0  0  0  0  0  0  0  0  0  0  0
    0.6026    1.3506   -0.5446 C   0  0  0  0  0  0  0  0  0  0  0  0
    1.0509    1.7801   -1.9371 C   0  0  0  0  0  0  0  0  0  0  0  0
    2.0899    0.8327   -2.5158 C   0  0  0  0  0  0  0  0  0  0  0  0
    1.5840   -0.6062   -2.4770 C   0  0  0  0  0  0  0  0  0  0  0  0
    1.0435   -1.0438   -1.1020 C   0  0  0  0  0  0  0  0  0  0  0  0
    2.1538   -1.4467   -0.1248 C   0  0  0  0  0  0  0  0  0  0  0  0
    2.0492   -2.6442    0.5850 C   0  0  0  0  0  0  0  0  0  0  0  0
    3.0494   -2.9893    1.4900 C   0  0  0  0  0  0  0  0  0  0  0  0
    4.1265   -2.1333    1.6723 C   0  0  0  0  0  0  0  0  0  0  0  0
    4.1545   -0.9584    0.9429 C   0  0  0  0  0  0  0  0  0  0  0  0
    3.1968   -0.5953    0.0609 N   0  0  0  0  0  0  0  0  0  0  0  0
   -3.4611    2.4252    1.9566 H   0  0  0  0  0  0  0  0  0  0  0  0
   -2.5859    3.1058    0.5684 H   0  0  0  0  0  0  0  0  0  0  0  0
   -4.3015    2.6569    0.4375 H   0  0  0  0  0  0  0  0  0  0  0  0
   -2.7263   -0.1089   -1.4766 H   0  0  0  0  0  0  0  0  0  0  0  0
   -3.8796    1.1987   -1.5204 H   0  0  0  0  0  0  0  0  0  0  0  0
   -2.1519    1.5787   -1.5227 H   0  0  0  0  0  0  0  0  0  0  0  0
   -1.6663   -1.0333    2.7569 H   0  0  0  0  0  0  0  0  0  0  0  0
   -2.3329    0.5583    3.2221 H   0  0  0  0  0  0  0  0  0  0  0  0
   -1.0309    1.3041    1.4683 H   0  0  0  0  0  0  0  0  0  0  0  0
    1.4184    1.4473    0.1799 H   0  0  0  0  0  0  0  0  0  0  0  0
   -0.1863    2.0349   -0.2266 H   0  0  0  0  0  0  0  0  0  0  0  0
    1.4554    2.7976   -1.8995 H   0  0  0  0  0  0  0  0  0  0  0  0
    0.1807    1.8061   -2.6050 H   0  0  0  0  0  0  0  0  0  0  0  0
    3.0304    0.9293   -1.9643 H   0  0  0  0  0  0  0  0  0  0  0  0
    2.3092    1.1156   -3.5519 H   0  0  0  0  0  0  0  0  0  0  0  0
    0.7640   -0.6866   -3.2039 H   0  0  0  0  0  0  0  0  0  0  0  0
    2.3719   -1.2875   -2.8202 H   0  0  0  0  0  0  0  0  0  0  0  0
    0.4560   -1.9500   -1.3040 H   0  0  0  0  0  0  0  0  0  0  0  0
    1.1925   -3.2987    0.4479 H   0  0  0  0  0  0  0  0  0  0  0  0
    2.9816   -3.9174    2.0507 H   0  0  0  0  0  0  0  0  0  0  0  0
    4.9213   -2.3732    2.3692 H   0  0  0  0  0  0  0  0  0  0  0  0
    4.9735   -0.2533    1.0523 H   0  0  0  0  0  0  0  0  0  0  0  0
  1  2  1  0
  2  3  1  0
  2  4  1  0
  4  5  1  0
  5  6  2  0
  5  7  1  0
  7  8  1  0
  8  9  1  0
  9 10  2  0
  9 11  1  0
 11 12  1  0
 12 13  1  0
 13 14  1  0
 14 15  1  0
 15 16  1  0
 16 17  1  0
 17 18  2  0
 18 19  1  0
 19 20  2  0
 20 21  1  0
 21 22  2  0
  8  2  1  0
 16 11  1  0
 22 17  1  0
  1 23  1  0
  1 24  1  0
  1 25  1  0
  3 26  1  0
  3 27  1  0
  3 28  1  0
  7 29  1  0
  7 30  1  0
  8 31  1  0
 12 32  1  0
 12 33  1  0
 13 34  1  0
 13 35  1  0
 14 36  1  0
 14 37  1  0
 15 38  1  0
 15 39  1  0
 16 40  1  0
 18 41  1  0
 19 42  1  0
 20 43  1  0
 21 44  1  0
M  END
$$$$
