
     RDKit          3D

 33 34  0  0  0  0  0  0  0  0999 V2000
    4.8671    1.5561   -2.3078 C   0  0  0  0  0  0  0  0  0  0  0  0
    3.8784    1.0638   -1.3345 C   0  0  0  0  0  0  0  0  0  0  0  0
    2.5196    0.8754   -1.3543 C   0  0  0  0  0  0  0  0  0  0  0  0
    2.2047    0.3862   -0.0627 C   0  0  0  0  0  0  0  0  0  0  0  0
    0.9238    0.0461    0.3261 N   0  0  0  0  0  0  0  0  0  0  0  0
    0.5465   -0.2385    1.6227 C   0  0  0  0  0  0  0  0  0  0  0  0
    1.2786   -0.1955    2.6107 O   0  0  0  0  0  0  0  0  0  0  0  0
   -0.8754   -0.7770    1.7712 C   0  0  2  0  0  0  0  0  0  0  0  0
   -0.8383   -2.2942    1.4963 C   0  0  0  0  0  0  0  0  0  0  0  0
   -2.1814   -2.6064    0.8652 C   0  0  0  0  0  0  0  0  0  0  0  0
   -2.4503   -1.3680    0.0306 C   0  0  0  0  0  0  0  0  0  0  0  0
   -1.9901   -0.2767    0.9054 N   0  0  0  0  0  0  0  0  0  0  0  0
   -1.9795    1.2987    0.3572 S   0  0  0  0  0  6  0  0  0  0  0  0
   -3.7003    1.6295    0.0382 C   0  0  0  0  0  0  0  0  0  0  0  0
   -1.5491    2.1390    1.4491 O   0  0  0  0  0  0  0  0  0  0  0  0
   -1.2539    1.2733   -0.8976 O   0  0  0  0  0  0  0  0  0  0  0  0
    3.3106    0.2732    0.6777 N   0  0  0  0  0  0  0  0  0  0  0  0
    4.3554    0.7062   -0.1142 O   0  0  0  0  0  0  0  0  0  0  0  0
    5.7829    0.9576   -2.2695 H   0  0  0  0  0  0  0  0  0  0  0  0
    4.4720    1.5033   -3.3274 H   0  0  0  0  0  0  0  0  0  0  0  0
    5.1264    2.5976   -2.0940 H   0  0  0  0  0  0  0  0  0  0  0  0
    1.8466    1.0760   -2.1736 H   0  0  0  0  0  0  0  0  0  0  0  0
    0.2058    0.1876   -0.3770 H   0  0  0  0  0  0  0  0  0  0  0  0
   -1.1914   -0.5987    2.8073 H   0  0  0  0  0  0  0  0  0  0  0  0
   -0.0331   -2.5586    0.7992 H   0  0  0  0  0  0  0  0  0  0  0  0
   -0.6733   -2.8684    2.4140 H   0  0  0  0  0  0  0  0  0  0  0  0
   -2.1664   -3.5215    0.2667 H   0  0  0  0  0  0  0  0  0  0  0  0
   -2.9455   -2.7159    1.6444 H   0  0  0  0  0  0  0  0  0  0  0  0
   -1.8689   -1.3909   -0.8973 H   0  0  0  0  0  0  0  0  0  0  0  0
   -3.5143   -1.2810   -0.2014 H   0  0  0  0  0  0  0  0  0  0  0  0
   -4.0534    0.9794   -0.7636 H   0  0  0  0  0  0  0  0  0  0  0  0
   -4.2664    1.4692    0.9576 H   0  0  0  0  0  0  0  0  0  0  0  0
   -3.7875    2.6735   -0.2715 H   0  0  0  0  0  0  0  0  0  0  0  0
  1  2  1  0
  2  3  2  0
  3  4  1  0
  4  5  1  0
  5  6  1  0
  6  7  2  0
  6  8  1  0
  8  9  1  0
  9 10  1  0
 10 11  1  0
 11 12  1  0
 12 13  1  0
 13 14  1  0
 13 15  2  0
 13 16  2  0
  4 17  2  0
 17 18  1  0
 18  2  1  0
 12  8  1  0
  1 19  1  0
  1 20  1  0
  1 21  1  0
  3 22  1  0
  5 23  1  0
  8 24  1  1
  9 25  1  0
  9 26  1  0
 10 27  1  0
 10 28  1  0
 11 29  1  0
 11 30  1  0
 14 31  1  0
 14 32  1  0
 14 33  1  0
M  END
$$$$
