
     RDKit          3D

 59 61  0  0  0  0  0  0  0  0999 V2000
    5.0903    3.6722   -2.2280 C   0  0  0  0  0  0  0  0  0  0  0  0
    5.0539    2.7540   -1.1519 O   0  0  0  0  0  0  0  0  0  0  0  0
    4.2384    1.6405   -1.1496 C   0  0  0  0  0  0  0  0  0  0  0  0
    3.4059    1.3618   -2.2097 C   0  0  0  0  0  0  0  0  0  0  0  0
    2.5926    0.2349   -2.1872 C   0  0  0  0  0  0  0  0  0  0  0  0
    2.6046   -0.6178   -1.1112 C   0  0  0  0  0  0  0  0  0  0  0  0
    1.6171   -2.0503   -1.0073 S   0  0  0  0  0  6  0  0  0  0  0  0
    2.3379   -3.0517   -0.1539 O   0  0  0  0  0  0  0  0  0  0  0  0
    1.3844   -2.5529   -2.3925 O   0  0  0  0  0  0  0  0  0  0  0  0
    0.0831   -1.7509   -0.2815 N   0  0  0  0  0  0  0  0  0  0  0  0
   -0.6050   -0.8019   -1.1170 C   0  0  0  0  0  0  0  0  0  0  0  0
   -1.9803   -0.4280   -0.6211 C   0  0  0  0  0  0  0  0  0  0  0  0
   -1.8713    0.1755    0.7315 C   0  0  0  0  0  0  0  0  0  0  0  0
   -1.8638   -0.5750    1.8824 C   0  0  0  0  0  0  0  0  0  0  0  0
   -1.7650    0.0174    3.1102 C   0  0  0  0  0  0  0  0  0  0  0  0
   -1.6694    1.3796    3.2428 C   0  0  0  0  0  0  0  0  0  0  0  0
   -1.6760    2.1422    2.0865 C   0  0  0  0  0  0  0  0  0  0  0  0
   -1.7738    1.5709    0.8536 C   0  0  0  0  0  0  0  0  0  0  0  0
   -1.5679    3.4728    2.5118 O   0  0  0  0  0  0  0  0  0  0  0  0
   -1.8760    3.5703    3.8909 C   0  0  0  0  0  0  0  0  0  0  0  0
   -1.5608    2.2368    4.3197 O   0  0  0  0  0  0  0  0  0  0  0  0
   -2.9842   -1.3620   -0.7644 N   0  0  0  0  0  0  0  0  0  0  0  0
   -2.9993   -2.6304   -0.2080 C   0  0  0  0  0  0  0  0  0  0  0  0
   -3.6745   -3.5809   -1.2355 C   0  0  0  0  0  0  0  0  0  0  0  0
   -4.9761   -3.2193   -1.4700 O   0  0  0  0  0  0  0  0  0  0  0  0
   -5.1941   -1.8606   -1.4964 C   0  0  0  0  0  0  0  0  0  0  0  0
   -3.8821   -1.1860   -1.8826 C   0  0  0  0  0  0  0  0  0  0  0  0
    3.4457   -0.3219   -0.0577 C   0  0  0  0  0  0  0  0  0  0  0  0
    4.2659    0.7889   -0.0485 C   0  0  0  0  0  0  0  0  0  0  0  0
    5.1120    1.0867    1.0114 O   0  0  0  0  0  0  0  0  0  0  0  0
    5.1263    0.2096    2.1225 C   0  0  0  0  0  0  0  0  0  0  0  0
    0.6890    0.0000    0.0000 Cl  0  0  0  0  0  0  0  0  0  0  0  0
    4.2139    4.3526   -2.0785 H   0  0  0  0  0  0  0  0  0  0  0  0
    5.0643    3.1200   -3.1662 H   0  0  0  0  0  0  0  0  0  0  0  0
    6.0369    4.2696   -2.2195 H   0  0  0  0  0  0  0  0  0  0  0  0
    3.3648    2.0039   -3.0736 H   0  0  0  0  0  0  0  0  0  0  0  0
    1.9277   -0.0050   -3.0128 H   0  0  0  0  0  0  0  0  0  0  0  0
    0.1721   -1.4313    0.7079 H   0  0  0  0  0  0  0  0  0  0  0  0
    0.0249    0.1337   -1.1208 H   0  0  0  0  0  0  0  0  0  0  0  0
   -0.6042   -1.1661   -2.1483 H   0  0  0  0  0  0  0  0  0  0  0  0
   -2.2913    0.4677   -1.2930 H   0  0  0  0  0  0  0  0  0  0  0  0
   -1.9329   -1.6732    1.7951 H   0  0  0  0  0  0  0  0  0  0  0  0
   -1.7641   -0.6280    3.9938 H   0  0  0  0  0  0  0  0  0  0  0  0
   -1.7778    2.1856   -0.0653 H   0  0  0  0  0  0  0  0  0  0  0  0
   -1.2612    4.3116    4.4125 H   0  0  0  0  0  0  0  0  0  0  0  0
   -2.9611    3.7009    4.0711 H   0  0  0  0  0  0  0  0  0  0  0  0
   -3.7007   -2.6782    0.6652 H   0  0  0  0  0  0  0  0  0  0  0  0
   -2.0431   -3.1411    0.0062 H   0  0  0  0  0  0  0  0  0  0  0  0
   -3.0569   -3.5363   -2.1336 H   0  0  0  0  0  0  0  0  0  0  0  0
   -3.6092   -4.6127   -0.8169 H   0  0  0  0  0  0  0  0  0  0  0  0
   -6.0158   -1.5442   -2.1677 H   0  0  0  0  0  0  0  0  0  0  0  0
   -5.4198   -1.5398   -0.4531 H   0  0  0  0  0  0  0  0  0  0  0  0
   -4.0935   -0.1239   -2.0996 H   0  0  0  0  0  0  0  0  0  0  0  0
   -3.5360   -1.6617   -2.8101 H   0  0  0  0  0  0  0  0  0  0  0  0
    3.4653   -0.9833    0.7943 H   0  0  0  0  0  0  0  0  0  0  0  0
    4.1463    0.2870    2.6400 H   0  0  0  0  0  0  0  0  0  0  0  0
    5.2355   -0.8629    1.8055 H   0  0  0  0  0  0  0  0  0  0  0  0
    5.9774    0.4310    2.8078 H   0  0  0  0  0  0  0  0  0  0  0  0
   -0.6890    0.0000    0.0000 H   0  0  0  0  0  0  0  0  0  0  0  0
  1  2  1  0
  2  3  1  0
  3  4  2  0
  4  5  1  0
  5  6  2  0
  6  7  1  0
  7  8  2  0
  7  9  2  0
  7 10  1  0
 10 11  1  0
 11 12  1  0
 12 13  1  0
 13 14  2  0
 14 15  1  0
 15 16  2  0
 16 17  1  0
 17 18  2  0
 17 19  1  0
 19 20  1  0
 20 21  1  0
 12 22  1  0
 22 23  1  0
 23 24  1  0
 24 25  1  0
 25 26  1  0
 26 27  1  0
  6 28  1  0
 28 29  2  0
 29 30  1  0
 30 31  1  0
 29  3  1  0
 18 13  1  0
 27 22  1  0
 21 16  1  0
  1 33  1  0
  1 34  1  0
  1 35  1  0
  4 36  1  0
  5 37  1  0
 10 38  1  0
 11 39  1  0
 11 40  1  0
 12 41  1  0
 14 42  1  0
 15 43  1  0
 18 44  1  0
 20 45  1  0
 20 46  1  0
 23 47  1  0
 23 48  1  0
 24 49  1  0
 24 50  1  0
 26 51  1  0
 26 52  1  0
 27 53  1  0
 27 54  1  0
 28 55  1  0
 31 56  1  0
 31 57  1  0
 31 58  1  0
 32 59  1  0
M  END
$$$$
