
     RDKit          3D

 29 30  0  0  0  0  0  0  0  0999 V2000
   -2.0540    2.3384    1.3127 C   0  0  0  0  0  0  0  0  0  0  0  0
   -1.0658    1.4598    0.7897 O   0  0  0  0  0  0  0  0  0  0  0  0
   -1.5081    0.2930    0.2073 C   0  0  0  0  0  0  0  0  0  0  0  0
   -2.8527   -0.0723    0.0667 C   0  0  0  0  0  0  0  0  0  0  0  0
   -3.2065   -1.2664   -0.5694 C   0  0  0  0  0  0  0  0  0  0  0  0
   -4.5443   -1.6792   -0.6022 N   0  0  0  0  0  0  0  0  0  0  0  0
   -2.1951   -2.1396   -0.9699 C   0  0  0  0  0  0  0  0  0  0  0  0
   -0.8480   -1.7877   -0.8387 C   0  0  0  0  0  0  0  0  0  0  0  0
   -0.4951   -0.5694   -0.2607 C   0  0  0  0  0  0  0  0  0  0  0  0
    0.8375   -0.1407   -0.0948 N   0  0  0  0  0  0  0  0  0  0  0  0
    2.0090   -0.7697   -0.4605 C   0  0  0  0  0  0  0  0  0  0  0  0
    2.0869   -1.8580   -1.0220 O   0  0  0  0  0  0  0  0  0  0  0  0
    3.1906    0.0008   -0.1117 C   0  0  0  0  0  0  0  0  0  0  0  0
    4.5350   -0.2637   -0.2964 C   0  0  0  0  0  0  0  0  0  0  0  0
    5.2462    0.8369    0.2381 C   0  0  0  0  0  0  0  0  0  0  0  0
    4.2976    1.7085    0.7172 C   0  0  0  0  0  0  0  0  0  0  0  0
    3.0490    1.2156    0.5121 O   0  0  0  0  0  0  0  0  0  0  0  0
   -2.6254    1.8584    2.1140 H   0  0  0  0  0  0  0  0  0  0  0  0
   -2.7129    2.7078    0.5201 H   0  0  0  0  0  0  0  0  0  0  0  0
   -1.5379    3.2015    1.7443 H   0  0  0  0  0  0  0  0  0  0  0  0
   -3.6477    0.5598    0.4452 H   0  0  0  0  0  0  0  0  0  0  0  0
   -5.2143   -0.9170   -0.6152 H   0  0  0  0  0  0  0  0  0  0  0  0
   -4.7405   -2.3749   -1.3159 H   0  0  0  0  0  0  0  0  0  0  0  0
   -2.4427   -3.1091   -1.3948 H   0  0  0  0  0  0  0  0  0  0  0  0
   -0.1016   -2.4947   -1.1854 H   0  0  0  0  0  0  0  0  0  0  0  0
    0.9389    0.7649    0.3575 H   0  0  0  0  0  0  0  0  0  0  0  0
    4.9386   -1.1521   -0.7638 H   0  0  0  0  0  0  0  0  0  0  0  0
    6.3176    0.9774    0.2703 H   0  0  0  0  0  0  0  0  0  0  0  0
    4.3456    2.6717    1.2064 H   0  0  0  0  0  0  0  0  0  0  0  0
  1  2  1  0
  2  3  1  0
  3  4  2  0
  4  5  1  0
  5  6  1  0
  5  7  2  0
  7  8  1  0
  8  9  2  0
  9 10  1  0
 10 11  1  0
 11 12  2  0
 11 13  1  0
 13 14  2  0
 14 15  1  0
 15 16  2  0
 16 17  1  0
  9  3  1  0
 17 13  1  0
  1 18  1  0
  1 19  1  0
  1 20  1  0
  4 21  1  0
  6 22  1  0
  6 23  1  0
  7 24  1  0
  8 25  1  0
 10 26  1  0
 14 27  1  0
 15 28  1  0
 16 29  1  0
M  END
$$$$
