
     RDKit          3D

 46 49  0  0  0  0  0  0  0  0999 V2000
   -1.1531   -1.3248    2.3339 O   0  0  0  0  0  0  0  0  0  0  0  0
   -1.0340   -0.8338    1.2115 C   0  0  0  0  0  0  0  0  0  0  0  0
   -2.0651   -0.1276    0.6182 N   0  0  0  0  0  0  0  0  0  0  0  0
   -3.4003   -0.1066    1.1791 C   0  0  0  0  0  0  0  0  0  0  0  0
   -4.3384    0.8031    0.3679 C   0  0  0  0  0  0  0  0  0  0  0  0
   -4.2497    0.5868   -1.0936 N   0  0  0  0  0  0  0  0  0  0  0  0
   -4.7799   -0.7384   -1.4911 C   0  0  0  0  0  0  0  0  0  0  0  0
   -4.7755   -0.9083   -3.0206 C   0  0  0  0  0  0  0  0  0  0  0  0
   -5.5482    0.1171   -3.6578 O   0  0  0  0  0  0  0  0  0  0  0  0
   -5.0138    1.4054   -3.3274 C   0  0  0  0  0  0  0  0  0  0  0  0
   -5.0190    1.6328   -1.8077 C   0  0  0  0  0  0  0  0  0  0  0  0
    0.1522   -0.9587    0.3883 C   0  0  0  0  0  0  0  0  0  0  0  0
    0.2978   -0.5204   -0.8494 N   0  0  0  0  0  0  0  0  0  0  0  0
    1.5664   -0.8923   -1.2461 N   0  0  0  0  0  0  0  0  0  0  0  0
    2.1054   -1.5246   -0.2227 C   0  0  0  0  0  0  0  0  0  0  0  0
    3.4408   -2.1573   -0.0999 C   0  0  0  0  0  0  0  0  0  0  0  0
    4.4708   -1.2448    0.5261 C   0  0  0  0  0  0  0  0  0  0  0  0
    5.1981   -0.3369   -0.2804 C   0  0  0  0  0  0  0  0  0  0  0  0
    6.1474    0.5230    0.2811 C   0  0  0  0  0  0  0  0  0  0  0  0
    6.3449    0.4592    1.6436 C   0  0  0  0  0  0  0  0  0  0  0  0
    5.6370   -0.4110    2.4381 C   0  0  0  0  0  0  0  0  0  0  0  0
    4.6932   -1.2716    1.9142 C   0  0  0  0  0  0  0  0  0  0  0  0
    5.9787   -0.3106    3.7511 O   0  0  0  0  0  0  0  0  0  0  0  0
    6.9842    0.7221    3.6902 C   0  0  0  0  0  0  0  0  0  0  0  0
    7.2226    1.2153    2.3555 O   0  0  0  0  0  0  0  0  0  0  0  0
    1.2627   -1.6158    0.8539 O   0  0  0  0  0  0  0  0  0  0  0  0
   -1.9733    0.1156   -0.3661 H   0  0  0  0  0  0  0  0  0  0  0  0
   -3.7727   -1.1372    1.2015 H   0  0  0  0  0  0  0  0  0  0  0  0
   -3.3386    0.2416    2.2171 H   0  0  0  0  0  0  0  0  0  0  0  0
   -5.3674    0.6874    0.7312 H   0  0  0  0  0  0  0  0  0  0  0  0
   -4.0401    1.8383    0.5781 H   0  0  0  0  0  0  0  0  0  0  0  0
   -4.1704   -1.5380   -1.0576 H   0  0  0  0  0  0  0  0  0  0  0  0
   -5.8082   -0.8555   -1.1249 H   0  0  0  0  0  0  0  0  0  0  0  0
   -5.2206   -1.8722   -3.2887 H   0  0  0  0  0  0  0  0  0  0  0  0
   -3.7536   -0.8934   -3.4185 H   0  0  0  0  0  0  0  0  0  0  0  0
   -5.6410    2.1579   -3.8163 H   0  0  0  0  0  0  0  0  0  0  0  0
   -4.0022    1.4944   -3.7422 H   0  0  0  0  0  0  0  0  0  0  0  0
   -6.0584    1.6360   -1.4526 H   0  0  0  0  0  0  0  0  0  0  0  0
   -4.5900    2.6199   -1.5986 H   0  0  0  0  0  0  0  0  0  0  0  0
    3.7906   -2.4669   -1.0927 H   0  0  0  0  0  0  0  0  0  0  0  0
    3.3609   -3.0824    0.4837 H   0  0  0  0  0  0  0  0  0  0  0  0
    5.0198   -0.2957   -1.3542 H   0  0  0  0  0  0  0  0  0  0  0  0
    6.7065    1.2204   -0.3327 H   0  0  0  0  0  0  0  0  0  0  0  0
    4.1442   -1.9426    2.5674 H   0  0  0  0  0  0  0  0  0  0  0  0
    7.9230    0.3173    4.0875 H   0  0  0  0  0  0  0  0  0  0  0  0
    6.6662    1.5590    4.3224 H   0  0  0  0  0  0  0  0  0  0  0  0
  1  2  2  0
  2  3  1  0
  3  4  1  0
  4  5  1  0
  5  6  1  0
  6  7  1  0
  7  8  1  0
  8  9  1  0
  9 10  1  0
 10 11  1  0
  2 12  1  0
 12 13  2  0
 13 14  1  0
 14 15  2  0
 15 16  1  0
 16 17  1  0
 17 18  2  0
 18 19  1  0
 19 20  2  0
 20 21  1  0
 21 22  2  0
 21 23  1  0
 23 24  1  0
 24 25  1  0
 15 26  1  0
 11  6  1  0
 26 12  1  0
 22 17  1  0
 25 20  1  0
  3 27  1  0
  4 28  1  0
  4 29  1  0
  5 30  1  0
  5 31  1  0
  7 32  1  0
  7 33  1  0
  8 34  1  0
  8 35  1  0
 10 36  1  0
 10 37  1  0
 11 38  1  0
 11 39  1  0
 16 40  1  0
 16 41  1  0
 18 42  1  0
 19 43  1  0
 22 44  1  0
 24 45  1  0
 24 46  1  0
M  END
$$$$
