
     RDKit          3D

 68 72  0  0  0  0  0  0  0  0999 V2000
   -8.5215    1.1492   -0.4331 C   0  0  0  0  0  0  0  0  0  0  0  0
   -7.0972    1.4451   -0.0444 C   0  0  0  0  0  0  0  0  0  0  0  0
   -6.7533    2.7644    0.2929 C   0  0  0  0  0  0  0  0  0  0  0  0
   -5.4530    3.0876    0.6718 C   0  0  0  0  0  0  0  0  0  0  0  0
   -4.4788    2.0936    0.7178 C   0  0  0  0  0  0  0  0  0  0  0  0
   -4.7830    0.7642    0.3762 C   0  0  0  0  0  0  0  0  0  0  0  0
   -3.8006   -0.2444    0.4389 N   0  0  0  0  0  0  0  0  0  0  0  0
   -3.3675   -0.5656    1.8092 C   0  0  0  0  0  0  0  0  0  0  0  0
   -2.4100   -1.7684    1.7762 C   0  0  0  0  0  0  0  0  0  0  0  0
   -1.2681   -1.5937    0.8639 N   0  0  0  0  0  0  0  0  0  0  0  0
   -0.2724   -2.5489    0.9126 C   0  0  0  0  0  0  0  0  0  0  0  0
   -0.3758   -3.5231    1.6716 O   0  0  0  0  0  0  0  0  0  0  0  0
    0.9795   -2.4621    0.0415 C   0  0  0  0  0  0  0  0  0  0  0  0
    0.7180   -2.7623   -1.4378 C   0  0  0  0  0  0  0  0  0  0  0  0
    1.9313   -2.3528   -2.2615 C   0  0  0  0  0  0  0  0  0  0  0  0
    2.2244   -0.8567   -2.1567 C   0  0  0  0  0  0  0  0  0  0  0  0
    1.8117   -0.2886   -0.8505 N   0  0  0  0  0  0  0  0  0  0  0  0
    2.2212    1.3367   -0.5551 S   0  0  0  0  0  6  0  0  0  0  0  0
    2.0613    2.0738   -1.7910 O   0  0  0  0  0  0  0  0  0  0  0  0
    1.5407    1.7536    0.6532 O   0  0  0  0  0  0  0  0  0  0  0  0
    3.9651    1.2643   -0.1928 C   0  0  0  0  0  0  0  0  0  0  0  0
    4.3904    1.1446    1.1504 C   0  0  0  0  0  0  0  0  0  0  0  0
    5.7550    1.1154    1.4612 C   0  0  0  0  0  0  0  0  0  0  0  0
    6.6395    1.2187    0.4089 C   0  0  0  0  0  0  0  0  0  0  0  0
    6.2203    1.3585   -0.9010 C   0  0  0  0  0  0  0  0  0  0  0  0
    4.8855    1.3988   -1.2389 C   0  0  0  0  0  0  0  0  0  0  0  0
    7.2745    1.4593   -1.7938 O   0  0  0  0  0  0  0  0  0  0  0  0
    8.3964    1.3843   -0.9512 C   0  0  0  0  0  0  0  0  0  0  0  0
    9.5457    1.4587   -1.3660 O   0  0  0  0  0  0  0  0  0  0  0  0
    8.0126    1.2231    0.3662 N   0  0  0  0  0  0  0  0  0  0  0  0
    8.8890    1.1796    1.5019 C   0  0  0  0  0  0  0  0  0  0  0  0
    1.8375   -1.2195    0.3027 C   0  0  0  0  0  0  0  0  0  0  0  0
   -1.3130   -0.3868    0.0278 C   0  0  0  0  0  0  0  0  0  0  0  0
   -2.7114   -0.0887   -0.5530 C   0  0  0  0  0  0  0  0  0  0  0  0
   -6.1014    0.4384   -0.0275 C   0  0  0  0  0  0  0  0  0  0  0  0
   -6.4443   -0.9948   -0.3657 C   0  0  0  0  0  0  0  0  0  0  0  0
   -8.5789    0.9076   -1.4977 H   0  0  0  0  0  0  0  0  0  0  0  0
   -8.9161    0.3157    0.1576 H   0  0  0  0  0  0  0  0  0  0  0  0
   -9.1767    2.0076   -0.2491 H   0  0  0  0  0  0  0  0  0  0  0  0
   -7.5033    3.5525    0.2693 H   0  0  0  0  0  0  0  0  0  0  0  0
   -5.1973    4.1075    0.9417 H   0  0  0  0  0  0  0  0  0  0  0  0
   -3.4707    2.3585    1.0249 H   0  0  0  0  0  0  0  0  0  0  0  0
   -4.2342   -0.8218    2.4316 H   0  0  0  0  0  0  0  0  0  0  0  0
   -2.8633    0.2922    2.2725 H   0  0  0  0  0  0  0  0  0  0  0  0
   -2.0305   -1.9648    2.7866 H   0  0  0  0  0  0  0  0  0  0  0  0
   -2.9484   -2.6660    1.4456 H   0  0  0  0  0  0  0  0  0  0  0  0
    1.6010   -3.2981    0.4048 H   0  0  0  0  0  0  0  0  0  0  0  0
    0.5427   -3.8377   -1.5610 H   0  0  0  0  0  0  0  0  0  0  0  0
   -0.1838   -2.2719   -1.8161 H   0  0  0  0  0  0  0  0  0  0  0  0
    2.8071   -2.9125   -1.9056 H   0  0  0  0  0  0  0  0  0  0  0  0
    1.7981   -2.6366   -3.3121 H   0  0  0  0  0  0  0  0  0  0  0  0
    1.6658   -0.3327   -2.9435 H   0  0  0  0  0  0  0  0  0  0  0  0
    3.2939   -0.7002   -2.3316 H   0  0  0  0  0  0  0  0  0  0  0  0
    3.6576    1.0818    1.9535 H   0  0  0  0  0  0  0  0  0  0  0  0
    6.0915    1.0208    2.4873 H   0  0  0  0  0  0  0  0  0  0  0  0
    4.5741    1.5332   -2.2696 H   0  0  0  0  0  0  0  0  0  0  0  0
    8.8180    2.1287    2.0406 H   0  0  0  0  0  0  0  0  0  0  0  0
    8.6037    0.3565    2.1627 H   0  0  0  0  0  0  0  0  0  0  0  0
    9.9236    1.0361    1.1772 H   0  0  0  0  0  0  0  0  0  0  0  0
    2.8792   -1.5253    0.4637 H   0  0  0  0  0  0  0  0  0  0  0  0
    1.5063   -0.7195    1.2185 H   0  0  0  0  0  0  0  0  0  0  0  0
   -0.6139   -0.4493   -0.7991 H   0  0  0  0  0  0  0  0  0  0  0  0
   -0.9960    0.4452    0.6691 H   0  0  0  0  0  0  0  0  0  0  0  0
   -2.6917    0.9131   -1.0054 H   0  0  0  0  0  0  0  0  0  0  0  0
   -2.9101   -0.7985   -1.3692 H   0  0  0  0  0  0  0  0  0  0  0  0
   -7.2695   -1.0565   -1.0814 H   0  0  0  0  0  0  0  0  0  0  0  0
   -5.6008   -1.5108   -0.8375 H   0  0  0  0  0  0  0  0  0  0  0  0
   -6.7258   -1.5338    0.5469 H   0  0  0  0  0  0  0  0  0  0  0  0
  1  2  1  0
  2  3  2  0
  3  4  1  0
  4  5  2  0
  5  6  1  0
  6  7  1  0
  7  8  1  0
  8  9  1  0
  9 10  1  0
 10 11  1  0
 11 12  2  0
 11 13  1  0
 13 14  1  0
 14 15  1  0
 15 16  1  0
 16 17  1  0
 17 18  1  0
 18 19  2  0
 18 20  2  0
 18 21  1  0
 21 22  2  0
 22 23  1  0
 23 24  2  0
 24 25  1  0
 25 26  2  0
 25 27  1  0
 27 28  1  0
 28 29  2  0
 28 30  1  0
 30 31  1  0
 17 32  1  0
 10 33  1  0
 33 34  1  0
  6 35  2  0
 35 36  1  0
 35  2  1  0
 34  7  1  0
 32 13  1  0
 26 21  1  0
 30 24  1  0
  1 37  1  0
  1 38  1  0
  1 39  1  0
  3 40  1  0
  4 41  1  0
  5 42  1  0
  8 43  1  0
  8 44  1  0
  9 45  1  0
  9 46  1  0
 13 47  1  0
 14 48  1  0
 14 49  1  0
 15 50  1  0
 15 51  1  0
 16 52  1  0
 16 53  1  0
 22 54  1  0
 23 55  1  0
 26 56  1  0
 31 57  1  0
 31 58  1  0
 31 59  1  0
 32 60  1  0
 32 61  1  0
 33 62  1  0
 33 63  1  0
 34 64  1  0
 34 65  1  0
 36 66  1  0
 36 67  1  0
 36 68  1  0
M  END
$$$$
