
     RDKit          3D

 42 44  0  0  0  0  0  0  0  0999 V2000
    3.1062   -0.9150    2.5312 C   0  0  0  0  0  0  0  0  0  0  0  0
    3.2574    0.4849    1.9878 C   0  0  0  0  0  0  0  0  0  0  0  0
    3.8152    1.3595    2.6415 O   0  0  0  0  0  0  0  0  0  0  0  0
    2.7331    0.5996    0.7150 N   0  0  0  0  0  0  0  0  0  0  0  0
    2.6210    1.7500   -0.0972 C   0  0  0  0  0  0  0  0  0  0  0  0
    2.9725    3.0271    0.3558 C   0  0  0  0  0  0  0  0  0  0  0  0
    2.8115    4.1476   -0.4683 C   0  0  0  0  0  0  0  0  0  0  0  0
    2.3066    4.0035   -1.7556 C   0  0  0  0  0  0  0  0  0  0  0  0
    1.9646    2.7365   -2.2289 C   0  0  0  0  0  0  0  0  0  0  0  0
    2.1118    1.6040   -1.4106 C   0  0  0  0  0  0  0  0  0  0  0  0
    1.7668    0.0056   -2.1641 S   0  0  0  0  0  0  0  0  0  0  0  0
    0.2833   -0.4122   -1.3690 C   0  0  0  0  0  0  0  0  0  0  0  0
   -0.0493   -0.0396   -0.1489 N   0  0  0  0  0  0  0  0  0  0  0  0
   -1.2532   -0.6271    0.0752 C   0  0  0  0  0  0  0  0  0  0  0  0
   -1.6427   -1.4044   -0.9766 C   0  0  0  0  0  0  0  0  0  0  0  0
   -2.8595   -2.1425   -0.9838 C   0  0  0  0  0  0  0  0  0  0  0  0
   -3.2181   -2.8225   -1.9411 O   0  0  0  0  0  0  0  0  0  0  0  0
   -3.5927   -1.9936    0.1996 N   0  0  0  0  0  0  0  0  0  0  0  0
   -4.8713   -2.6729    0.2920 C   0  0  0  0  0  0  0  0  0  0  0  0
   -3.2311   -1.1813    1.2962 C   0  0  0  0  0  0  0  0  0  0  0  0
   -3.9579   -1.0906    2.2906 O   0  0  0  0  0  0  0  0  0  0  0  0
   -2.0200   -0.4909    1.2056 N   0  0  0  0  0  0  0  0  0  0  0  0
   -1.5634    0.3443    2.3023 C   0  0  0  0  0  0  0  0  0  0  0  0
   -0.6556   -1.2581   -1.9193 N   0  0  0  0  0  0  0  0  0  0  0  0
   -0.6557   -1.8855   -3.2186 C   0  0  0  0  0  0  0  0  0  0  0  0
    2.0852   -1.2784    2.3727 H   0  0  0  0  0  0  0  0  0  0  0  0
    3.3045   -0.9138    3.6076 H   0  0  0  0  0  0  0  0  0  0  0  0
    3.8188   -1.5822    2.0361 H   0  0  0  0  0  0  0  0  0  0  0  0
    2.3007   -0.2286    0.3184 H   0  0  0  0  0  0  0  0  0  0  0  0
    3.3703    3.1850    1.3542 H   0  0  0  0  0  0  0  0  0  0  0  0
    3.0894    5.1315   -0.0965 H   0  0  0  0  0  0  0  0  0  0  0  0
    2.1950    4.8737   -2.3989 H   0  0  0  0  0  0  0  0  0  0  0  0
    1.5946    2.6402   -3.2498 H   0  0  0  0  0  0  0  0  0  0  0  0
   -4.9635   -3.4755   -0.4440 H   0  0  0  0  0  0  0  0  0  0  0  0
   -5.6616   -1.9364    0.1110 H   0  0  0  0  0  0  0  0  0  0  0  0
   -5.0118   -3.0901    1.2950 H   0  0  0  0  0  0  0  0  0  0  0  0
   -1.2407    1.3142    1.9130 H   0  0  0  0  0  0  0  0  0  0  0  0
   -2.3569    0.5135    3.0350 H   0  0  0  0  0  0  0  0  0  0  0  0
   -0.7202   -0.1517    2.7966 H   0  0  0  0  0  0  0  0  0  0  0  0
   -0.4539   -2.9518   -3.0841 H   0  0  0  0  0  0  0  0  0  0  0  0
   -1.6322   -1.7336   -3.6833 H   0  0  0  0  0  0  0  0  0  0  0  0
    0.1030   -1.4425   -3.8668 H   0  0  0  0  0  0  0  0  0  0  0  0
  1  2  1  0
  2  3  2  0
  2  4  1  0
  4  5  1  0
  5  6  2  0
  6  7  1  0
  7  8  2  0
  8  9  1  0
  9 10  2  0
 10 11  1  0
 11 12  1  0
 12 13  2  0
 13 14  1  0
 14 15  2  0
 15 16  1  0
 16 17  2  0
 16 18  1  0
 18 19  1  0
 18 20  1  0
 20 21  2  0
 20 22  1  0
 22 23  1  0
 15 24  1  0
 24 25  1  0
 10  5  1  0
 24 12  1  0
 22 14  1  0
  1 26  1  0
  1 27  1  0
  1 28  1  0
  4 29  1  0
  6 30  1  0
  7 31  1  0
  8 32  1  0
  9 33  1  0
 19 34  1  0
 19 35  1  0
 19 36  1  0
 23 37  1  0
 23 38  1  0
 23 39  1  0
 25 40  1  0
 25 41  1  0
 25 42  1  0
M  END
$$$$
