
     RDKit          3D

 62 65  0  0  0  0  0  0  0  0999 V2000
   -8.9539    2.3218   -0.6147 C   0  0  0  0  0  0  0  0  0  0  0  0
   -8.6250    1.4344    0.4483 O   0  0  0  0  0  0  0  0  0  0  0  0
   -7.3857    0.8602    0.4078 C   0  0  0  0  0  0  0  0  0  0  0  0
   -6.4284    1.0378   -0.5844 C   0  0  0  0  0  0  0  0  0  0  0  0
   -5.1893    0.3838   -0.4986 C   0  0  0  0  0  0  0  0  0  0  0  0
   -4.8745   -0.4710    0.5685 C   0  0  0  0  0  0  0  0  0  0  0  0
   -3.5837   -1.1203    0.6675 N   0  0  0  0  0  0  0  0  0  0  0  0
   -3.2091   -1.6356    1.9883 C   0  0  0  0  0  0  0  0  0  0  0  0
   -2.8241   -1.3997   -0.4861 C   0  0  0  0  0  0  0  0  0  0  0  0
   -3.2582   -1.2863   -1.6343 O   0  0  0  0  0  0  0  0  0  0  0  0
   -1.3695   -1.8593   -0.2887 C   0  0  0  0  0  0  0  0  0  0  0  0
   -0.5187   -0.7157    0.2911 C   0  0  0  0  0  0  0  0  0  0  0  0
    0.4349   -0.1271   -0.7442 C   0  0  0  0  0  0  0  0  0  0  0  0
    1.3917   -1.1747   -1.1815 N   0  0  0  0  0  0  0  0  0  0  0  0
    2.5772   -0.6787   -2.3157 S   0  0  0  0  0  6  0  0  0  0  0  0
    3.4772   -1.7998   -2.5067 O   0  0  0  0  0  0  0  0  0  0  0  0
    1.8918   -0.1063   -3.4497 O   0  0  0  0  0  0  0  0  0  0  0  0
    3.4952    0.5590   -1.4203 C   0  0  0  0  0  0  0  0  0  0  0  0
    4.4766    0.0547   -0.5321 C   0  0  0  0  0  0  0  0  0  0  0  0
    5.2694    0.9304    0.1856 C   0  0  0  0  0  0  0  0  0  0  0  0
    5.0894    2.3034    0.0228 C   0  0  0  0  0  0  0  0  0  0  0  0
    4.1367    2.8206   -0.8461 C   0  0  0  0  0  0  0  0  0  0  0  0
    3.3259    1.9434   -1.5796 C   0  0  0  0  0  0  0  0  0  0  0  0
    2.0315    2.7886   -2.6800 Br  0  0  0  0  0  0  0  0  0  0  0  0
    6.0508    3.0914    0.8550 C   0  0  0  0  0  0  0  0  0  0  0  0
    6.7392    1.9915    1.6604 C   0  0  0  0  0  0  0  0  0  0  0  0
    6.2903    0.6971    1.1245 N   0  0  0  0  0  0  0  0  0  0  0  0
    6.8567   -0.4570    1.6232 C   0  0  0  0  0  0  0  0  0  0  0  0
    6.4378   -1.7924    1.0787 C   0  0  0  0  0  0  0  0  0  0  0  0
    7.7111   -0.4144    2.5152 O   0  0  0  0  0  0  0  0  0  0  0  0
    0.7524   -2.4834   -1.5214 C   0  0  0  0  0  0  0  0  0  0  0  0
   -0.7640   -2.3825   -1.6036 C   0  0  0  0  0  0  0  0  0  0  0  0
   -5.8518   -0.6307    1.5629 C   0  0  0  0  0  0  0  0  0  0  0  0
   -7.0892    0.0235    1.4809 C   0  0  0  0  0  0  0  0  0  0  0  0
   -8.9585    1.8015   -1.5785 H   0  0  0  0  0  0  0  0  0  0  0  0
   -8.2775    3.1833   -0.6328 H   0  0  0  0  0  0  0  0  0  0  0  0
   -9.9654    2.6975   -0.4351 H   0  0  0  0  0  0  0  0  0  0  0  0
   -6.6021    1.6789   -1.4428 H   0  0  0  0  0  0  0  0  0  0  0  0
   -4.4711    0.5912   -1.2869 H   0  0  0  0  0  0  0  0  0  0  0  0
   -3.4694   -0.9107    2.7665 H   0  0  0  0  0  0  0  0  0  0  0  0
   -2.1404   -1.8180    2.0878 H   0  0  0  0  0  0  0  0  0  0  0  0
   -3.7278   -2.5850    2.1548 H   0  0  0  0  0  0  0  0  0  0  0  0
   -1.3747   -2.7073    0.4055 H   0  0  0  0  0  0  0  0  0  0  0  0
    0.0710   -1.1080    1.1303 H   0  0  0  0  0  0  0  0  0  0  0  0
   -1.1409    0.0900    0.6969 H   0  0  0  0  0  0  0  0  0  0  0  0
   -0.1187    0.2836   -1.5953 H   0  0  0  0  0  0  0  0  0  0  0  0
    0.9825    0.6886   -0.2636 H   0  0  0  0  0  0  0  0  0  0  0  0
    4.5765   -1.0183   -0.4350 H   0  0  0  0  0  0  0  0  0  0  0  0
    4.0310    3.8984   -0.9469 H   0  0  0  0  0  0  0  0  0  0  0  0
    6.7669    3.6193    0.2175 H   0  0  0  0  0  0  0  0  0  0  0  0
    5.5418    3.8056    1.5076 H   0  0  0  0  0  0  0  0  0  0  0  0
    6.4585    2.0382    2.7196 H   0  0  0  0  0  0  0  0  0  0  0  0
    7.8307    2.0649    1.5981 H   0  0  0  0  0  0  0  0  0  0  0  0
    5.4006   -2.0010    1.3490 H   0  0  0  0  0  0  0  0  0  0  0  0
    7.0609   -2.5733    1.5274 H   0  0  0  0  0  0  0  0  0  0  0  0
    6.5942   -1.8326   -0.0014 H   0  0  0  0  0  0  0  0  0  0  0  0
    1.0427   -3.2023   -0.7466 H   0  0  0  0  0  0  0  0  0  0  0  0
    1.1251   -2.8758   -2.4733 H   0  0  0  0  0  0  0  0  0  0  0  0
   -1.0277   -1.7345   -2.4491 H   0  0  0  0  0  0  0  0  0  0  0  0
   -1.1895   -3.3671   -1.8334 H   0  0  0  0  0  0  0  0  0  0  0  0
   -5.7005   -1.2856    2.4143 H   0  0  0  0  0  0  0  0  0  0  0  0
   -7.8289   -0.1277    2.2640 H   0  0  0  0  0  0  0  0  0  0  0  0
  1  2  1  0
  2  3  1  0
  3  4  2  0
  4  5  1  0
  5  6  2  0
  6  7  1  0
  7  8  1  0
  7  9  1  0
  9 10  2  0
  9 11  1  0
 11 12  1  0
 12 13  1  0
 13 14  1  0
 14 15  1  0
 15 16  2  0
 15 17  2  0
 15 18  1  0
 18 19  2  0
 19 20  1  0
 20 21  2  0
 21 22  1  0
 22 23  2  0
 23 24  1  0
 21 25  1  0
 25 26  1  0
 26 27  1  0
 27 28  1  0
 28 29  1  0
 28 30  2  0
 14 31  1  0
 31 32  1  0
  6 33  1  0
 33 34  2  0
 34  3  1  0
 32 11  1  0
 23 18  1  0
 27 20  1  0
  1 35  1  0
  1 36  1  0
  1 37  1  0
  4 38  1  0
  5 39  1  0
  8 40  1  0
  8 41  1  0
  8 42  1  0
 11 43  1  0
 12 44  1  0
 12 45  1  0
 13 46  1  0
 13 47  1  0
 19 48  1  0
 22 49  1  0
 25 50  1  0
 25 51  1  0
 26 52  1  0
 26 53  1  0
 29 54  1  0
 29 55  1  0
 29 56  1  0
 31 57  1  0
 31 58  1  0
 32 59  1  0
 32 60  1  0
 33 61  1  0
 34 62  1  0
M  END
$$$$
