
     RDKit          3D

 42 45  0  0  0  0  0  0  0  0999 V2000
    4.7147    1.8153    2.7170 C   0  0  0  0  0  0  0  0  0  0  0  0
    5.4874    1.3440    1.6199 O   0  0  0  0  0  0  0  0  0  0  0  0
    4.8070    0.7316    0.6028 C   0  0  0  0  0  0  0  0  0  0  0  0
    5.6200    0.1641   -0.3829 C   0  0  0  0  0  0  0  0  0  0  0  0
    5.0586   -0.5059   -1.4707 C   0  0  0  0  0  0  0  0  0  0  0  0
    3.6738   -0.6020   -1.5842 C   0  0  0  0  0  0  0  0  0  0  0  0
    2.8587   -0.0150   -0.6181 C   0  0  0  0  0  0  0  0  0  0  0  0
    1.4360   -0.1422   -0.7225 N   0  0  0  0  0  0  0  0  0  0  0  0
    0.8029   -1.6293   -0.1519 S   0  0  0  0  0  6  0  0  0  0  0  0
    1.1352   -1.7069    1.2582 O   0  0  0  0  0  0  0  0  0  0  0  0
    1.2941   -2.6437   -1.0668 O   0  0  0  0  0  0  0  0  0  0  0  0
   -0.9191   -1.5349   -0.2770 C   0  0  0  0  0  0  0  0  0  0  0  0
   -1.6912   -2.6324   -0.4122 C   0  0  0  0  0  0  0  0  0  0  0  0
   -1.1691   -4.0503   -0.4280 C   0  0  0  0  0  0  0  0  0  0  0  0
   -3.0666   -2.5727   -0.5247 N   0  0  0  0  0  0  0  0  0  0  0  0
   -3.6082   -1.4056   -0.4697 C   0  0  0  0  0  0  0  0  0  0  0  0
   -5.3395   -1.1651   -0.6052 S   0  0  0  0  0  0  0  0  0  0  0  0
   -5.1343    0.5827   -0.4127 C   0  0  0  0  0  0  0  0  0  0  0  0
   -6.1345    1.5430   -0.4065 C   0  0  0  0  0  0  0  0  0  0  0  0
   -5.7697    2.8785   -0.2409 C   0  0  0  0  0  0  0  0  0  0  0  0
   -4.4224    3.2296   -0.0859 C   0  0  0  0  0  0  0  0  0  0  0  0
   -3.4217    2.2506   -0.0940 C   0  0  0  0  0  0  0  0  0  0  0  0
   -3.7842    0.9189   -0.2578 C   0  0  0  0  0  0  0  0  0  0  0  0
   -2.9348   -0.2152   -0.2979 N   0  0  0  0  0  0  0  0  0  0  0  0
   -1.5650   -0.2107   -0.1478 C   0  0  0  0  0  0  0  0  0  0  0  0
   -0.8819    0.7846    0.0933 O   0  0  0  0  0  0  0  0  0  0  0  0
    3.4192    0.6393    0.4832 C   0  0  0  0  0  0  0  0  0  0  0  0
    4.1553    1.0000    3.1879 H   0  0  0  0  0  0  0  0  0  0  0  0
    4.0475    2.6264    2.4075 H   0  0  0  0  0  0  0  0  0  0  0  0
    5.4056    2.2194    3.4632 H   0  0  0  0  0  0  0  0  0  0  0  0
    6.7017    0.2342   -0.2941 H   0  0  0  0  0  0  0  0  0  0  0  0
    5.7000   -0.9574   -2.2227 H   0  0  0  0  0  0  0  0  0  0  0  0
    3.2359   -1.1330   -2.4253 H   0  0  0  0  0  0  0  0  0  0  0  0
    0.9270    0.6260   -0.2641 H   0  0  0  0  0  0  0  0  0  0  0  0
   -0.8948   -4.3437   -1.4460 H   0  0  0  0  0  0  0  0  0  0  0  0
   -1.9392   -4.7471   -0.0766 H   0  0  0  0  0  0  0  0  0  0  0  0
   -0.3130   -4.1897    0.2382 H   0  0  0  0  0  0  0  0  0  0  0  0
   -7.1777    1.2668   -0.5272 H   0  0  0  0  0  0  0  0  0  0  0  0
   -6.5343    3.6526   -0.2321 H   0  0  0  0  0  0  0  0  0  0  0  0
   -4.1507    4.2759    0.0420 H   0  0  0  0  0  0  0  0  0  0  0  0
   -2.3892    2.5611    0.0273 H   0  0  0  0  0  0  0  0  0  0  0  0
    2.7605    1.0584    1.2347 H   0  0  0  0  0  0  0  0  0  0  0  0
  1  2  1  0
  2  3  1  0
  3  4  2  0
  4  5  1  0
  5  6  2  0
  6  7  1  0
  7  8  1  0
  8  9  1  0
  9 10  2  0
  9 11  2  0
  9 12  1  0
 12 13  2  0
 13 14  1  0
 13 15  1  0
 15 16  2  0
 16 17  1  0
 17 18  1  0
 18 19  2  0
 19 20  1  0
 20 21  2  0
 21 22  1  0
 22 23  2  0
 23 24  1  0
 24 25  1  0
 25 26  2  0
  7 27  2  0
 27  3  1  0
 25 12  1  0
 24 16  1  0
 23 18  1  0
  1 28  1  0
  1 29  1  0
  1 30  1  0
  4 31  1  0
  5 32  1  0
  6 33  1  0
  8 34  1  0
 14 35  1  0
 14 36  1  0
 14 37  1  0
 19 38  1  0
 20 39  1  0
 21 40  1  0
 22 41  1  0
 27 42  1  0
M  END
$$$$
