
     RDKit          3D

 40 41  0  0  0  0  0  0  0  0999 V2000
   -4.7820   -1.2830    0.5688 C   0  0  0  0  0  0  0  0  0  0  0  0
   -3.3678   -1.5850    0.0723 C   0  0  0  0  0  0  0  0  0  0  0  0
   -2.6063   -2.3963    1.1185 C   0  0  0  0  0  0  0  0  0  0  0  0
   -2.6465   -0.3564   -0.2321 N   0  0  0  0  0  0  0  0  0  0  0  0
   -2.9190    0.4085   -1.3522 C   0  0  0  0  0  0  0  0  0  0  0  0
   -3.8153    0.1373   -2.1495 O   0  0  0  0  0  0  0  0  0  0  0  0
   -2.0789    1.6610   -1.5053 C   0  0  0  0  0  0  0  0  0  0  0  0
   -0.6524    1.3758   -1.4896 N   0  0  0  0  0  0  0  0  0  0  0  0
    0.0254    0.8510   -2.5581 C   0  0  0  0  0  0  0  0  0  0  0  0
    1.3224    0.6244   -2.1652 C   0  0  0  0  0  0  0  0  0  0  0  0
    1.4521    1.0568   -0.8146 C   0  0  0  0  0  0  0  0  0  0  0  0
    2.5185    1.0783    0.1144 C   0  0  0  0  0  0  0  0  0  0  0  0
    3.7940    0.5259   -0.2320 N   0  0  0  0  0  0  0  0  0  0  0  0
    4.0386   -1.0923    0.2154 S   0  0  0  0  0  6  0  0  0  0  0  0
    5.4717   -0.9144    1.2492 C   0  0  0  0  0  0  0  0  0  0  0  0
    4.4463   -1.7793   -0.9929 O   0  0  0  0  0  0  0  0  0  0  0  0
    2.9468   -1.5695    1.0342 O   0  0  0  0  0  0  0  0  0  0  0  0
    2.3037    1.5618    1.4126 C   0  0  0  0  0  0  0  0  0  0  0  0
    1.0563    2.0546    1.7824 C   0  0  0  0  0  0  0  0  0  0  0  0
   -0.0138    2.0577    0.8767 C   0  0  0  0  0  0  0  0  0  0  0  0
    0.2019    1.5431   -0.4158 C   0  0  0  0  0  0  0  0  0  0  0  0
   -5.3301   -2.2105    0.7710 H   0  0  0  0  0  0  0  0  0  0  0  0
   -5.3548   -0.7113   -0.1720 H   0  0  0  0  0  0  0  0  0  0  0  0
   -4.7586   -0.6945    1.4908 H   0  0  0  0  0  0  0  0  0  0  0  0
   -3.4327   -2.1683   -0.8517 H   0  0  0  0  0  0  0  0  0  0  0  0
   -1.5895   -2.6258    0.7785 H   0  0  0  0  0  0  0  0  0  0  0  0
   -2.5156   -1.8416    2.0591 H   0  0  0  0  0  0  0  0  0  0  0  0
   -3.1204   -3.3386    1.3270 H   0  0  0  0  0  0  0  0  0  0  0  0
   -1.8920   -0.0781    0.3918 H   0  0  0  0  0  0  0  0  0  0  0  0
   -2.3251    2.3730   -0.7134 H   0  0  0  0  0  0  0  0  0  0  0  0
   -2.3022    2.1308   -2.4709 H   0  0  0  0  0  0  0  0  0  0  0  0
   -0.4748    0.6472   -3.4968 H   0  0  0  0  0  0  0  0  0  0  0  0
    2.0947    0.1773   -2.7833 H   0  0  0  0  0  0  0  0  0  0  0  0
    3.9994    0.6131   -1.2314 H   0  0  0  0  0  0  0  0  0  0  0  0
    5.2064   -0.3152    2.1262 H   0  0  0  0  0  0  0  0  0  0  0  0
    6.2705   -0.4422    0.6730 H   0  0  0  0  0  0  0  0  0  0  0  0
    5.7846   -1.9159    1.5663 H   0  0  0  0  0  0  0  0  0  0  0  0
    3.1115    1.5567    2.1368 H   0  0  0  0  0  0  0  0  0  0  0  0
    0.9096    2.4353    2.7916 H   0  0  0  0  0  0  0  0  0  0  0  0
   -0.9764    2.4488    1.1824 H   0  0  0  0  0  0  0  0  0  0  0  0
  1  2  1  0
  2  3  1  0
  2  4  1  0
  4  5  1  0
  5  6  2  0
  5  7  1  0
  7  8  1  0
  8  9  1  0
  9 10  2  0
 10 11  1  0
 11 12  2  0
 12 13  1  0
 13 14  1  0
 14 15  1  0
 14 16  2  0
 14 17  2  0
 12 18  1  0
 18 19  2  0
 19 20  1  0
 20 21  2  0
 21  8  1  0
 21 11  1  0
  1 22  1  0
  1 23  1  0
  1 24  1  0
  2 25  1  0
  3 26  1  0
  3 27  1  0
  3 28  1  0
  4 29  1  0
  7 30  1  0
  7 31  1  0
  9 32  1  0
 10 33  1  0
 13 34  1  0
 15 35  1  0
 15 36  1  0
 15 37  1  0
 18 38  1  0
 19 39  1  0
 20 40  1  0
M  END
$$$$
