
     RDKit          3D

 53 54  0  0  0  0  0  0  0  0999 V2000
    6.9645   -1.1636    2.5576 C   0  0  0  0  0  0  0  0  0  0  0  0
    5.8701   -0.7875    1.5707 C   0  0  0  0  0  0  0  0  0  0  0  0
    6.1213    0.5924    0.9581 C   0  0  0  0  0  0  0  0  0  0  0  0
    5.0803    0.9760   -0.1071 C   0  0  0  0  0  0  0  0  0  0  0  0
    3.6835    0.9796    0.3664 N   0  0  0  0  0  0  0  0  0  0  0  0
    3.4688    2.0238    1.3743 C   0  0  0  0  0  0  0  0  0  0  0  0
    2.7263    1.1623   -0.7433 C   0  0  0  0  0  0  0  0  0  0  0  0
    2.6068   -0.0683   -1.6552 C   0  0  0  0  0  0  0  0  0  0  0  0
    1.5418    0.1251   -2.7366 C   0  0  0  0  0  0  0  0  0  0  0  0
    0.1964    0.1531   -2.1985 N   0  0  0  0  0  0  0  0  0  0  0  0
   -0.5153   -1.0078   -1.9730 C   0  0  0  0  0  0  0  0  0  0  0  0
   -0.0962   -2.1261   -2.2453 O   0  0  0  0  0  0  0  0  0  0  0  0
   -1.8757   -0.8391   -1.3958 C   0  0  0  0  0  0  0  0  0  0  0  0
   -2.8673   -1.7595   -1.7351 C   0  0  0  0  0  0  0  0  0  0  0  0
   -4.1614   -1.6331   -1.2112 C   0  0  0  0  0  0  0  0  0  0  0  0
   -4.4926   -0.5970   -0.3281 C   0  0  0  0  0  0  0  0  0  0  0  0
   -5.8027   -0.4560    0.2091 N   0  0  0  0  0  0  0  0  0  0  0  0
   -6.1726    0.6277    1.0904 C   0  0  0  0  0  0  0  0  0  0  0  0
   -7.6860    0.5991    1.1067 C   0  0  0  0  0  0  0  0  0  0  0  0
   -8.0091   -0.8694    0.9256 C   0  0  0  0  0  0  0  0  0  0  0  0
   -6.8597   -1.3736    0.0843 C   0  0  0  0  0  0  0  0  0  0  0  0
   -6.9053   -2.4292   -0.5279 O   0  0  0  0  0  0  0  0  0  0  0  0
   -3.4751    0.3086    0.0191 C   0  0  0  0  0  0  0  0  0  0  0  0
   -2.1793    0.1912   -0.5042 C   0  0  0  0  0  0  0  0  0  0  0  0
    6.7670   -2.1521    2.9839 H   0  0  0  0  0  0  0  0  0  0  0  0
    7.0153   -0.4427    3.3799 H   0  0  0  0  0  0  0  0  0  0  0  0
    7.9423   -1.1948    2.0664 H   0  0  0  0  0  0  0  0  0  0  0  0
    4.9057   -0.8037    2.0905 H   0  0  0  0  0  0  0  0  0  0  0  0
    5.8258   -1.5435    0.7780 H   0  0  0  0  0  0  0  0  0  0  0  0
    6.1649    1.3516    1.7471 H   0  0  0  0  0  0  0  0  0  0  0  0
    7.1098    0.5962    0.4807 H   0  0  0  0  0  0  0  0  0  0  0  0
    5.1976    0.2530   -0.9213 H   0  0  0  0  0  0  0  0  0  0  0  0
    5.3437    1.9570   -0.5239 H   0  0  0  0  0  0  0  0  0  0  0  0
    4.0742    1.8478    2.2686 H   0  0  0  0  0  0  0  0  0  0  0  0
    3.6979    3.0228    0.9866 H   0  0  0  0  0  0  0  0  0  0  0  0
    2.4281    2.0206    1.7187 H   0  0  0  0  0  0  0  0  0  0  0  0
    2.9878    2.0487   -1.3362 H   0  0  0  0  0  0  0  0  0  0  0  0
    1.7312    1.3502   -0.3198 H   0  0  0  0  0  0  0  0  0  0  0  0
    3.5585   -0.2579   -2.1623 H   0  0  0  0  0  0  0  0  0  0  0  0
    2.3753   -0.9557   -1.0534 H   0  0  0  0  0  0  0  0  0  0  0  0
    1.7005    1.0661   -3.2741 H   0  0  0  0  0  0  0  0  0  0  0  0
    1.6102   -0.6908   -3.4649 H   0  0  0  0  0  0  0  0  0  0  0  0
   -0.2550    1.0486   -2.0769 H   0  0  0  0  0  0  0  0  0  0  0  0
   -2.6427   -2.5814   -2.4128 H   0  0  0  0  0  0  0  0  0  0  0  0
   -4.8924   -2.3723   -1.5251 H   0  0  0  0  0  0  0  0  0  0  0  0
   -5.7604    0.4274    2.0858 H   0  0  0  0  0  0  0  0  0  0  0  0
   -5.8166    1.5938    0.7202 H   0  0  0  0  0  0  0  0  0  0  0  0
   -8.0788    1.1695    0.2555 H   0  0  0  0  0  0  0  0  0  0  0  0
   -8.1105    1.0230    2.0209 H   0  0  0  0  0  0  0  0  0  0  0  0
   -8.9630   -1.0124    0.4119 H   0  0  0  0  0  0  0  0  0  0  0  0
   -8.0097   -1.4052    1.8799 H   0  0  0  0  0  0  0  0  0  0  0  0
   -3.6529    1.1168    0.7221 H   0  0  0  0  0  0  0  0  0  0  0  0
   -1.4155    0.8908   -0.1771 H   0  0  0  0  0  0  0  0  0  0  0  0
  1  2  1  0
  2  3  1  0
  3  4  1  0
  4  5  1  0
  5  6  1  0
  5  7  1  0
  7  8  1  0
  8  9  1  0
  9 10  1  0
 10 11  1  0
 11 12  2  0
 11 13  1  0
 13 14  2  0
 14 15  1  0
 15 16  2  0
 16 17  1  0
 17 18  1  0
 18 19  1  0
 19 20  1  0
 20 21  1  0
 21 22  2  0
 16 23  1  0
 23 24  2  0
 24 13  1  0
 21 17  1  0
  1 25  1  0
  1 26  1  0
  1 27  1  0
  2 28  1  0
  2 29  1  0
  3 30  1  0
  3 31  1  0
  4 32  1  0
  4 33  1  0
  6 34  1  0
  6 35  1  0
  6 36  1  0
  7 37  1  0
  7 38  1  0
  8 39  1  0
  8 40  1  0
  9 41  1  0
  9 42  1  0
 10 43  1  0
 14 44  1  0
 15 45  1  0
 18 46  1  0
 18 47  1  0
 19 48  1  0
 19 49  1  0
 20 50  1  0
 20 51  1  0
 23 52  1  0
 24 53  1  0
M  END
$$$$
