
     RDKit          3D

 36 38  0  0  0  0  0  0  0  0999 V2000
   -3.7042   -2.6153   -0.7779 C   0  0  0  0  0  0  0  0  0  0  0  0
   -2.7329   -1.6050   -0.3745 N   0  0  0  0  0  0  0  0  0  0  0  0
   -1.4291   -2.0532   -0.0895 C   0  0  0  0  0  0  0  0  0  0  0  0
   -1.2041   -3.2238    0.2295 O   0  0  0  0  0  0  0  0  0  0  0  0
   -0.2946   -1.1306   -0.2656 C   0  0  0  0  0  0  0  0  0  0  0  0
    1.0079   -1.2968    0.2797 C   0  0  0  0  0  0  0  0  0  0  0  0
    1.7344   -0.2250   -0.1812 C   0  0  0  0  0  0  0  0  0  0  0  0
    3.1077    0.2398   -0.0154 C   0  0  0  0  0  0  0  0  0  0  0  0
    3.5497    1.4381   -0.5987 C   0  0  0  0  0  0  0  0  0  0  0  0
    4.8670    1.8747   -0.4310 C   0  0  0  0  0  0  0  0  0  0  0  0
    5.7537    1.1166    0.3207 C   0  0  0  0  0  0  0  0  0  0  0  0
    7.0281    1.5788    0.4581 O   0  0  0  0  0  0  0  0  0  0  0  0
    5.3454   -0.0736    0.9097 C   0  0  0  0  0  0  0  0  0  0  0  0
    4.0258   -0.5082    0.7408 C   0  0  0  0  0  0  0  0  0  0  0  0
    0.9227    0.5301   -0.9748 O   0  0  0  0  0  0  0  0  0  0  0  0
   -0.3327   -0.0396   -1.0480 N   0  0  0  0  0  0  0  0  0  0  0  0
   -3.2354   -0.2968   -0.0622 C   0  0  0  0  0  0  0  0  0  0  0  0
   -4.3659    0.2108   -0.7223 C   0  0  0  0  0  0  0  0  0  0  0  0
   -4.8870    1.4694   -0.4029 C   0  0  0  0  0  0  0  0  0  0  0  0
   -4.2951    2.2380    0.5934 C   0  0  0  0  0  0  0  0  0  0  0  0
   -3.1864    1.7456    1.2735 C   0  0  0  0  0  0  0  0  0  0  0  0
   -2.6655    0.4871    0.9528 C   0  0  0  0  0  0  0  0  0  0  0  0
   -3.2666   -3.6176   -0.8029 H   0  0  0  0  0  0  0  0  0  0  0  0
   -4.5422   -2.6261   -0.0734 H   0  0  0  0  0  0  0  0  0  0  0  0
   -4.0597   -2.3940   -1.7887 H   0  0  0  0  0  0  0  0  0  0  0  0
    1.3441   -2.0990    0.9191 H   0  0  0  0  0  0  0  0  0  0  0  0
    2.8739    2.0505   -1.1927 H   0  0  0  0  0  0  0  0  0  0  0  0
    5.1965    2.8039   -0.8879 H   0  0  0  0  0  0  0  0  0  0  0  0
    7.5331    0.9482    0.9970 H   0  0  0  0  0  0  0  0  0  0  0  0
    6.0310   -0.6746    1.4988 H   0  0  0  0  0  0  0  0  0  0  0  0
    3.7275   -1.4436    1.2085 H   0  0  0  0  0  0  0  0  0  0  0  0
   -4.8485   -0.3438   -1.5212 H   0  0  0  0  0  0  0  0  0  0  0  0
   -5.7526    1.8493   -0.9397 H   0  0  0  0  0  0  0  0  0  0  0  0
   -4.6970    3.2170    0.8403 H   0  0  0  0  0  0  0  0  0  0  0  0
   -2.7246    2.3371    2.0600 H   0  0  0  0  0  0  0  0  0  0  0  0
   -1.8244    0.1319    1.5400 H   0  0  0  0  0  0  0  0  0  0  0  0
  1  2  1  0
  2  3  1  0
  3  4  2  0
  3  5  1  0
  5  6  1  0
  6  7  2  0
  7  8  1  0
  8  9  2  0
  9 10  1  0
 10 11  2  0
 11 12  1  0
 11 13  1  0
 13 14  2  0
  7 15  1  0
 15 16  1  0
  2 17  1  0
 17 18  2  0
 18 19  1  0
 19 20  2  0
 20 21  1  0
 21 22  2  0
 16  5  2  0
 22 17  1  0
 14  8  1  0
  1 23  1  0
  1 24  1  0
  1 25  1  0
  6 26  1  0
  9 27  1  0
 10 28  1  0
 12 29  1  0
 13 30  1  0
 14 31  1  0
 18 32  1  0
 19 33  1  0
 20 34  1  0
 21 35  1  0
 22 36  1  0
M  END
$$$$
