
     RDKit          3D

 42 44  0  0  0  0  0  0  0  0999 V2000
    4.6437   -1.4470    1.2467 C   0  0  0  0  0  0  0  0  0  0  0  0
    3.9104   -0.2460    1.0489 O   0  0  0  0  0  0  0  0  0  0  0  0
    2.6747   -0.3465    0.4631 C   0  0  0  0  0  0  0  0  0  0  0  0
    2.0127   -1.5470    0.1985 C   0  0  0  0  0  0  0  0  0  0  0  0
    0.7465   -1.5341   -0.3960 C   0  0  0  0  0  0  0  0  0  0  0  0
    0.1131   -0.3311   -0.7331 C   0  0  0  0  0  0  0  0  0  0  0  0
    0.7842    0.8766   -0.4865 C   0  0  0  0  0  0  0  0  0  0  0  0
    0.1257    2.0369   -0.8095 O   0  0  0  0  0  0  0  0  0  0  0  0
    0.8757    2.8764   -1.6875 C   0  0  0  0  0  0  0  0  0  0  0  0
    2.0410    0.8658    0.1408 C   0  0  0  0  0  0  0  0  0  0  0  0
    2.6832    2.0498    0.4203 O   0  0  0  0  0  0  0  0  0  0  0  0
    2.2990    2.5102    1.7166 C   0  0  0  0  0  0  0  0  0  0  0  0
   -1.2953   -0.3616   -1.2994 C   0  0  0  0  0  0  0  0  0  0  0  0
   -2.3854   -0.0683   -0.2762 C   0  0  0  0  0  0  0  0  0  0  0  0
   -2.4017   -0.6389    1.0067 C   0  0  0  0  0  0  0  0  0  0  0  0
   -3.4363   -0.3513    1.9029 C   0  0  0  0  0  0  0  0  0  0  0  0
   -4.4724    0.5037    1.5312 C   0  0  0  0  0  0  0  0  0  0  0  0
   -4.4769    1.0696    0.2595 C   0  0  0  0  0  0  0  0  0  0  0  0
   -3.4443    0.7796   -0.6286 C   0  0  0  0  0  0  0  0  0  0  0  0
   -3.4870    1.3231   -1.8542 F   0  0  0  0  0  0  0  0  0  0  0  0
   -1.5713   -1.6687   -2.0461 C   0  0  0  0  0  0  0  0  0  0  0  0
   -1.0803   -2.8857   -1.3050 C   0  0  0  0  0  0  0  0  0  0  0  0
   -1.6323   -3.9803   -1.3901 O   0  0  0  0  0  0  0  0  0  0  0  0
    0.0938   -2.7508   -0.6167 N   0  0  0  0  0  0  0  0  0  0  0  0
    4.1530   -2.0881    1.9862 H   0  0  0  0  0  0  0  0  0  0  0  0
    5.6276   -1.1769    1.6420 H   0  0  0  0  0  0  0  0  0  0  0  0
    4.7987   -1.9787    0.3020 H   0  0  0  0  0  0  0  0  0  0  0  0
    2.4624   -2.5007    0.4513 H   0  0  0  0  0  0  0  0  0  0  0  0
    0.1626    3.4111   -2.3225 H   0  0  0  0  0  0  0  0  0  0  0  0
    1.4319    3.6228   -1.1136 H   0  0  0  0  0  0  0  0  0  0  0  0
    1.5487    2.3119   -2.3433 H   0  0  0  0  0  0  0  0  0  0  0  0
    2.8337    3.4448    1.9104 H   0  0  0  0  0  0  0  0  0  0  0  0
    1.2248    2.7202    1.7623 H   0  0  0  0  0  0  0  0  0  0  0  0
    2.5794    1.7927    2.4956 H   0  0  0  0  0  0  0  0  0  0  0  0
   -1.3375    0.4242   -2.0670 H   0  0  0  0  0  0  0  0  0  0  0  0
   -1.6125   -1.3126    1.3303 H   0  0  0  0  0  0  0  0  0  0  0  0
   -3.4325   -0.7990    2.8941 H   0  0  0  0  0  0  0  0  0  0  0  0
   -5.2753    0.7244    2.2296 H   0  0  0  0  0  0  0  0  0  0  0  0
   -5.2786    1.7323   -0.0500 H   0  0  0  0  0  0  0  0  0  0  0  0
   -2.6401   -1.7880   -2.2592 H   0  0  0  0  0  0  0  0  0  0  0  0
   -1.0428   -1.6636   -3.0088 H   0  0  0  0  0  0  0  0  0  0  0  0
    0.4759   -3.6117   -0.2453 H   0  0  0  0  0  0  0  0  0  0  0  0
  1  2  1  0
  2  3  1  0
  3  4  2  0
  4  5  1  0
  5  6  2  0
  6  7  1  0
  7  8  1  0
  8  9  1  0
  7 10  2  0
 10 11  1  0
 11 12  1  0
  6 13  1  0
 13 14  1  0
 14 15  2  0
 15 16  1  0
 16 17  2  0
 17 18  1  0
 18 19  2  0
 19 20  1  0
 13 21  1  0
 21 22  1  0
 22 23  2  0
 22 24  1  0
 10  3  1  0
 19 14  1  0
 24  5  1  0
  1 25  1  0
  1 26  1  0
  1 27  1  0
  4 28  1  0
  9 29  1  0
  9 30  1  0
  9 31  1  0
 12 32  1  0
 12 33  1  0
 12 34  1  0
 13 35  1  0
 15 36  1  0
 16 37  1  0
 17 38  1  0
 18 39  1  0
 21 40  1  0
 21 41  1  0
 24 42  1  0
M  END
$$$$
