
     RDKit          3D

 58 60  0  0  0  0  0  0  0  0999 V2000
   -4.7147    4.9528   -0.7101 C   0  0  0  0  0  0  0  0  0  0  0  0
   -4.8509    3.8454    0.1726 O   0  0  0  0  0  0  0  0  0  0  0  0
   -3.8403    2.9254    0.1723 C   0  0  0  0  0  0  0  0  0  0  0  0
   -3.9737    1.9137    1.1271 C   0  0  0  0  0  0  0  0  0  0  0  0
   -3.0146    0.9043    1.2364 C   0  0  0  0  0  0  0  0  0  0  0  0
   -1.9053    0.9075    0.3889 C   0  0  0  0  0  0  0  0  0  0  0  0
   -0.9249   -0.1402    0.4294 N   0  0  0  0  0  0  0  0  0  0  0  0
   -0.3818   -0.4996    1.7695 C   0  0  0  0  0  0  0  0  0  0  0  0
    1.1179   -0.7647    1.7453 C   0  0  0  0  0  0  0  0  0  0  0  0
    1.6388   -1.4590    2.6140 O   0  0  0  0  0  0  0  0  0  0  0  0
    1.7636   -0.0901    0.7309 N   0  0  0  0  0  0  0  0  0  0  0  0
    3.1346   -0.0701    0.4071 C   0  0  0  0  0  0  0  0  0  0  0  0
    4.1236   -0.6796    1.1802 C   0  0  0  0  0  0  0  0  0  0  0  0
    5.4670   -0.6214    0.7931 C   0  0  0  0  0  0  0  0  0  0  0  0
    6.3366   -1.2544    1.6411 O   0  0  0  0  0  0  0  0  0  0  0  0
    7.6811   -1.3903    1.2051 C   0  0  0  0  0  0  0  0  0  0  0  0
    5.8193    0.0635   -0.3693 C   0  0  0  0  0  0  0  0  0  0  0  0
    4.8361    0.6781   -1.1515 C   0  0  0  0  0  0  0  0  0  0  0  0
    3.4935    0.6076   -0.7752 C   0  0  0  0  0  0  0  0  0  0  0  0
    2.4542    1.1826   -1.4739 O   0  0  0  0  0  0  0  0  0  0  0  0
    2.7085    1.4815   -2.8436 C   0  0  0  0  0  0  0  0  0  0  0  0
   -1.1738   -1.4482   -0.6503 S   0  0  0  0  0  6  0  0  0  0  0  0
   -0.0927   -2.3903   -0.4679 O   0  0  0  0  0  0  0  0  0  0  0  0
   -1.4859   -0.9298   -1.9648 O   0  0  0  0  0  0  0  0  0  0  0  0
   -2.5709   -2.3188   -0.1833 C   0  0  0  0  0  0  0  0  0  0  0  0
   -3.9173   -2.0673   -0.5398 C   0  0  0  0  0  0  0  0  0  0  0  0
   -4.5140   -1.0410   -1.4286 C   0  0  0  0  0  0  0  0  0  0  0  0
   -4.7342   -2.9507    0.0519 N   0  0  0  0  0  0  0  0  0  0  0  0
   -3.9215   -3.8078    0.7655 O   0  0  0  0  0  0  0  0  0  0  0  0
   -2.6219   -3.4376    0.6165 C   0  0  0  0  0  0  0  0  0  0  0  0
   -1.6253   -4.2920    1.2947 C   0  0  0  0  0  0  0  0  0  0  0  0
   -1.7784    1.9036   -0.5799 C   0  0  0  0  0  0  0  0  0  0  0  0
   -2.7398    2.9149   -0.6845 C   0  0  0  0  0  0  0  0  0  0  0  0
   -3.8133    5.5312   -0.4817 H   0  0  0  0  0  0  0  0  0  0  0  0
   -5.5778    5.6080   -0.5602 H   0  0  0  0  0  0  0  0  0  0  0  0
   -4.7221    4.6275   -1.7556 H   0  0  0  0  0  0  0  0  0  0  0  0
   -4.8364    1.9118    1.7901 H   0  0  0  0  0  0  0  0  0  0  0  0
   -3.1575    0.1260    1.9811 H   0  0  0  0  0  0  0  0  0  0  0  0
   -0.5304    0.3268    2.4774 H   0  0  0  0  0  0  0  0  0  0  0  0
   -0.9020   -1.3740    2.1722 H   0  0  0  0  0  0  0  0  0  0  0  0
    1.1709    0.3978    0.0626 H   0  0  0  0  0  0  0  0  0  0  0  0
    3.8784   -1.2108    2.0931 H   0  0  0  0  0  0  0  0  0  0  0  0
    7.7365   -1.9310    0.2555 H   0  0  0  0  0  0  0  0  0  0  0  0
    8.2184   -1.9777    1.9571 H   0  0  0  0  0  0  0  0  0  0  0  0
    8.1716   -0.4155    1.1342 H   0  0  0  0  0  0  0  0  0  0  0  0
    6.8523    0.1444   -0.6909 H   0  0  0  0  0  0  0  0  0  0  0  0
    5.1520    1.2142   -2.0397 H   0  0  0  0  0  0  0  0  0  0  0  0
    3.3591    2.3585   -2.9361 H   0  0  0  0  0  0  0  0  0  0  0  0
    3.1295    0.6187   -3.3733 H   0  0  0  0  0  0  0  0  0  0  0  0
    1.7517    1.7270   -3.3155 H   0  0  0  0  0  0  0  0  0  0  0  0
   -5.4490   -0.6567   -1.0012 H   0  0  0  0  0  0  0  0  0  0  0  0
   -4.7413   -1.4774   -2.4082 H   0  0  0  0  0  0  0  0  0  0  0  0
   -3.8573   -0.1826   -1.5833 H   0  0  0  0  0  0  0  0  0  0  0  0
   -0.9679   -3.6993    1.9363 H   0  0  0  0  0  0  0  0  0  0  0  0
   -2.1117   -5.0440    1.9240 H   0  0  0  0  0  0  0  0  0  0  0  0
   -1.0106   -4.8201    0.5589 H   0  0  0  0  0  0  0  0  0  0  0  0
   -0.9331    1.8989   -1.2649 H   0  0  0  0  0  0  0  0  0  0  0  0
   -2.6031    3.6705   -1.4508 H   0  0  0  0  0  0  0  0  0  0  0  0
  1  2  1  0
  2  3  1  0
  3  4  2  0
  4  5  1  0
  5  6  2  0
  6  7  1  0
  7  8  1  0
  8  9  1  0
  9 10  2  0
  9 11  1  0
 11 12  1  0
 12 13  2  0
 13 14  1  0
 14 15  1  0
 15 16  1  0
 14 17  2  0
 17 18  1  0
 18 19  2  0
 19 20  1  0
 20 21  1  0
  7 22  1  0
 22 23  2  0
 22 24  2  0
 22 25  1  0
 25 26  1  0
 26 27  1  0
 26 28  2  0
 28 29  1  0
 29 30  1  0
 30 31  1  0
  6 32  1  0
 32 33  2  0
 33  3  1  0
 19 12  1  0
 30 25  2  0
  1 34  1  0
  1 35  1  0
  1 36  1  0
  4 37  1  0
  5 38  1  0
  8 39  1  0
  8 40  1  0
 11 41  1  0
 13 42  1  0
 16 43  1  0
 16 44  1  0
 16 45  1  0
 17 46  1  0
 18 47  1  0
 21 48  1  0
 21 49  1  0
 21 50  1  0
 27 51  1  0
 27 52  1  0
 27 53  1  0
 31 54  1  0
 31 55  1  0
 31 56  1  0
 32 57  1  0
 33 58  1  0
M  END
$$$$
