
     RDKit          3D

 54 58  0  0  0  0  0  0  0  0999 V2000
    5.9841    2.0402   -1.0849 O   0  0  0  0  0  0  0  0  0  0  0  0
    5.4698    1.0374   -0.5867 C   0  0  0  0  0  0  0  0  0  0  0  0
    6.0534    0.3863    0.5710 C   0  0  0  0  0  0  0  0  0  0  0  0
    6.3950   -0.9306    0.8351 C   0  0  0  0  0  0  0  0  0  0  0  0
    6.9920   -0.9495    2.1214 C   0  0  0  0  0  0  0  0  0  0  0  0
    6.9911    0.3522    2.5621 C   0  0  0  0  0  0  0  0  0  0  0  0
    6.4371    1.1692    1.6298 O   0  0  0  0  0  0  0  0  0  0  0  0
    4.3102    0.4897   -1.1526 N   0  0  0  0  0  0  0  0  0  0  0  0
    3.4119   -0.4752   -0.5105 C   0  0  0  0  0  0  0  0  0  0  0  0
    2.7971   -1.4519   -1.5247 C   0  0  0  0  0  0  0  0  0  0  0  0
    2.1823   -0.7590   -2.6902 N   0  0  0  0  0  0  0  0  0  0  0  0
    0.7538   -1.3972   -3.3291 S   0  0  0  0  0  6  0  0  0  0  0  0
    0.8522   -2.8404   -3.2816 O   0  0  0  0  0  0  0  0  0  0  0  0
    0.4604   -0.7008   -4.5633 O   0  0  0  0  0  0  0  0  0  0  0  0
   -0.4784   -0.9026   -2.1399 C   0  0  0  0  0  0  0  0  0  0  0  0
   -1.1397    0.3153   -2.2933 C   0  0  0  0  0  0  0  0  0  0  0  0
   -2.1384    0.6837   -1.3820 C   0  0  0  0  0  0  0  0  0  0  0  0
   -2.5092   -0.1588   -0.3151 C   0  0  0  0  0  0  0  0  0  0  0  0
   -3.5395    0.2454    0.6072 N   0  0  0  0  0  0  0  0  0  0  0  0
   -3.8312    1.6245    0.6803 N   0  0  0  0  0  0  0  0  0  0  0  0
   -4.7030    2.1700    1.5837 C   0  0  0  0  0  0  0  0  0  0  0  0
   -4.7421    3.3806    1.7759 O   0  0  0  0  0  0  0  0  0  0  0  0
   -5.5779    1.2514    2.3156 C   0  0  0  0  0  0  0  0  0  0  0  0
   -6.6006    1.7624    3.1289 C   0  0  0  0  0  0  0  0  0  0  0  0
   -7.4314    0.8921    3.8354 C   0  0  0  0  0  0  0  0  0  0  0  0
   -7.2390   -0.4847    3.7347 C   0  0  0  0  0  0  0  0  0  0  0  0
   -6.2151   -0.9895    2.9286 C   0  0  0  0  0  0  0  0  0  0  0  0
   -5.3768   -0.1182    2.2133 C   0  0  0  0  0  0  0  0  0  0  0  0
   -4.2931   -0.6687    1.3654 C   0  0  0  0  0  0  0  0  0  0  0  0
   -4.1557   -1.8909    1.3650 O   0  0  0  0  0  0  0  0  0  0  0  0
   -1.8405   -1.3885   -0.2014 C   0  0  0  0  0  0  0  0  0  0  0  0
   -0.8396   -1.7659   -1.1078 C   0  0  0  0  0  0  0  0  0  0  0  0
    2.3712    0.7115   -2.7387 C   0  0  0  0  0  0  0  0  0  0  0  0
    3.8216    1.0848   -2.4020 C   0  0  0  0  0  0  0  0  0  0  0  0
    6.2530   -1.7685    0.1651 H   0  0  0  0  0  0  0  0  0  0  0  0
    7.3892   -1.8027    2.6544 H   0  0  0  0  0  0  0  0  0  0  0  0
    7.3431    0.8407    3.4611 H   0  0  0  0  0  0  0  0  0  0  0  0
    3.9042   -1.0341    0.2849 H   0  0  0  0  0  0  0  0  0  0  0  0
    2.6185    0.1110   -0.0285 H   0  0  0  0  0  0  0  0  0  0  0  0
    2.0707   -2.0833   -1.0044 H   0  0  0  0  0  0  0  0  0  0  0  0
    3.5835   -2.1081   -1.9180 H   0  0  0  0  0  0  0  0  0  0  0  0
   -0.9062    0.9734   -3.1280 H   0  0  0  0  0  0  0  0  0  0  0  0
   -2.6587    1.6205   -1.5683 H   0  0  0  0  0  0  0  0  0  0  0  0
   -3.0966    2.2657    0.3992 H   0  0  0  0  0  0  0  0  0  0  0  0
   -6.7533    2.8375    3.2112 H   0  0  0  0  0  0  0  0  0  0  0  0
   -8.2273    1.2878    4.4632 H   0  0  0  0  0  0  0  0  0  0  0  0
   -7.8858   -1.1668    4.2832 H   0  0  0  0  0  0  0  0  0  0  0  0
   -6.0757   -2.0676    2.8591 H   0  0  0  0  0  0  0  0  0  0  0  0
   -2.0642   -2.0851    0.6024 H   0  0  0  0  0  0  0  0  0  0  0  0
   -0.3642   -2.7392   -1.0005 H   0  0  0  0  0  0  0  0  0  0  0  0
    2.1389    1.0921   -3.7385 H   0  0  0  0  0  0  0  0  0  0  0  0
    1.6946    1.1900   -2.0220 H   0  0  0  0  0  0  0  0  0  0  0  0
    3.9110    2.1766   -2.3495 H   0  0  0  0  0  0  0  0  0  0  0  0
    4.4932    0.7356   -3.1976 H   0  0  0  0  0  0  0  0  0  0  0  0
  1  2  2  0
  2  3  1  0
  3  4  2  0
  4  5  1  0
  5  6  2  0
  6  7  1  0
  2  8  1  0
  8  9  1  0
  9 10  1  0
 10 11  1  0
 11 12  1  0
 12 13  2  0
 12 14  2  0
 12 15  1  0
 15 16  2  0
 16 17  1  0
 17 18  2  0
 18 19  1  0
 19 20  1  0
 20 21  1  0
 21 22  2  0
 21 23  1  0
 23 24  2  0
 24 25  1  0
 25 26  2  0
 26 27  1  0
 27 28  2  0
 28 29  1  0
 29 30  2  0
 18 31  1  0
 31 32  2  0
 11 33  1  0
 33 34  1  0
  7  3  1  0
 34  8  1  0
 32 15  1  0
 29 19  1  0
 28 23  1  0
  4 35  1  0
  5 36  1  0
  6 37  1  0
  9 38  1  0
  9 39  1  0
 10 40  1  0
 10 41  1  0
 16 42  1  0
 17 43  1  0
 20 44  1  0
 24 45  1  0
 25 46  1  0
 26 47  1  0
 27 48  1  0
 31 49  1  0
 32 50  1  0
 33 51  1  0
 33 52  1  0
 34 53  1  0
 34 54  1  0
M  END
$$$$
