
     RDKit          3D

 52 54  0  0  0  0  0  0  0  0999 V2000
    8.0352   -2.4457    0.1823 C   0  0  0  0  0  0  0  0  0  0  0  0
    7.7873   -1.0527    0.0625 O   0  0  0  0  0  0  0  0  0  0  0  0
    6.4850   -0.6260    0.1327 C   0  0  0  0  0  0  0  0  0  0  0  0
    5.3837   -1.4707    0.2876 C   0  0  0  0  0  0  0  0  0  0  0  0
    4.0887   -0.9434    0.3476 C   0  0  0  0  0  0  0  0  0  0  0  0
    3.8663    0.4361    0.2541 C   0  0  0  0  0  0  0  0  0  0  0  0
    2.5093    0.9723    0.3140 C   0  0  0  0  0  0  0  0  0  0  0  0
    1.2462    0.4277    0.3644 C   0  0  0  0  0  0  0  0  0  0  0  0
    0.3582    1.5402    0.4161 C   0  0  0  0  0  0  0  0  0  0  0  0
   -1.1146    1.5589    0.4869 C   0  0  0  0  0  0  0  0  0  0  0  0
   -1.7249    2.5418    0.8941 O   0  0  0  0  0  0  0  0  0  0  0  0
   -1.7103    0.3846    0.0377 N   0  0  0  0  0  0  0  0  0  0  0  0
   -3.0880    0.0622    0.0277 C   0  0  0  0  0  0  0  0  0  0  0  0
   -3.4489   -1.1514   -0.5799 C   0  0  0  0  0  0  0  0  0  0  0  0
   -4.7850   -1.5581   -0.6324 C   0  0  0  0  0  0  0  0  0  0  0  0
   -5.2300   -2.7198   -1.2084 O   0  0  0  0  0  0  0  0  0  0  0  0
   -4.2568   -3.6662   -1.6250 C   0  0  0  0  0  0  0  0  0  0  0  0
   -5.7681   -0.7240   -0.0787 C   0  0  0  0  0  0  0  0  0  0  0  0
   -7.0819   -1.1389   -0.0883 O   0  0  0  0  0  0  0  0  0  0  0  0
   -7.7459   -0.6157   -1.2374 C   0  0  0  0  0  0  0  0  0  0  0  0
   -5.4261    0.4821    0.5531 C   0  0  0  0  0  0  0  0  0  0  0  0
   -6.4651    1.2020    1.0861 O   0  0  0  0  0  0  0  0  0  0  0  0
   -6.1473    2.4063    1.7717 C   0  0  0  0  0  0  0  0  0  0  0  0
   -4.0816    0.8673    0.5952 C   0  0  0  0  0  0  0  0  0  0  0  0
    1.0599    2.6850    0.4074 N   0  0  0  0  0  0  0  0  0  0  0  0
    2.3887    2.3286    0.3361 O   0  0  0  0  0  0  0  0  0  0  0  0
    4.9788    1.2800    0.0991 C   0  0  0  0  0  0  0  0  0  0  0  0
    6.2810    0.7637    0.0383 C   0  0  0  0  0  0  0  0  0  0  0  0
    7.4120    1.5281   -0.1142 O   0  0  0  0  0  0  0  0  0  0  0  0
    7.2569    2.9393   -0.1660 C   0  0  0  0  0  0  0  0  0  0  0  0
    7.7039   -2.8242    1.1549 H   0  0  0  0  0  0  0  0  0  0  0  0
    9.1166   -2.6001    0.1169 H   0  0  0  0  0  0  0  0  0  0  0  0
    7.5702   -3.0014   -0.6386 H   0  0  0  0  0  0  0  0  0  0  0  0
    5.4972   -2.5468    0.3659 H   0  0  0  0  0  0  0  0  0  0  0  0
    3.2599   -1.6356    0.4735 H   0  0  0  0  0  0  0  0  0  0  0  0
    1.0019   -0.6226    0.3822 H   0  0  0  0  0  0  0  0  0  0  0  0
   -1.1022   -0.2942   -0.3971 H   0  0  0  0  0  0  0  0  0  0  0  0
   -2.6747   -1.7713   -1.0176 H   0  0  0  0  0  0  0  0  0  0  0  0
   -4.7851   -4.5587   -1.9739 H   0  0  0  0  0  0  0  0  0  0  0  0
   -3.6108   -3.9655   -0.7929 H   0  0  0  0  0  0  0  0  0  0  0  0
   -3.6683   -3.2795   -2.4632 H   0  0  0  0  0  0  0  0  0  0  0  0
   -7.2766   -0.9657   -2.1635 H   0  0  0  0  0  0  0  0  0  0  0  0
   -7.7768    0.4790   -1.2192 H   0  0  0  0  0  0  0  0  0  0  0  0
   -8.7769   -0.9818   -1.2231 H   0  0  0  0  0  0  0  0  0  0  0  0
   -5.5018    2.2122    2.6346 H   0  0  0  0  0  0  0  0  0  0  0  0
   -7.0825    2.8334    2.1465 H   0  0  0  0  0  0  0  0  0  0  0  0
   -5.6966    3.1386    1.0938 H   0  0  0  0  0  0  0  0  0  0  0  0
   -3.8117    1.7958    1.0808 H   0  0  0  0  0  0  0  0  0  0  0  0
    4.8125    2.3503    0.0230 H   0  0  0  0  0  0  0  0  0  0  0  0
    6.6731    3.2397   -1.0421 H   0  0  0  0  0  0  0  0  0  0  0  0
    6.8128    3.3230    0.7584 H   0  0  0  0  0  0  0  0  0  0  0  0
    8.2531    3.3815   -0.2639 H   0  0  0  0  0  0  0  0  0  0  0  0
  1  2  1  0
  2  3  1  0
  3  4  2  0
  4  5  1  0
  5  6  2  0
  6  7  1  0
  7  8  2  0
  8  9  1  0
  9 10  1  0
 10 11  2  0
 10 12  1  0
 12 13  1  0
 13 14  2  0
 14 15  1  0
 15 16  1  0
 16 17  1  0
 15 18  2  0
 18 19  1  0
 19 20  1  0
 18 21  1  0
 21 22  1  0
 22 23  1  0
 21 24  2  0
  9 25  2  0
 25 26  1  0
  6 27  1  0
 27 28  2  0
 28 29  1  0
 29 30  1  0
 28  3  1  0
 26  7  1  0
 24 13  1  0
  1 31  1  0
  1 32  1  0
  1 33  1  0
  4 34  1  0
  5 35  1  0
  8 36  1  0
 12 37  1  0
 14 38  1  0
 17 39  1  0
 17 40  1  0
 17 41  1  0
 20 42  1  0
 20 43  1  0
 20 44  1  0
 23 45  1  0
 23 46  1  0
 23 47  1  0
 24 48  1  0
 27 49  1  0
 30 50  1  0
 30 51  1  0
 30 52  1  0
M  END
$$$$
