
     RDKit          3D

 43 45  0  0  0  0  0  0  0  0999 V2000
    0.6982   -3.1700   -1.1135 C   0  0  0  0  0  0  0  0  0  0  0  0
    1.3028   -2.1291   -0.1889 C   0  0  0  0  0  0  0  0  0  0  0  0
    1.4306   -0.8563   -0.9059 N   0  0  0  0  0  0  0  0  0  0  0  0
    1.6791    0.3291   -0.1932 C   0  0  0  0  0  0  0  0  0  0  0  0
    0.6828    1.0749    0.3339 C   0  0  0  0  0  0  0  0  0  0  0  0
   -0.6213    0.6501    0.1372 N   0  0  0  0  0  0  0  0  0  0  0  0
   -1.7514    1.4371    0.1315 C   0  0  0  0  0  0  0  0  0  0  0  0
   -1.7533    2.6615    0.1929 O   0  0  0  0  0  0  0  0  0  0  0  0
   -3.0474    0.7230   -0.0845 C   0  0  0  0  0  0  0  0  0  0  0  0
   -4.1293    1.4827   -0.5587 C   0  0  0  0  0  0  0  0  0  0  0  0
   -5.3597    0.8758   -0.8064 C   0  0  0  0  0  0  0  0  0  0  0  0
   -6.6740    1.8151   -1.3982 Cl  0  0  0  0  0  0  0  0  0  0  0  0
   -5.5336   -0.4894   -0.5884 C   0  0  0  0  0  0  0  0  0  0  0  0
   -4.4714   -1.2527   -0.1055 C   0  0  0  0  0  0  0  0  0  0  0  0
   -3.2409   -0.6451    0.1675 C   0  0  0  0  0  0  0  0  0  0  0  0
   -2.2347   -1.4514    0.6362 O   0  0  0  0  0  0  0  0  0  0  0  0
   -2.2929   -1.5176    2.0660 C   0  0  0  0  0  0  0  0  0  0  0  0
    0.9911    2.2851    1.1561 C   0  0  0  0  0  0  0  0  0  0  0  0
    0.2611    2.6952    2.0527 O   0  0  0  0  0  0  0  0  0  0  0  0
    2.2124    2.8927    0.9034 O   0  0  0  0  0  0  0  0  0  0  0  0
    3.2652    2.1336    0.3707 C   0  0  0  0  0  0  0  0  0  0  0  0
    4.5301    2.7235    0.4127 C   0  0  0  0  0  0  0  0  0  0  0  0
    5.6336    2.0059   -0.0369 C   0  0  0  0  0  0  0  0  0  0  0  0
    5.4638    0.7083   -0.5152 C   0  0  0  0  0  0  0  0  0  0  0  0
    4.1878    0.1325   -0.5582 C   0  0  0  0  0  0  0  0  0  0  0  0
    3.0597    0.8464   -0.1251 C   0  0  0  0  0  0  0  0  0  0  0  0
   -0.2918   -2.8567   -1.4616 H   0  0  0  0  0  0  0  0  0  0  0  0
    0.5921   -4.1270   -0.5935 H   0  0  0  0  0  0  0  0  0  0  0  0
    1.3287   -3.3267   -1.9951 H   0  0  0  0  0  0  0  0  0  0  0  0
    0.6644   -2.0122    0.6935 H   0  0  0  0  0  0  0  0  0  0  0  0
    2.2890   -2.4617    0.1533 H   0  0  0  0  0  0  0  0  0  0  0  0
    2.0938   -0.9552   -1.6750 H   0  0  0  0  0  0  0  0  0  0  0  0
   -0.7035   -0.2775   -0.2716 H   0  0  0  0  0  0  0  0  0  0  0  0
   -4.0064    2.5489   -0.7424 H   0  0  0  0  0  0  0  0  0  0  0  0
   -6.4910   -0.9623   -0.7922 H   0  0  0  0  0  0  0  0  0  0  0  0
   -4.6034   -2.3187    0.0615 H   0  0  0  0  0  0  0  0  0  0  0  0
   -2.2187   -0.5220    2.5172 H   0  0  0  0  0  0  0  0  0  0  0  0
   -3.2081   -2.0198    2.3977 H   0  0  0  0  0  0  0  0  0  0  0  0
   -1.4382   -2.1093    2.4068 H   0  0  0  0  0  0  0  0  0  0  0  0
    4.6515    3.7291    0.8061 H   0  0  0  0  0  0  0  0  0  0  0  0
    6.6241    2.4525   -0.0050 H   0  0  0  0  0  0  0  0  0  0  0  0
    6.3264    0.1411   -0.8576 H   0  0  0  0  0  0  0  0  0  0  0  0
    4.1023   -0.8835   -0.9319 H   0  0  0  0  0  0  0  0  0  0  0  0
  1  2  1  0
  2  3  1  0
  3  4  1  0
  4  5  2  0
  5  6  1  0
  6  7  1  0
  7  8  2  0
  7  9  1  0
  9 10  2  0
 10 11  1  0
 11 12  1  0
 11 13  2  0
 13 14  1  0
 14 15  2  0
 15 16  1  0
 16 17  1  0
  5 18  1  0
 18 19  2  0
 18 20  1  0
 20 21  1  0
 21 22  2  0
 22 23  1  0
 23 24  2  0
 24 25  1  0
 25 26  2  0
 26  4  1  0
 15  9  1  0
 26 21  1  0
  1 27  1  0
  1 28  1  0
  1 29  1  0
  2 30  1  0
  2 31  1  0
  3 32  1  0
  6 33  1  0
 10 34  1  0
 13 35  1  0
 14 36  1  0
 17 37  1  0
 17 38  1  0
 17 39  1  0
 22 40  1  0
 23 41  1  0
 24 42  1  0
 25 43  1  0
M  END
$$$$
