
     RDKit          3D

 41 43  0  0  0  0  0  0  0  0999 V2000
    4.6927    0.5194   -3.0278 C   0  0  0  0  0  0  0  0  0  0  0  0
    5.3752   -0.5080   -2.1413 C   0  0  0  0  0  0  0  0  0  0  0  0
    5.1580   -0.2141   -0.7629 O   0  0  0  0  0  0  0  0  0  0  0  0
    3.9945   -0.6210   -0.1732 C   0  0  0  0  0  0  0  0  0  0  0  0
    3.8150   -0.1491    1.1314 C   0  0  0  0  0  0  0  0  0  0  0  0
    2.6688   -0.4743    1.8589 C   0  0  0  0  0  0  0  0  0  0  0  0
    1.6919   -1.2831    1.2736 C   0  0  0  0  0  0  0  0  0  0  0  0
    0.2477   -1.7408    2.2185 S   0  0  0  0  0  6  0  0  0  0  0  0
   -0.1328   -3.0840    1.8183 O   0  0  0  0  0  0  0  0  0  0  0  0
    0.5995   -1.5073    3.6151 O   0  0  0  0  0  0  0  0  0  0  0  0
   -0.9354   -0.5928    1.7288 C   0  0  0  0  0  0  0  0  0  0  0  0
   -1.3221    0.3816    2.5679 C   0  0  0  0  0  0  0  0  0  0  0  0
   -2.2766    1.3264    2.2796 N   0  0  0  0  0  0  0  0  0  0  0  0
   -3.0646    1.2018    1.1247 C   0  0  0  0  0  0  0  0  0  0  0  0
   -4.1214    2.0789    0.8785 C   0  0  0  0  0  0  0  0  0  0  0  0
   -4.8871    1.9511   -0.2882 C   0  0  0  0  0  0  0  0  0  0  0  0
   -4.5995    0.9543   -1.2277 C   0  0  0  0  0  0  0  0  0  0  0  0
   -5.4286    0.7981   -2.4741 C   0  0  0  0  0  0  0  0  0  0  0  0
   -3.5176    0.0952   -1.0060 C   0  0  0  0  0  0  0  0  0  0  0  0
   -2.7520    0.2260    0.1594 C   0  0  0  0  0  0  0  0  0  0  0  0
   -1.5881   -0.6708    0.3992 C   0  0  0  0  0  0  0  0  0  0  0  0
   -1.1918   -1.4112   -0.4910 O   0  0  0  0  0  0  0  0  0  0  0  0
    1.8744   -1.7878   -0.0149 C   0  0  0  0  0  0  0  0  0  0  0  0
    3.0203   -1.4436   -0.7411 C   0  0  0  0  0  0  0  0  0  0  0  0
    4.9158    0.3309   -4.0801 H   0  0  0  0  0  0  0  0  0  0  0  0
    3.6106    0.5007   -2.8972 H   0  0  0  0  0  0  0  0  0  0  0  0
    5.0250    1.5322   -2.7715 H   0  0  0  0  0  0  0  0  0  0  0  0
    6.4557   -0.4373   -2.3057 H   0  0  0  0  0  0  0  0  0  0  0  0
    5.1048   -1.5352   -2.4043 H   0  0  0  0  0  0  0  0  0  0  0  0
    4.5789    0.4746    1.5872 H   0  0  0  0  0  0  0  0  0  0  0  0
    2.5607   -0.1037    2.8761 H   0  0  0  0  0  0  0  0  0  0  0  0
   -0.9058    0.4909    3.5655 H   0  0  0  0  0  0  0  0  0  0  0  0
   -2.6288    1.9002    3.0433 H   0  0  0  0  0  0  0  0  0  0  0  0
   -4.3658    2.8640    1.5887 H   0  0  0  0  0  0  0  0  0  0  0  0
   -5.7151    2.6378   -0.4518 H   0  0  0  0  0  0  0  0  0  0  0  0
   -6.2622    1.5113   -2.4937 H   0  0  0  0  0  0  0  0  0  0  0  0
   -5.8545   -0.2122   -2.5132 H   0  0  0  0  0  0  0  0  0  0  0  0
   -4.8143    0.9693   -3.3668 H   0  0  0  0  0  0  0  0  0  0  0  0
   -3.2739   -0.6797   -1.7297 H   0  0  0  0  0  0  0  0  0  0  0  0
    1.1319   -2.4445   -0.4662 H   0  0  0  0  0  0  0  0  0  0  0  0
    3.1166   -1.8440   -1.7451 H   0  0  0  0  0  0  0  0  0  0  0  0
  1  2  1  0
  2  3  1  0
  3  4  1  0
  4  5  2  0
  5  6  1  0
  6  7  2  0
  7  8  1  0
  8  9  2  0
  8 10  2  0
  8 11  1  0
 11 12  2  0
 12 13  1  0
 13 14  1  0
 14 15  2  0
 15 16  1  0
 16 17  2  0
 17 18  1  0
 17 19  1  0
 19 20  2  0
 20 21  1  0
 21 22  2  0
  7 23  1  0
 23 24  2  0
 24  4  1  0
 21 11  1  0
 20 14  1  0
  1 25  1  0
  1 26  1  0
  1 27  1  0
  2 28  1  0
  2 29  1  0
  5 30  1  0
  6 31  1  0
 12 32  1  0
 13 33  1  0
 15 34  1  0
 16 35  1  0
 18 36  1  0
 18 37  1  0
 18 38  1  0
 19 39  1  0
 23 40  1  0
 24 41  1  0
M  END
$$$$
