
     RDKit          3D

 65 67  0  0  0  0  0  0  0  0999 V2000
    8.6785    0.2858    3.1239 C   0  0  0  0  0  0  0  0  0  0  0  0
    7.7647    1.3873    2.6140 C   0  0  0  0  0  0  0  0  0  0  0  0
    7.6038    1.3026    1.1991 O   0  0  0  0  0  0  0  0  0  0  0  0
    6.6130    0.5094    0.6938 C   0  0  0  0  0  0  0  0  0  0  0  0
    5.7677   -0.3281    1.4192 C   0  0  0  0  0  0  0  0  0  0  0  0
    4.8049   -1.1032    0.7609 C   0  0  0  0  0  0  0  0  0  0  0  0
    4.6725   -1.0530   -0.6319 C   0  0  0  0  0  0  0  0  0  0  0  0
    3.6454   -1.9121   -1.3342 C   0  0  0  0  0  0  0  0  0  0  0  0
    2.5977   -1.1199   -2.1203 C   0  0  0  0  0  0  0  0  0  0  0  0
    1.8026   -0.2470   -1.2724 N   0  0  0  0  0  0  0  0  0  0  0  0
    0.6053    0.2674   -1.7454 C   0  0  0  0  0  0  0  0  0  0  0  0
    0.0977   -0.0930   -2.8046 O   0  0  0  0  0  0  0  0  0  0  0  0
   -0.0460    1.2752   -0.7894 C   0  0  0  0  0  0  0  0  0  0  0  0
   -1.1975    1.9406   -1.3916 N   0  0  0  0  0  0  0  0  0  0  0  0
   -0.9667    3.1312   -2.0570 C   0  0  0  0  0  0  0  0  0  0  0  0
    0.1370    3.6812   -2.0942 O   0  0  0  0  0  0  0  0  0  0  0  0
   -2.1647    3.7391   -2.7772 C   0  0  0  0  0  0  0  0  0  0  0  0
   -3.4754    3.2530   -2.5845 O   0  0  0  0  0  0  0  0  0  0  0  0
   -3.5553    2.0097   -2.0283 C   0  0  0  0  0  0  0  0  0  0  0  0
   -4.8346    1.4406   -2.0693 C   0  0  0  0  0  0  0  0  0  0  0  0
   -5.0685    0.1867   -1.5118 C   0  0  0  0  0  0  0  0  0  0  0  0
   -4.0165   -0.4838   -0.8915 C   0  0  0  0  0  0  0  0  0  0  0  0
   -4.2956   -2.0868   -0.1650 S   0  0  0  0  0  6  0  0  0  0  0  0
   -5.1700   -2.8084   -1.0651 O   0  0  0  0  0  0  0  0  0  0  0  0
   -3.0033   -2.6213    0.2145 O   0  0  0  0  0  0  0  0  0  0  0  0
   -5.1443   -1.7406    1.2523 N   0  0  0  0  0  0  0  0  0  0  0  0
   -6.6131   -1.6366    1.2251 C   0  0  0  0  0  0  0  0  0  0  0  0
   -7.2235   -2.9453    1.6972 C   0  0  0  0  0  0  0  0  0  0  0  0
   -4.4577   -1.2068    2.4419 C   0  0  0  0  0  0  0  0  0  0  0  0
   -4.3873    0.3091    2.4462 C   0  0  0  0  0  0  0  0  0  0  0  0
   -2.7270    0.0687   -0.8729 C   0  0  0  0  0  0  0  0  0  0  0  0
   -2.4825    1.3325   -1.4312 C   0  0  0  0  0  0  0  0  0  0  0  0
    5.5249   -0.2127   -1.3550 C   0  0  0  0  0  0  0  0  0  0  0  0
    6.4825    0.5619   -0.6948 C   0  0  0  0  0  0  0  0  0  0  0  0
    8.2744   -0.7065    2.9073 H   0  0  0  0  0  0  0  0  0  0  0  0
    8.8226    0.3749    4.2053 H   0  0  0  0  0  0  0  0  0  0  0  0
    9.6577    0.3425    2.6320 H   0  0  0  0  0  0  0  0  0  0  0  0
    8.2442    2.3526    2.8119 H   0  0  0  0  0  0  0  0  0  0  0  0
    6.8056    1.4152    3.1447 H   0  0  0  0  0  0  0  0  0  0  0  0
    5.8391   -0.4205    2.4970 H   0  0  0  0  0  0  0  0  0  0  0  0
    4.1659   -1.7587    1.3491 H   0  0  0  0  0  0  0  0  0  0  0  0
    3.1331   -2.5486   -0.6014 H   0  0  0  0  0  0  0  0  0  0  0  0
    4.1736   -2.5909   -2.0151 H   0  0  0  0  0  0  0  0  0  0  0  0
    3.0600   -0.4931   -2.8914 H   0  0  0  0  0  0  0  0  0  0  0  0
    1.9258   -1.8207   -2.6291 H   0  0  0  0  0  0  0  0  0  0  0  0
    2.3177    0.3269   -0.6157 H   0  0  0  0  0  0  0  0  0  0  0  0
    0.7114    2.0221   -0.5218 H   0  0  0  0  0  0  0  0  0  0  0  0
   -0.3321    0.7776    0.1425 H   0  0  0  0  0  0  0  0  0  0  0  0
   -1.9470    3.7072   -3.8551 H   0  0  0  0  0  0  0  0  0  0  0  0
   -2.1860    4.7985   -2.4844 H   0  0  0  0  0  0  0  0  0  0  0  0
   -5.6485    1.9801   -2.5498 H   0  0  0  0  0  0  0  0  0  0  0  0
   -6.0584   -0.2558   -1.5744 H   0  0  0  0  0  0  0  0  0  0  0  0
   -6.9751   -1.4013    0.2210 H   0  0  0  0  0  0  0  0  0  0  0  0
   -6.9540   -0.8202    1.8711 H   0  0  0  0  0  0  0  0  0  0  0  0
   -6.9335   -3.7756    1.0451 H   0  0  0  0  0  0  0  0  0  0  0  0
   -6.8981   -3.1898    2.7139 H   0  0  0  0  0  0  0  0  0  0  0  0
   -8.3161   -2.8752    1.6977 H   0  0  0  0  0  0  0  0  0  0  0  0
   -3.4505   -1.6271    2.5272 H   0  0  0  0  0  0  0  0  0  0  0  0
   -4.9955   -1.5466    3.3345 H   0  0  0  0  0  0  0  0  0  0  0  0
   -5.3585    0.7663    2.2452 H   0  0  0  0  0  0  0  0  0  0  0  0
   -4.0295    0.6680    3.4158 H   0  0  0  0  0  0  0  0  0  0  0  0
   -3.6906    0.6794    1.6907 H   0  0  0  0  0  0  0  0  0  0  0  0
   -1.9297   -0.5140   -0.4227 H   0  0  0  0  0  0  0  0  0  0  0  0
    5.4626   -0.1570   -2.4388 H   0  0  0  0  0  0  0  0  0  0  0  0
    7.1408    1.2070   -1.2726 H   0  0  0  0  0  0  0  0  0  0  0  0
  1  2  1  0
  2  3  1  0
  3  4  1  0
  4  5  2  0
  5  6  1  0
  6  7  2  0
  7  8  1  0
  8  9  1  0
  9 10  1  0
 10 11  1  0
 11 12  2  0
 11 13  1  0
 13 14  1  0
 14 15  1  0
 15 16  2  0
 15 17  1  0
 17 18  1  0
 18 19  1  0
 19 20  2  0
 20 21  1  0
 21 22  2  0
 22 23  1  0
 23 24  2  0
 23 25  2  0
 23 26  1  0
 26 27  1  0
 27 28  1  0
 26 29  1  0
 29 30  1  0
 22 31  1  0
 31 32  2  0
  7 33  1  0
 33 34  2  0
 34  4  1  0
 32 14  1  0
 32 19  1  0
  1 35  1  0
  1 36  1  0
  1 37  1  0
  2 38  1  0
  2 39  1  0
  5 40  1  0
  6 41  1  0
  8 42  1  0
  8 43  1  0
  9 44  1  0
  9 45  1  0
 10 46  1  0
 13 47  1  0
 13 48  1  0
 17 49  1  0
 17 50  1  0
 20 51  1  0
 21 52  1  0
 27 53  1  0
 27 54  1  0
 28 55  1  0
 28 56  1  0
 28 57  1  0
 29 58  1  0
 29 59  1  0
 30 60  1  0
 30 61  1  0
 30 62  1  0
 31 63  1  0
 33 64  1  0
 34 65  1  0
M  END
$$$$
