
     RDKit          3D

 53 55  0  0  0  0  0  0  0  0999 V2000
    9.4057   -1.2607   -0.5438 C   0  0  0  0  0  0  0  0  0  0  0  0
    8.5015   -0.9828    0.5161 O   0  0  0  0  0  0  0  0  0  0  0  0
    7.1690   -0.8629    0.2157 C   0  0  0  0  0  0  0  0  0  0  0  0
    6.6314   -0.9958   -1.0702 C   0  0  0  0  0  0  0  0  0  0  0  0
    5.2533   -0.8563   -1.2808 C   0  0  0  0  0  0  0  0  0  0  0  0
    4.6287   -0.9685   -2.5037 O   0  0  0  0  0  0  0  0  0  0  0  0
    5.4476   -1.2467   -3.6336 C   0  0  0  0  0  0  0  0  0  0  0  0
    4.3950   -0.5799   -0.1948 C   0  0  0  0  0  0  0  0  0  0  0  0
    3.0182   -0.4535   -0.4888 N   0  0  0  0  0  0  0  0  0  0  0  0
    1.9765   -0.1882    0.3791 C   0  0  0  0  0  0  0  0  0  0  0  0
    2.0664   -0.0114    1.5876 O   0  0  0  0  0  0  0  0  0  0  0  0
    0.6448   -0.1357   -0.3534 C   0  0  0  0  0  0  0  0  0  0  0  0
   -0.5228    0.1561    0.5830 C   0  0  0  0  0  0  0  0  0  0  0  0
   -1.8472    0.2044   -0.1705 C   0  0  0  0  0  0  0  0  0  0  0  0
   -2.8813    0.4807    0.7735 O   0  0  0  0  0  0  0  0  0  0  0  0
   -4.1785    0.5715    0.3150 C   0  0  0  0  0  0  0  0  0  0  0  0
   -4.5798    0.4241   -0.9543 C   0  0  0  0  0  0  0  0  0  0  0  0
   -5.9974    0.5386   -1.3583 C   0  0  0  0  0  0  0  0  0  0  0  0
   -6.2681    0.3871   -2.5488 O   0  0  0  0  0  0  0  0  0  0  0  0
   -6.9265    0.8091   -0.3668 N   0  0  0  0  0  0  0  0  0  0  0  0
   -8.3248    0.9245   -0.7490 C   0  0  0  0  0  0  0  0  0  0  0  0
   -6.5428    0.9737    0.9994 C   0  0  0  0  0  0  0  0  0  0  0  0
   -7.4885    1.2481    2.0026 C   0  0  0  0  0  0  0  0  0  0  0  0
   -7.0983    1.4066    3.3344 C   0  0  0  0  0  0  0  0  0  0  0  0
   -5.7589    1.2934    3.6832 C   0  0  0  0  0  0  0  0  0  0  0  0
   -4.8091    1.0215    2.6995 C   0  0  0  0  0  0  0  0  0  0  0  0
   -5.1851    0.8591    1.3537 C   0  0  0  0  0  0  0  0  0  0  0  0
    4.9285   -0.4474    1.0857 C   0  0  0  0  0  0  0  0  0  0  0  0
    6.3047   -0.5880    1.2876 C   0  0  0  0  0  0  0  0  0  0  0  0
    6.9076   -0.4123    2.9014 Cl  0  0  0  0  0  0  0  0  0  0  0  0
    9.4052   -0.4544   -1.2845 H   0  0  0  0  0  0  0  0  0  0  0  0
   10.4120   -1.3203   -0.1181 H   0  0  0  0  0  0  0  0  0  0  0  0
    9.1836   -2.2268   -1.0087 H   0  0  0  0  0  0  0  0  0  0  0  0
    7.2852   -1.2076   -1.9055 H   0  0  0  0  0  0  0  0  0  0  0  0
    5.9478   -2.2150   -3.5292 H   0  0  0  0  0  0  0  0  0  0  0  0
    4.7965   -1.3019   -4.5114 H   0  0  0  0  0  0  0  0  0  0  0  0
    6.1695   -0.4416   -3.8051 H   0  0  0  0  0  0  0  0  0  0  0  0
    2.8009   -0.5795   -1.4732 H   0  0  0  0  0  0  0  0  0  0  0  0
    0.4894   -1.1001   -0.8515 H   0  0  0  0  0  0  0  0  0  0  0  0
    0.7074    0.6431   -1.1228 H   0  0  0  0  0  0  0  0  0  0  0  0
   -0.5793   -0.6048    1.3721 H   0  0  0  0  0  0  0  0  0  0  0  0
   -0.3651    1.1084    1.1055 H   0  0  0  0  0  0  0  0  0  0  0  0
   -2.0317   -0.7626   -0.6534 H   0  0  0  0  0  0  0  0  0  0  0  0
   -1.8116    0.9972   -0.9273 H   0  0  0  0  0  0  0  0  0  0  0  0
   -3.9059    0.2125   -1.7726 H   0  0  0  0  0  0  0  0  0  0  0  0
   -8.9100    0.1623   -0.2246 H   0  0  0  0  0  0  0  0  0  0  0  0
   -8.4692    0.7754   -1.8229 H   0  0  0  0  0  0  0  0  0  0  0  0
   -8.6894    1.9259   -0.4991 H   0  0  0  0  0  0  0  0  0  0  0  0
   -8.5459    1.3453    1.7775 H   0  0  0  0  0  0  0  0  0  0  0  0
   -7.8428    1.6185    4.0977 H   0  0  0  0  0  0  0  0  0  0  0  0
   -5.4492    1.4157    4.7180 H   0  0  0  0  0  0  0  0  0  0  0  0
   -3.7650    0.9369    2.9950 H   0  0  0  0  0  0  0  0  0  0  0  0
    4.2981   -0.2351    1.9430 H   0  0  0  0  0  0  0  0  0  0  0  0
  1  2  1  0
  2  3  1  0
  3  4  2  0
  4  5  1  0
  5  6  1  0
  6  7  1  0
  5  8  2  0
  8  9  1  0
  9 10  1  0
 10 11  2  0
 10 12  1  0
 12 13  1  0
 13 14  1  0
 14 15  1  0
 15 16  1  0
 16 17  2  0
 17 18  1  0
 18 19  2  0
 18 20  1  0
 20 21  1  0
 20 22  1  0
 22 23  2  0
 23 24  1  0
 24 25  2  0
 25 26  1  0
 26 27  2  0
  8 28  1  0
 28 29  2  0
 29 30  1  0
 29  3  1  0
 27 16  1  0
 27 22  1  0
  1 31  1  0
  1 32  1  0
  1 33  1  0
  4 34  1  0
  7 35  1  0
  7 36  1  0
  7 37  1  0
  9 38  1  0
 12 39  1  0
 12 40  1  0
 13 41  1  0
 13 42  1  0
 14 43  1  0
 14 44  1  0
 17 45  1  0
 21 46  1  0
 21 47  1  0
 21 48  1  0
 23 49  1  0
 24 50  1  0
 25 51  1  0
 26 52  1  0
 28 53  1  0
M  END
$$$$
