
     RDKit          3D

 51 52  0  0  0  0  0  0  0  0999 V2000
    6.9702    0.0999    2.3810 C   0  0  0  0  0  0  0  0  0  0  0  0
    6.7906    0.5549    0.9410 C   0  0  0  0  0  0  0  0  0  0  0  0
    5.3281    0.6113    0.4983 C   0  0  0  0  0  0  0  0  0  0  0  0
    4.6514   -0.7555    0.4705 C   0  0  0  0  0  0  0  0  0  0  0  0
    3.3059   -0.6591   -0.0522 N   0  0  0  0  0  0  0  0  0  0  0  0
    2.6190   -1.7707   -0.4925 C   0  0  0  0  0  0  0  0  0  0  0  0
    3.1171   -2.8929   -0.5543 O   0  0  0  0  0  0  0  0  0  0  0  0
    1.1616   -1.5202   -0.8610 C   0  0  0  0  0  0  0  0  0  0  0  0
    1.0334   -0.3914   -1.8140 N   0  0  0  0  0  0  0  0  0  0  0  0
    0.6045   -0.7825   -3.1621 C   0  0  0  0  0  0  0  0  0  0  0  0
    0.5516    1.1047   -1.2124 S   0  0  0  0  0  6  0  0  0  0  0  0
    0.6846    2.0896   -2.2630 O   0  0  0  0  0  0  0  0  0  0  0  0
    1.2060    1.2842    0.0679 O   0  0  0  0  0  0  0  0  0  0  0  0
   -1.1890    0.8883   -0.9125 C   0  0  0  0  0  0  0  0  0  0  0  0
   -2.1059    1.1929   -1.9190 C   0  0  0  0  0  0  0  0  0  0  0  0
   -3.4776    1.0602   -1.6737 C   0  0  0  0  0  0  0  0  0  0  0  0
   -3.9508    0.6342   -0.4210 C   0  0  0  0  0  0  0  0  0  0  0  0
   -3.0162    0.3528    0.5752 C   0  0  0  0  0  0  0  0  0  0  0  0
   -1.6379    0.4879    0.3443 C   0  0  0  0  0  0  0  0  0  0  0  0
   -3.4843   -0.1002    1.8933 C   0  0  0  0  0  0  0  0  0  0  0  0
   -2.6530   -0.4399    2.7320 O   0  0  0  0  0  0  0  0  0  0  0  0
   -4.8543   -0.1309    2.0923 N   0  0  0  0  0  0  0  0  0  0  0  0
   -5.3403   -0.5532    3.3934 C   0  0  0  0  0  0  0  0  0  0  0  0
   -5.8072    0.0870    1.1041 C   0  0  0  0  0  0  0  0  0  0  0  0
   -7.0100   -0.0712    1.3263 O   0  0  0  0  0  0  0  0  0  0  0  0
   -5.3354    0.4823   -0.1455 N   0  0  0  0  0  0  0  0  0  0  0  0
   -6.3128    0.7448   -1.1951 C   0  0  0  0  0  0  0  0  0  0  0  0
    6.6600   -0.9406    2.5141 H   0  0  0  0  0  0  0  0  0  0  0  0
    8.0242    0.1704    2.6682 H   0  0  0  0  0  0  0  0  0  0  0  0
    6.3898    0.7256    3.0663 H   0  0  0  0  0  0  0  0  0  0  0  0
    7.2247    1.5562    0.8350 H   0  0  0  0  0  0  0  0  0  0  0  0
    7.3564   -0.1078    0.2759 H   0  0  0  0  0  0  0  0  0  0  0  0
    5.2860    1.0526   -0.5058 H   0  0  0  0  0  0  0  0  0  0  0  0
    4.7677    1.2894    1.1543 H   0  0  0  0  0  0  0  0  0  0  0  0
    4.5721   -1.1789    1.4772 H   0  0  0  0  0  0  0  0  0  0  0  0
    5.2217   -1.4585   -0.1468 H   0  0  0  0  0  0  0  0  0  0  0  0
    2.7578    0.1717    0.1722 H   0  0  0  0  0  0  0  0  0  0  0  0
    0.7536   -2.4384   -1.2995 H   0  0  0  0  0  0  0  0  0  0  0  0
    0.6036   -1.3448    0.0631 H   0  0  0  0  0  0  0  0  0  0  0  0
    0.6668    0.0576   -3.8590 H   0  0  0  0  0  0  0  0  0  0  0  0
   -0.4196   -1.1661   -3.1487 H   0  0  0  0  0  0  0  0  0  0  0  0
    1.2664   -1.5646   -3.5485 H   0  0  0  0  0  0  0  0  0  0  0  0
   -1.7665    1.5435   -2.8927 H   0  0  0  0  0  0  0  0  0  0  0  0
   -4.1561    1.3079   -2.4859 H   0  0  0  0  0  0  0  0  0  0  0  0
   -0.9305    0.2858    1.1473 H   0  0  0  0  0  0  0  0  0  0  0  0
   -6.2134    0.0415    3.6808 H   0  0  0  0  0  0  0  0  0  0  0  0
   -4.5756   -0.4476    4.1679 H   0  0  0  0  0  0  0  0  0  0  0  0
   -5.6389   -1.6044    3.3262 H   0  0  0  0  0  0  0  0  0  0  0  0
   -7.3396    0.5782   -0.8585 H   0  0  0  0  0  0  0  0  0  0  0  0
   -6.2328    1.7896   -1.5116 H   0  0  0  0  0  0  0  0  0  0  0  0
   -6.1269    0.0744   -2.0402 H   0  0  0  0  0  0  0  0  0  0  0  0
  1  2  1  0
  2  3  1  0
  3  4  1  0
  4  5  1  0
  5  6  1  0
  6  7  2  0
  6  8  1  0
  8  9  1  0
  9 10  1  0
  9 11  1  0
 11 12  2  0
 11 13  2  0
 11 14  1  0
 14 15  2  0
 15 16  1  0
 16 17  2  0
 17 18  1  0
 18 19  2  0
 18 20  1  0
 20 21  2  0
 20 22  1  0
 22 23  1  0
 22 24  1  0
 24 25  2  0
 24 26  1  0
 26 27  1  0
 19 14  1  0
 26 17  1  0
  1 28  1  0
  1 29  1  0
  1 30  1  0
  2 31  1  0
  2 32  1  0
  3 33  1  0
  3 34  1  0
  4 35  1  0
  4 36  1  0
  5 37  1  0
  8 38  1  0
  8 39  1  0
 10 40  1  0
 10 41  1  0
 10 42  1  0
 15 43  1  0
 16 44  1  0
 19 45  1  0
 23 46  1  0
 23 47  1  0
 23 48  1  0
 27 49  1  0
 27 50  1  0
 27 51  1  0
M  END
$$$$
