
     RDKit          3D

 47 50  0  0  0  0  0  0  0  0999 V2000
   -0.7125   -1.0817    2.7537 C   0  0  0  0  0  0  0  0  0  0  0  0
   -1.3452   -0.6657    1.5485 O   0  0  0  0  0  0  0  0  0  0  0  0
   -1.7972   -1.6439    0.6983 C   0  0  0  0  0  0  0  0  0  0  0  0
   -1.6857   -3.0181    0.9455 C   0  0  0  0  0  0  0  0  0  0  0  0
   -2.2451   -3.9441    0.0630 C   0  0  0  0  0  0  0  0  0  0  0  0
   -2.9324   -3.5079   -1.0671 C   0  0  0  0  0  0  0  0  0  0  0  0
   -3.0441   -2.1425   -1.3301 C   0  0  0  0  0  0  0  0  0  0  0  0
   -2.4563   -1.2022   -0.4713 C   0  0  0  0  0  0  0  0  0  0  0  0
   -2.5641    0.1933   -0.7809 N   0  0  0  0  0  0  0  0  0  0  0  0
   -1.4466    1.0185   -0.9285 C   0  0  0  0  0  0  0  0  0  0  0  0
    0.1506    0.2923   -1.0968 S   0  0  0  0  0  0  0  0  0  0  0  0
    1.0436    1.3546    0.0736 C   0  0  0  0  0  0  0  0  0  0  0  0
    2.3842    0.7783    0.5095 C   0  0  0  0  0  0  0  0  0  0  0  0
    2.8954    1.1453    1.5692 O   0  0  0  0  0  0  0  0  0  0  0  0
    2.9633   -0.0982   -0.3756 N   0  0  0  0  0  0  0  0  0  0  0  0
    4.1889   -0.7066   -0.2262 C   0  0  0  0  0  0  0  0  0  0  0  0
    5.1618   -0.5314    0.7815 C   0  0  0  0  0  0  0  0  0  0  0  0
    6.1784   -1.3858    0.4348 C   0  0  0  0  0  0  0  0  0  0  0  0
    7.4878   -1.7238    1.0199 C   0  0  0  0  0  0  0  0  0  0  0  0
    5.8407   -2.0366   -0.7090 O   0  0  0  0  0  0  0  0  0  0  0  0
    4.5956   -1.6057   -1.1294 N   0  0  0  0  0  0  0  0  0  0  0  0
   -1.4910    2.3102   -1.0589 N   0  0  0  0  0  0  0  0  0  0  0  0
   -2.7313    2.8747   -1.0589 C   0  0  0  0  0  0  0  0  0  0  0  0
   -3.8804    2.2022   -1.0005 C   0  0  0  0  0  0  0  0  0  0  0  0
   -3.8556    0.7306   -0.8755 C   0  0  0  0  0  0  0  0  0  0  0  0
   -4.9047    0.0859   -0.8491 O   0  0  0  0  0  0  0  0  0  0  0  0
   -5.3049    3.1592   -1.0480 S   0  0  0  0  0  0  0  0  0  0  0  0
   -4.3550    4.6566   -1.4908 C   0  0  0  0  0  0  0  0  0  0  0  0
   -2.8865    4.3615   -1.1644 C   0  0  0  0  0  0  0  0  0  0  0  0
   -0.4420   -0.1836    3.3169 H   0  0  0  0  0  0  0  0  0  0  0  0
    0.2101   -1.6317    2.5428 H   0  0  0  0  0  0  0  0  0  0  0  0
   -1.3951   -1.6704    3.3743 H   0  0  0  0  0  0  0  0  0  0  0  0
   -1.1829   -3.4064    1.8248 H   0  0  0  0  0  0  0  0  0  0  0  0
   -2.1580   -5.0090    0.2675 H   0  0  0  0  0  0  0  0  0  0  0  0
   -3.3811   -4.2294   -1.7450 H   0  0  0  0  0  0  0  0  0  0  0  0
   -3.5823   -1.8194   -2.2156 H   0  0  0  0  0  0  0  0  0  0  0  0
    1.2264    2.3358   -0.3815 H   0  0  0  0  0  0  0  0  0  0  0  0
    0.4367    1.4799    0.9738 H   0  0  0  0  0  0  0  0  0  0  0  0
    2.4422   -0.3948   -1.1954 H   0  0  0  0  0  0  0  0  0  0  0  0
    5.1305    0.1215    1.6426 H   0  0  0  0  0  0  0  0  0  0  0  0
    8.2962   -1.4516    0.3351 H   0  0  0  0  0  0  0  0  0  0  0  0
    7.5526   -2.7973    1.2274 H   0  0  0  0  0  0  0  0  0  0  0  0
    7.6449   -1.1868    1.9601 H   0  0  0  0  0  0  0  0  0  0  0  0
   -4.7242    5.5271   -0.9421 H   0  0  0  0  0  0  0  0  0  0  0  0
   -4.4826    4.8412   -2.5629 H   0  0  0  0  0  0  0  0  0  0  0  0
   -2.6038    4.8294   -0.2153 H   0  0  0  0  0  0  0  0  0  0  0  0
   -2.2396    4.7768   -1.9439 H   0  0  0  0  0  0  0  0  0  0  0  0
  1  2  1  0
  2  3  1  0
  3  4  2  0
  4  5  1  0
  5  6  2  0
  6  7  1  0
  7  8  2  0
  8  9  1  0
  9 10  1  0
 10 11  1  0
 11 12  1  0
 12 13  1  0
 13 14  2  0
 13 15  1  0
 15 16  1  0
 16 17  1  0
 17 18  2  0
 18 19  1  0
 18 20  1  0
 20 21  1  0
 10 22  2  0
 22 23  1  0
 23 24  2  0
 24 25  1  0
 25 26  2  0
 24 27  1  0
 27 28  1  0
 28 29  1  0
  8  3  1  0
 25  9  1  0
 21 16  2  0
 29 23  1  0
  1 30  1  0
  1 31  1  0
  1 32  1  0
  4 33  1  0
  5 34  1  0
  6 35  1  0
  7 36  1  0
 12 37  1  0
 12 38  1  0
 15 39  1  0
 17 40  1  0
 19 41  1  0
 19 42  1  0
 19 43  1  0
 28 44  1  0
 28 45  1  0
 29 46  1  0
 29 47  1  0
M  END
$$$$
