
     RDKit          3D

 37 38  0  0  0  0  0  0  0  0999 V2000
    5.2248    2.7043   -1.0751 C   0  0  0  0  0  0  0  0  0  0  0  0
    4.0422    1.8296   -1.4060 C   0  0  0  0  0  0  0  0  0  0  0  0
    3.6716    1.6774   -2.5631 O   0  0  0  0  0  0  0  0  0  0  0  0
    3.5039    1.2197   -0.2821 N   0  0  0  0  0  0  0  0  0  0  0  0
    2.4117    0.4075   -0.1378 C   0  0  0  0  0  0  0  0  0  0  0  0
    2.1347   -0.0475    1.0356 N   0  0  0  0  0  0  0  0  0  0  0  0
    1.0006   -0.8555    1.0310 N   0  0  0  0  0  0  0  0  0  0  0  0
    0.6615   -1.4304    2.2507 C   0  0  0  0  0  0  0  0  0  0  0  0
   -0.5234   -2.3600    2.3082 C   0  0  0  0  0  0  0  0  0  0  0  0
    1.3078   -1.2374    3.2865 O   0  0  0  0  0  0  0  0  0  0  0  0
    0.3302   -1.0134   -0.2910 C   0  0  0  0  0  0  0  0  0  0  0  0
    0.4393   -2.4697   -0.7793 C   0  0  0  0  0  0  0  0  0  0  0  0
   -1.0781   -0.4050   -0.3231 C   0  0  0  0  0  0  0  0  0  0  0  0
   -2.1096   -0.9492   -1.1087 C   0  0  0  0  0  0  0  0  0  0  0  0
   -3.3862   -0.3759   -1.1272 C   0  0  0  0  0  0  0  0  0  0  0  0
   -3.6644    0.7696   -0.3778 C   0  0  0  0  0  0  0  0  0  0  0  0
   -5.0414    1.3637   -0.3755 C   0  0  0  0  0  0  0  0  0  0  0  0
   -2.6512    1.3244    0.4060 C   0  0  0  0  0  0  0  0  0  0  0  0
   -1.3755    0.7532    0.4244 C   0  0  0  0  0  0  0  0  0  0  0  0
    1.3900   -0.0294   -1.4499 S   0  0  0  0  0  0  0  0  0  0  0  0
    5.2884    3.5165   -1.8049 H   0  0  0  0  0  0  0  0  0  0  0  0
    5.1213    3.1503   -0.0817 H   0  0  0  0  0  0  0  0  0  0  0  0
    6.1383    2.1055   -1.1133 H   0  0  0  0  0  0  0  0  0  0  0  0
    3.9640    1.3793    0.6034 H   0  0  0  0  0  0  0  0  0  0  0  0
   -0.8873   -2.4021    3.3403 H   0  0  0  0  0  0  0  0  0  0  0  0
   -1.3570   -2.0252    1.6948 H   0  0  0  0  0  0  0  0  0  0  0  0
   -0.2121   -3.3649    2.0137 H   0  0  0  0  0  0  0  0  0  0  0  0
   -0.2501   -3.1311   -0.2462 H   0  0  0  0  0  0  0  0  0  0  0  0
    0.2019   -2.5737   -1.8452 H   0  0  0  0  0  0  0  0  0  0  0  0
    1.4486   -2.8715   -0.6248 H   0  0  0  0  0  0  0  0  0  0  0  0
   -1.9458   -1.8268   -1.7292 H   0  0  0  0  0  0  0  0  0  0  0  0
   -4.1622   -0.8290   -1.7411 H   0  0  0  0  0  0  0  0  0  0  0  0
   -5.6438    0.9084    0.4166 H   0  0  0  0  0  0  0  0  0  0  0  0
   -5.5391    1.2004   -1.3372 H   0  0  0  0  0  0  0  0  0  0  0  0
   -5.0001    2.4456   -0.2115 H   0  0  0  0  0  0  0  0  0  0  0  0
   -2.8435    2.2120    1.0054 H   0  0  0  0  0  0  0  0  0  0  0  0
   -0.6104    1.2303    1.0362 H   0  0  0  0  0  0  0  0  0  0  0  0
  1  2  1  0
  2  3  2  0
  2  4  1  0
  4  5  1  0
  5  6  2  0
  6  7  1  0
  7  8  1  0
  8  9  1  0
  8 10  2  0
  7 11  1  0
 11 12  1  0
 11 13  1  0
 13 14  2  0
 14 15  1  0
 15 16  2  0
 16 17  1  0
 16 18  1  0
 18 19  2  0
 11 20  1  0
 20  5  1  0
 19 13  1  0
  1 21  1  0
  1 22  1  0
  1 23  1  0
  4 24  1  0
  9 25  1  0
  9 26  1  0
  9 27  1  0
 12 28  1  0
 12 29  1  0
 12 30  1  0
 14 31  1  0
 15 32  1  0
 17 33  1  0
 17 34  1  0
 17 35  1  0
 18 36  1  0
 19 37  1  0
M  END
$$$$
