
     RDKit          3D

 47 49  0  0  0  0  0  0  0  0999 V2000
    4.5683   -3.1472   -2.8790 C   0  0  0  0  0  0  0  0  0  0  0  0
    4.0384   -2.4838   -1.6202 C   0  0  0  0  0  0  0  0  0  0  0  0
    4.1302   -0.9626   -1.6991 C   0  0  0  0  0  0  0  0  0  0  0  0
    3.6543   -0.3811   -0.4868 O   0  0  0  0  0  0  0  0  0  0  0  0
    2.3731    0.1071   -0.4491 C   0  0  0  0  0  0  0  0  0  0  0  0
    1.3563   -0.2800   -1.3246 C   0  0  0  0  0  0  0  0  0  0  0  0
    0.0673    0.2498   -1.2007 C   0  0  0  0  0  0  0  0  0  0  0  0
   -0.2318    1.1858   -0.2030 C   0  0  0  0  0  0  0  0  0  0  0  0
   -1.6291    1.7805   -0.0150 C   0  0  0  0  0  0  0  0  0  0  0  0
   -2.2966    2.2013   -1.3330 C   0  0  0  0  0  0  0  0  0  0  0  0
   -3.0820    1.0919   -1.9937 C   0  0  0  0  0  0  0  0  0  0  0  0
   -3.2795    1.0512   -3.2052 O   0  0  0  0  0  0  0  0  0  0  0  0
   -3.6490    0.1633   -1.1596 N   0  0  0  0  0  0  0  0  0  0  0  0
   -3.4495    0.0821    0.1973 C   0  0  0  0  0  0  0  0  0  0  0  0
   -2.5157    0.8529    0.7807 C   0  0  0  0  0  0  0  0  0  0  0  0
   -2.3740    0.8324    2.2680 C   0  0  0  0  0  0  0  0  0  0  0  0
   -1.6333    1.6343    2.8352 O   0  0  0  0  0  0  0  0  0  0  0  0
   -3.2324   -0.1251    3.0669 C   0  0  0  0  0  0  0  0  0  0  0  0
   -3.6252   -1.3442    2.2503 C   0  0  0  0  0  0  0  0  0  0  0  0
   -4.2801   -0.9328    0.9367 C   0  0  0  0  0  0  0  0  0  0  0  0
    0.7931    1.5544    0.6883 C   0  0  0  0  0  0  0  0  0  0  0  0
    2.0828    1.0168    0.5829 C   0  0  0  0  0  0  0  0  0  0  0  0
    3.1218    1.3339    1.4234 O   0  0  0  0  0  0  0  0  0  0  0  0
    2.7991    2.0289    2.6205 C   0  0  0  0  0  0  0  0  0  0  0  0
    3.9919   -2.8390   -3.7570 H   0  0  0  0  0  0  0  0  0  0  0  0
    5.6180   -2.8875   -3.0481 H   0  0  0  0  0  0  0  0  0  0  0  0
    4.4976   -4.2360   -2.7914 H   0  0  0  0  0  0  0  0  0  0  0  0
    3.0021   -2.7952   -1.4487 H   0  0  0  0  0  0  0  0  0  0  0  0
    4.6029   -2.8371   -0.7487 H   0  0  0  0  0  0  0  0  0  0  0  0
    5.1851   -0.6757   -1.7856 H   0  0  0  0  0  0  0  0  0  0  0  0
    3.6364   -0.5541   -2.5885 H   0  0  0  0  0  0  0  0  0  0  0  0
    1.5280   -1.0108   -2.1076 H   0  0  0  0  0  0  0  0  0  0  0  0
   -0.6895   -0.0944   -1.9003 H   0  0  0  0  0  0  0  0  0  0  0  0
   -1.5084    2.7195    0.5440 H   0  0  0  0  0  0  0  0  0  0  0  0
   -1.5586    2.5889   -2.0449 H   0  0  0  0  0  0  0  0  0  0  0  0
   -3.0169    3.0065   -1.1363 H   0  0  0  0  0  0  0  0  0  0  0  0
   -4.2631   -0.4989   -1.6233 H   0  0  0  0  0  0  0  0  0  0  0  0
   -4.1214    0.4177    3.4069 H   0  0  0  0  0  0  0  0  0  0  0  0
   -2.6655   -0.4479    3.9467 H   0  0  0  0  0  0  0  0  0  0  0  0
   -4.3083   -1.9784    2.8263 H   0  0  0  0  0  0  0  0  0  0  0  0
   -2.7314   -1.9456    2.0386 H   0  0  0  0  0  0  0  0  0  0  0  0
   -5.2746   -0.5111    1.1260 H   0  0  0  0  0  0  0  0  0  0  0  0
   -4.4198   -1.8315    0.3238 H   0  0  0  0  0  0  0  0  0  0  0  0
    0.5583    2.2689    1.4731 H   0  0  0  0  0  0  0  0  0  0  0  0
    3.7051    2.0782    3.2322 H   0  0  0  0  0  0  0  0  0  0  0  0
    2.4890    3.0563    2.4044 H   0  0  0  0  0  0  0  0  0  0  0  0
    2.0366    1.4973    3.1995 H   0  0  0  0  0  0  0  0  0  0  0  0
  1  2  1  0
  2  3  1  0
  3  4  1  0
  4  5  1  0
  5  6  2  0
  6  7  1  0
  7  8  2  0
  8  9  1  0
  9 10  1  0
 10 11  1  0
 11 12  2  0
 11 13  1  0
 13 14  1  0
 14 15  2  0
 15 16  1  0
 16 17  2  0
 16 18  1  0
 18 19  1  0
 19 20  1  0
  8 21  1  0
 21 22  2  0
 22 23  1  0
 23 24  1  0
 22  5  1  0
 15  9  1  0
 20 14  1  0
  1 25  1  0
  1 26  1  0
  1 27  1  0
  2 28  1  0
  2 29  1  0
  3 30  1  0
  3 31  1  0
  6 32  1  0
  7 33  1  0
  9 34  1  0
 10 35  1  0
 10 36  1  0
 13 37  1  0
 18 38  1  0
 18 39  1  0
 19 40  1  0
 19 41  1  0
 20 42  1  0
 20 43  1  0
 21 44  1  0
 24 45  1  0
 24 46  1  0
 24 47  1  0
M  END
$$$$
