
     RDKit          3D

 27 29  0  0  0  0  0  0  0  0999 V2000
    4.9810    0.7891   -0.6242 C   0  0  0  0  0  0  0  0  0  0  0  0
    4.3674   -0.4488   -0.2882 O   0  0  0  0  0  0  0  0  0  0  0  0
    3.0047   -0.4550   -0.1807 C   0  0  0  0  0  0  0  0  0  0  0  0
    2.1599    0.6377   -0.3694 C   0  0  0  0  0  0  0  0  0  0  0  0
    0.7713    0.4966   -0.2285 C   0  0  0  0  0  0  0  0  0  0  0  0
    0.2133   -0.7433    0.1036 C   0  0  0  0  0  0  0  0  0  0  0  0
   -1.1907   -0.9189    0.2537 N   0  0  0  0  0  0  0  0  0  0  0  0
   -1.7116   -2.1435    0.5794 N   0  0  0  0  0  0  0  0  0  0  0  0
   -3.0348   -2.0495    0.6605 N   0  0  0  0  0  0  0  0  0  0  0  0
   -3.3611   -0.7649    0.3868 C   0  0  0  0  0  0  0  0  0  0  0  0
   -4.6539   -0.1332    0.3403 C   0  0  0  0  0  0  0  0  0  0  0  0
   -5.7280   -0.6842    0.5522 O   0  0  0  0  0  0  0  0  0  0  0  0
   -4.5688    1.2125    0.0203 N   0  0  0  0  0  0  0  0  0  0  0  0
   -3.3758    1.8647   -0.2244 C   0  0  0  0  0  0  0  0  0  0  0  0
   -2.1997    1.3152   -0.1880 N   0  0  0  0  0  0  0  0  0  0  0  0
   -2.2373   -0.0120    0.1240 C   0  0  0  0  0  0  0  0  0  0  0  0
    1.0670   -1.8406    0.2927 C   0  0  0  0  0  0  0  0  0  0  0  0
    2.4501   -1.6916    0.1504 C   0  0  0  0  0  0  0  0  0  0  0  0
    6.0620    0.6248   -0.6700 H   0  0  0  0  0  0  0  0  0  0  0  0
    4.7915    1.5452    0.1449 H   0  0  0  0  0  0  0  0  0  0  0  0
    4.6550    1.1366   -1.6101 H   0  0  0  0  0  0  0  0  0  0  0  0
    2.5455    1.6186   -0.6278 H   0  0  0  0  0  0  0  0  0  0  0  0
    0.1613    1.3802   -0.3868 H   0  0  0  0  0  0  0  0  0  0  0  0
   -5.4478    1.7065   -0.0263 H   0  0  0  0  0  0  0  0  0  0  0  0
   -3.5007    2.9331   -0.4635 H   0  0  0  0  0  0  0  0  0  0  0  0
    0.6797   -2.8246    0.5520 H   0  0  0  0  0  0  0  0  0  0  0  0
    3.1003   -2.5507    0.2999 H   0  0  0  0  0  0  0  0  0  0  0  0
  1  2  1  0
  2  3  1  0
  3  4  2  0
  4  5  1  0
  5  6  2  0
  6  7  1  0
  7  8  1  0
  8  9  2  0
  9 10  1  0
 10 11  1  0
 11 12  2  0
 11 13  1  0
 13 14  1  0
 14 15  2  0
 15 16  1  0
  6 17  1  0
 17 18  2  0
 18  3  1  0
 16  7  1  0
 16 10  2  0
  1 19  1  0
  1 20  1  0
  1 21  1  0
  4 22  1  0
  5 23  1  0
 13 24  1  0
 14 25  1  0
 17 26  1  0
 18 27  1  0
M  END
$$$$
