
     RDKit          3D

 53 55  0  0  0  0  0  0  0  0999 V2000
    6.2597    0.8543    2.0953 C   0  0  0  0  0  0  0  0  0  0  0  0
    5.7877    1.4409    0.7787 C   0  0  0  0  0  0  0  0  0  0  0  0
    4.5371    0.7496    0.2219 C   0  0  0  0  0  0  0  0  0  0  0  0
    4.7444   -0.7437   -0.0497 C   0  0  0  0  0  0  0  0  0  0  0  0
    3.6307   -1.3607   -0.7957 N   0  0  0  0  0  0  0  0  0  0  0  0
    4.0484   -2.6779   -1.2777 C   0  0  0  0  0  0  0  0  0  0  0  0
    2.4095   -1.4402    0.0350 C   0  0  0  0  0  0  0  0  0  0  0  0
    1.1747   -2.0378   -0.6720 C   0  0  0  0  0  0  0  0  0  0  0  0
   -0.0009   -2.0482    0.1874 N   0  0  0  0  0  0  0  0  0  0  0  0
   -0.7841   -0.9196    0.3555 C   0  0  0  0  0  0  0  0  0  0  0  0
   -0.5890    0.1125   -0.2771 O   0  0  0  0  0  0  0  0  0  0  0  0
   -1.9308   -1.1173    1.3222 C   0  0  0  0  0  0  0  0  0  0  0  0
   -2.4410    0.1343    1.8484 N   0  0  0  0  0  0  0  0  0  0  0  0
   -2.0514    0.4753    3.1070 N   0  0  0  0  0  0  0  0  0  0  0  0
   -2.7494    1.5814    3.3802 C   0  0  0  0  0  0  0  0  0  0  0  0
   -3.6049    1.9290    2.3296 C   0  0  0  0  0  0  0  0  0  0  0  0
   -4.5622    2.9996    2.2031 C   0  0  0  0  0  0  0  0  0  0  0  0
   -4.7508    3.8405    3.0762 O   0  0  0  0  0  0  0  0  0  0  0  0
   -5.2951    3.0094    1.0006 O   0  0  0  0  0  0  0  0  0  0  0  0
   -5.0664    2.0681   -0.0468 C   0  0  0  0  0  0  0  0  0  0  0  0
   -5.8388    2.2379   -1.1944 C   0  0  0  0  0  0  0  0  0  0  0  0
   -5.6451    1.3760   -2.2721 C   0  0  0  0  0  0  0  0  0  0  0  0
   -4.6860    0.3558   -2.1980 C   0  0  0  0  0  0  0  0  0  0  0  0
   -4.4440   -0.5367   -3.3848 C   0  0  0  0  0  0  0  0  0  0  0  0
   -3.9084    0.2105   -1.0323 C   0  0  0  0  0  0  0  0  0  0  0  0
   -4.1021    1.0475    0.0675 C   0  0  0  0  0  0  0  0  0  0  0  0
   -3.3831    0.9947    1.3332 C   0  0  0  0  0  0  0  0  0  0  0  0
    6.5930   -0.1802    1.9769 H   0  0  0  0  0  0  0  0  0  0  0  0
    5.4635    0.8663    2.8442 H   0  0  0  0  0  0  0  0  0  0  0  0
    7.1098    1.4245    2.4855 H   0  0  0  0  0  0  0  0  0  0  0  0
    6.5976    1.3840    0.0449 H   0  0  0  0  0  0  0  0  0  0  0  0
    5.5698    2.5032    0.9249 H   0  0  0  0  0  0  0  0  0  0  0  0
    4.2568    1.2491   -0.7084 H   0  0  0  0  0  0  0  0  0  0  0  0
    3.7158    0.8969    0.9266 H   0  0  0  0  0  0  0  0  0  0  0  0
    5.6665   -0.8406   -0.6369 H   0  0  0  0  0  0  0  0  0  0  0  0
    4.9066   -1.2844    0.8851 H   0  0  0  0  0  0  0  0  0  0  0  0
    3.2995   -3.1046   -1.9467 H   0  0  0  0  0  0  0  0  0  0  0  0
    4.9635   -2.5953   -1.8773 H   0  0  0  0  0  0  0  0  0  0  0  0
    4.2307   -3.3804   -0.4600 H   0  0  0  0  0  0  0  0  0  0  0  0
    2.6115   -2.0264    0.9452 H   0  0  0  0  0  0  0  0  0  0  0  0
    2.1277   -0.4336    0.3680 H   0  0  0  0  0  0  0  0  0  0  0  0
    1.3487   -3.0833   -0.9412 H   0  0  0  0  0  0  0  0  0  0  0  0
    0.9470   -1.4766   -1.5834 H   0  0  0  0  0  0  0  0  0  0  0  0
   -0.1051   -2.8279    0.8241 H   0  0  0  0  0  0  0  0  0  0  0  0
   -1.5876   -1.7149    2.1773 H   0  0  0  0  0  0  0  0  0  0  0  0
   -2.7481   -1.6642    0.8473 H   0  0  0  0  0  0  0  0  0  0  0  0
   -2.6173    2.0707    4.3413 H   0  0  0  0  0  0  0  0  0  0  0  0
   -6.5713    3.0360   -1.2534 H   0  0  0  0  0  0  0  0  0  0  0  0
   -6.2362    1.5070   -3.1758 H   0  0  0  0  0  0  0  0  0  0  0  0
   -4.0583   -1.5109   -3.0629 H   0  0  0  0  0  0  0  0  0  0  0  0
   -5.3762   -0.7220   -3.9269 H   0  0  0  0  0  0  0  0  0  0  0  0
   -3.7242   -0.0714   -4.0634 H   0  0  0  0  0  0  0  0  0  0  0  0
   -3.1421   -0.5561   -1.0340 H   0  0  0  0  0  0  0  0  0  0  0  0
  1  2  1  0
  2  3  1  0
  3  4  1  0
  4  5  1  0
  5  6  1  0
  5  7  1  0
  7  8  1  0
  8  9  1  0
  9 10  1  0
 10 11  2  0
 10 12  1  0
 12 13  1  0
 13 14  1  0
 14 15  2  0
 15 16  1  0
 16 17  1  0
 17 18  2  0
 17 19  1  0
 19 20  1  0
 20 21  2  0
 21 22  1  0
 22 23  2  0
 23 24  1  0
 23 25  1  0
 25 26  2  0
 26 27  1  0
 27 13  1  0
 27 16  2  0
 26 20  1  0
  1 28  1  0
  1 29  1  0
  1 30  1  0
  2 31  1  0
  2 32  1  0
  3 33  1  0
  3 34  1  0
  4 35  1  0
  4 36  1  0
  6 37  1  0
  6 38  1  0
  6 39  1  0
  7 40  1  0
  7 41  1  0
  8 42  1  0
  8 43  1  0
  9 44  1  0
 12 45  1  0
 12 46  1  0
 15 47  1  0
 21 48  1  0
 22 49  1  0
 24 50  1  0
 24 51  1  0
 24 52  1  0
 25 53  1  0
M  END
$$$$
