
     RDKit          3D

 61 63  0  0  0  0  0  0  0  0999 V2000
    6.2439    3.4510    0.5811 C   0  0  0  0  0  0  0  0  0  0  0  0
    5.2377    3.1155   -0.5091 C   0  0  0  0  0  0  0  0  0  0  0  0
    5.2737    1.6471   -0.9459 C   0  0  0  0  0  0  0  0  0  0  0  0
    4.8147    0.6814    0.1573 C   0  0  0  0  0  0  0  0  0  0  0  0
    4.7534   -0.7433   -0.2108 N   0  0  0  0  0  0  0  0  0  0  0  0
    6.0605   -1.3313   -0.5537 C   0  0  0  0  0  0  0  0  0  0  0  0
    7.1007   -1.2321    0.5577 C   0  0  0  0  0  0  0  0  0  0  0  0
    3.7711   -1.0611   -1.2640 C   0  0  0  0  0  0  0  0  0  0  0  0
    2.3303   -0.6571   -0.9281 C   0  0  0  0  0  0  0  0  0  0  0  0
    1.3660   -1.1419   -2.0100 C   0  0  0  0  0  0  0  0  0  0  0  0
    0.0032   -0.7414   -1.7278 N   0  0  0  0  0  0  0  0  0  0  0  0
   -0.8195   -1.4804   -0.9051 C   0  0  0  0  0  0  0  0  0  0  0  0
   -0.4633   -2.5541   -0.4280 O   0  0  0  0  0  0  0  0  0  0  0  0
   -2.1212   -0.8822   -0.6448 C   0  0  0  0  0  0  0  0  0  0  0  0
   -2.7742    0.1361   -1.3249 C   0  0  0  0  0  0  0  0  0  0  0  0
   -4.0487    0.3149   -0.7398 C   0  0  0  0  0  0  0  0  0  0  0  0
   -5.0897    1.2759   -1.0656 C   0  0  0  0  0  0  0  0  0  0  0  0
   -4.9202    2.1009   -1.9612 O   0  0  0  0  0  0  0  0  0  0  0  0
   -6.2562    1.2040   -0.2819 N   0  0  0  0  0  0  0  0  0  0  0  0
   -7.3049    2.1733   -0.5514 C   0  0  0  0  0  0  0  0  0  0  0  0
   -6.4694    0.1734    0.7092 C   0  0  0  0  0  0  0  0  0  0  0  0
   -7.6886    0.0818    1.4033 C   0  0  0  0  0  0  0  0  0  0  0  0
   -7.9273   -0.9579    2.3037 C   0  0  0  0  0  0  0  0  0  0  0  0
   -6.9596   -1.9320    2.5110 C   0  0  0  0  0  0  0  0  0  0  0  0
   -5.7377   -1.8552    1.8414 C   0  0  0  0  0  0  0  0  0  0  0  0
   -5.4607   -0.7918    0.9724 C   0  0  0  0  0  0  0  0  0  0  0  0
   -4.1968   -0.6366    0.2496 C   0  0  0  0  0  0  0  0  0  0  0  0
   -2.9687   -1.2516    0.3992 N   0  0  0  0  0  0  0  0  0  0  0  0
   -2.5431   -2.0675    1.5199 C   0  0  0  0  0  0  0  0  0  0  0  0
    6.0003    2.9488    1.5217 H   0  0  0  0  0  0  0  0  0  0  0  0
    6.2435    4.5289    0.7728 H   0  0  0  0  0  0  0  0  0  0  0  0
    7.2566    3.1602    0.2847 H   0  0  0  0  0  0  0  0  0  0  0  0
    4.2292    3.3808   -0.1710 H   0  0  0  0  0  0  0  0  0  0  0  0
    5.4530    3.7415   -1.3835 H   0  0  0  0  0  0  0  0  0  0  0  0
    6.2892    1.3992   -1.2748 H   0  0  0  0  0  0  0  0  0  0  0  0
    4.6209    1.5486   -1.8206 H   0  0  0  0  0  0  0  0  0  0  0  0
    5.4646    0.7869    1.0326 H   0  0  0  0  0  0  0  0  0  0  0  0
    3.8345    1.0007    0.5301 H   0  0  0  0  0  0  0  0  0  0  0  0
    5.9214   -2.4014   -0.7546 H   0  0  0  0  0  0  0  0  0  0  0  0
    6.4653   -0.8927   -1.4736 H   0  0  0  0  0  0  0  0  0  0  0  0
    7.9806   -1.8301    0.2975 H   0  0  0  0  0  0  0  0  0  0  0  0
    6.7055   -1.6139    1.5048 H   0  0  0  0  0  0  0  0  0  0  0  0
    7.4401   -0.2029    0.7083 H   0  0  0  0  0  0  0  0  0  0  0  0
    4.0672   -0.6136   -2.2209 H   0  0  0  0  0  0  0  0  0  0  0  0
    3.7726   -2.1484   -1.4187 H   0  0  0  0  0  0  0  0  0  0  0  0
    2.0413   -1.0761    0.0437 H   0  0  0  0  0  0  0  0  0  0  0  0
    2.2407    0.4323   -0.8473 H   0  0  0  0  0  0  0  0  0  0  0  0
    1.4077   -2.2329   -2.1018 H   0  0  0  0  0  0  0  0  0  0  0  0
    1.6303   -0.7082   -2.9802 H   0  0  0  0  0  0  0  0  0  0  0  0
   -0.2824    0.1923   -1.9837 H   0  0  0  0  0  0  0  0  0  0  0  0
   -2.4006    0.6904   -2.1762 H   0  0  0  0  0  0  0  0  0  0  0  0
   -8.1879    1.6547   -0.9381 H   0  0  0  0  0  0  0  0  0  0  0  0
   -6.9999    2.9143   -1.2955 H   0  0  0  0  0  0  0  0  0  0  0  0
   -7.5495    2.7129    0.3690 H   0  0  0  0  0  0  0  0  0  0  0  0
   -8.4877    0.8004    1.2515 H   0  0  0  0  0  0  0  0  0  0  0  0
   -8.8796   -1.0173    2.8250 H   0  0  0  0  0  0  0  0  0  0  0  0
   -7.1567   -2.7597    3.1881 H   0  0  0  0  0  0  0  0  0  0  0  0
   -5.0294   -2.6595    2.0011 H   0  0  0  0  0  0  0  0  0  0  0  0
   -2.7622   -3.1122    1.2894 H   0  0  0  0  0  0  0  0  0  0  0  0
   -1.4753   -1.9228    1.6996 H   0  0  0  0  0  0  0  0  0  0  0  0
   -3.0587   -1.7388    2.4246 H   0  0  0  0  0  0  0  0  0  0  0  0
  1  2  1  0
  2  3  1  0
  3  4  1  0
  4  5  1  0
  5  6  1  0
  6  7  1  0
  5  8  1  0
  8  9  1  0
  9 10  1  0
 10 11  1  0
 11 12  1  0
 12 13  2  0
 12 14  1  0
 14 15  2  0
 15 16  1  0
 16 17  1  0
 17 18  2  0
 17 19  1  0
 19 20  1  0
 19 21  1  0
 21 22  2  0
 22 23  1  0
 23 24  2  0
 24 25  1  0
 25 26  2  0
 26 27  1  0
 27 28  1  0
 28 29  1  0
 28 14  1  0
 27 16  2  0
 26 21  1  0
  1 30  1  0
  1 31  1  0
  1 32  1  0
  2 33  1  0
  2 34  1  0
  3 35  1  0
  3 36  1  0
  4 37  1  0
  4 38  1  0
  6 39  1  0
  6 40  1  0
  7 41  1  0
  7 42  1  0
  7 43  1  0
  8 44  1  0
  8 45  1  0
  9 46  1  0
  9 47  1  0
 10 48  1  0
 10 49  1  0
 11 50  1  0
 15 51  1  0
 20 52  1  0
 20 53  1  0
 20 54  1  0
 22 55  1  0
 23 56  1  0
 24 57  1  0
 25 58  1  0
 29 59  1  0
 29 60  1  0
 29 61  1  0
M  END
$$$$
