
     RDKit          3D

 53 55  0  0  0  0  0  0  0  0999 V2000
   -4.3490   -3.6230    0.7294 C   0  0  0  0  0  0  0  0  0  0  0  0
   -5.0842   -2.3211    0.4527 C   0  0  0  0  0  0  0  0  0  0  0  0
   -4.1669   -1.1833    0.4032 N   0  0  0  0  0  0  0  0  0  0  0  0
   -3.9565   -0.4477    1.6541 C   0  0  0  0  0  0  0  0  0  0  0  0
   -4.9836    0.6605    1.8310 C   0  0  0  0  0  0  0  0  0  0  0  0
   -3.5619   -0.8891   -0.8130 C   0  0  0  0  0  0  0  0  0  0  0  0
   -3.8170   -1.4930   -1.8562 O   0  0  0  0  0  0  0  0  0  0  0  0
   -2.6227    0.2495   -0.8688 C   0  0  0  0  0  0  0  0  0  0  0  0
   -3.0059    1.3492   -1.5351 C   0  0  0  0  0  0  0  0  0  0  0  0
   -2.2374    2.4739   -1.6980 N   0  0  0  0  0  0  0  0  0  0  0  0
   -0.9038    2.4911   -1.2646 C   0  0  0  0  0  0  0  0  0  0  0  0
   -0.1011    3.6184   -1.4651 C   0  0  0  0  0  0  0  0  0  0  0  0
    1.2121    3.6444   -0.9862 C   0  0  0  0  0  0  0  0  0  0  0  0
    1.7218    2.5410   -0.2932 C   0  0  0  0  0  0  0  0  0  0  0  0
    3.3800    2.5873    0.3427 S   0  0  0  0  0  6  0  0  0  0  0  0
    3.7782    3.9778    0.4120 O   0  0  0  0  0  0  0  0  0  0  0  0
    3.4527    1.7369    1.5099 O   0  0  0  0  0  0  0  0  0  0  0  0
    4.2750    1.9141   -0.9216 N   0  0  0  0  0  0  0  0  0  0  0  0
    4.2695    0.5005   -1.0682 C   0  0  0  0  0  0  0  0  0  0  0  0
    3.4599   -0.0721   -2.0469 C   0  0  0  0  0  0  0  0  0  0  0  0
    3.4284   -1.4580   -2.1936 C   0  0  0  0  0  0  0  0  0  0  0  0
    4.2040   -2.2645   -1.3587 C   0  0  0  0  0  0  0  0  0  0  0  0
    5.0104   -1.6918   -0.3697 C   0  0  0  0  0  0  0  0  0  0  0  0
    5.9831   -2.7551    0.6805 S   0  0  0  0  0  0  0  0  0  0  0  0
    5.3325   -2.2635    2.3020 C   0  0  0  0  0  0  0  0  0  0  0  0
    5.0528   -0.3010   -0.2378 C   0  0  0  0  0  0  0  0  0  0  0  0
    0.9244    1.4208   -0.0487 C   0  0  0  0  0  0  0  0  0  0  0  0
   -0.3841    1.4003   -0.5402 C   0  0  0  0  0  0  0  0  0  0  0  0
   -1.2478    0.2097   -0.3115 C   0  0  0  0  0  0  0  0  0  0  0  0
   -0.8234   -0.7554    0.3149 O   0  0  0  0  0  0  0  0  0  0  0  0
   -3.8167   -3.5789    1.6851 H   0  0  0  0  0  0  0  0  0  0  0  0
   -3.6129   -3.8341   -0.0528 H   0  0  0  0  0  0  0  0  0  0  0  0
   -5.0553   -4.4578    0.7692 H   0  0  0  0  0  0  0  0  0  0  0  0
   -5.6174   -2.4023   -0.5004 H   0  0  0  0  0  0  0  0  0  0  0  0
   -5.8385   -2.1398    1.2256 H   0  0  0  0  0  0  0  0  0  0  0  0
   -2.9573   -0.0101    1.6816 H   0  0  0  0  0  0  0  0  0  0  0  0
   -4.0135   -1.1553    2.4896 H   0  0  0  0  0  0  0  0  0  0  0  0
   -4.8117    1.1899    2.7731 H   0  0  0  0  0  0  0  0  0  0  0  0
   -6.0016    0.2579    1.8465 H   0  0  0  0  0  0  0  0  0  0  0  0
   -4.9262    1.3876    1.0145 H   0  0  0  0  0  0  0  0  0  0  0  0
   -3.9847    1.4124   -2.0055 H   0  0  0  0  0  0  0  0  0  0  0  0
   -2.5351    3.1587   -2.3847 H   0  0  0  0  0  0  0  0  0  0  0  0
   -0.4902    4.4868   -1.9911 H   0  0  0  0  0  0  0  0  0  0  0  0
    1.8261    4.5281   -1.1512 H   0  0  0  0  0  0  0  0  0  0  0  0
    5.1669    2.3937   -1.0411 H   0  0  0  0  0  0  0  0  0  0  0  0
    2.8562    0.5514   -2.7001 H   0  0  0  0  0  0  0  0  0  0  0  0
    2.7983   -1.9129   -2.9537 H   0  0  0  0  0  0  0  0  0  0  0  0
    4.1661   -3.3450   -1.4799 H   0  0  0  0  0  0  0  0  0  0  0  0
    5.5972   -1.2294    2.5361 H   0  0  0  0  0  0  0  0  0  0  0  0
    4.2453   -2.3767    2.3296 H   0  0  0  0  0  0  0  0  0  0  0  0
    5.7690   -2.9100    3.0693 H   0  0  0  0  0  0  0  0  0  0  0  0
    5.6830    0.1579    0.5187 H   0  0  0  0  0  0  0  0  0  0  0  0
    1.3133    0.5710    0.5097 H   0  0  0  0  0  0  0  0  0  0  0  0
  1  2  1  0
  2  3  1  0
  3  4  1  0
  4  5  1  0
  3  6  1  0
  6  7  2  0
  6  8  1  0
  8  9  2  0
  9 10  1  0
 10 11  1  0
 11 12  2  0
 12 13  1  0
 13 14  2  0
 14 15  1  0
 15 16  2  0
 15 17  2  0
 15 18  1  0
 18 19  1  0
 19 20  2  0
 20 21  1  0
 21 22  2  0
 22 23  1  0
 23 24  1  0
 24 25  1  0
 23 26  2  0
 14 27  1  0
 27 28  2  0
 28 29  1  0
 29 30  2  0
 29  8  1  0
 28 11  1  0
 26 19  1  0
  1 31  1  0
  1 32  1  0
  1 33  1  0
  2 34  1  0
  2 35  1  0
  4 36  1  0
  4 37  1  0
  5 38  1  0
  5 39  1  0
  5 40  1  0
  9 41  1  0
 10 42  1  0
 12 43  1  0
 13 44  1  0
 18 45  1  0
 20 46  1  0
 21 47  1  0
 22 48  1  0
 25 49  1  0
 25 50  1  0
 25 51  1  0
 26 52  1  0
 27 53  1  0
M  END
$$$$
