
     RDKit          3D

 55 57  0  0  0  0  0  0  0  0999 V2000
   -5.3334    1.2763    3.4277 C   0  0  0  0  0  0  0  0  0  0  0  0
   -5.9909    0.6333    2.3434 O   0  0  0  0  0  0  0  0  0  0  0  0
   -5.3418    0.6146    1.1363 C   0  0  0  0  0  0  0  0  0  0  0  0
   -4.0219    1.0171    0.9354 C   0  0  0  0  0  0  0  0  0  0  0  0
   -3.4492    0.9508   -0.3433 C   0  0  0  0  0  0  0  0  0  0  0  0
   -2.0353    1.3921   -0.4970 C   0  0  0  0  0  0  0  0  0  0  0  0
   -1.5566    2.2095    0.2802 O   0  0  0  0  0  0  0  0  0  0  0  0
   -1.3159    0.8056   -1.5161 N   0  0  0  0  0  0  0  0  0  0  0  0
    0.1158    1.0290   -1.6247 C   0  0  0  0  0  0  0  0  0  0  0  0
    0.8394   -0.0126   -0.8560 C   0  0  0  0  0  0  0  0  0  0  0  0
    0.8093   -1.3228   -0.9929 N   0  0  0  0  0  0  0  0  0  0  0  0
    1.6674   -1.8256   -0.0351 N   0  0  0  0  0  0  0  0  0  0  0  0
    2.1634   -0.7901    0.6111 C   0  0  0  0  0  0  0  0  0  0  0  0
    3.3163   -0.9147    1.9033 S   0  0  0  0  0  0  0  0  0  0  0  0
    4.2158    0.6448    1.6879 C   0  0  0  0  0  0  0  0  0  0  0  0
    4.9401    0.6785    0.3492 C   0  0  0  0  0  0  0  0  0  0  0  0
    4.4607    1.3216   -0.5894 O   0  0  0  0  0  0  0  0  0  0  0  0
    6.1280   -0.0224    0.2124 N   0  0  0  0  0  0  0  0  0  0  0  0
    6.7808   -0.0622   -1.1000 C   0  0  0  0  0  0  0  0  0  0  0  0
    7.5487   -1.3725   -1.2955 C   0  0  0  0  0  0  0  0  0  0  0  0
    8.5533   -1.6062   -0.2983 O   0  0  0  0  0  0  0  0  0  0  0  0
    8.2833   -0.9814    0.9624 C   0  0  0  0  0  0  0  0  0  0  0  0
    6.7881   -0.8150    1.2571 C   0  0  0  0  0  0  0  0  0  0  0  0
    1.6661    0.3985    0.1511 O   0  0  0  0  0  0  0  0  0  0  0  0
   -4.2038    0.5067   -1.4389 C   0  0  0  0  0  0  0  0  0  0  0  0
   -5.5263    0.0991   -1.2554 C   0  0  0  0  0  0  0  0  0  0  0  0
   -6.3494   -0.3579   -2.2520 O   0  0  0  0  0  0  0  0  0  0  0  0
   -5.9030   -0.2144   -3.5933 C   0  0  0  0  0  0  0  0  0  0  0  0
   -6.0771    0.1343    0.0387 C   0  0  0  0  0  0  0  0  0  0  0  0
   -7.3953   -0.2265    0.2170 O   0  0  0  0  0  0  0  0  0  0  0  0
   -7.4787   -1.6141    0.5346 C   0  0  0  0  0  0  0  0  0  0  0  0
   -6.0201    1.2803    4.2796 H   0  0  0  0  0  0  0  0  0  0  0  0
   -5.0947    2.3180    3.1878 H   0  0  0  0  0  0  0  0  0  0  0  0
   -4.4370    0.7227    3.7260 H   0  0  0  0  0  0  0  0  0  0  0  0
   -3.4100    1.3819    1.7553 H   0  0  0  0  0  0  0  0  0  0  0  0
   -1.6619   -0.0584   -1.9136 H   0  0  0  0  0  0  0  0  0  0  0  0
    0.3755    0.9515   -2.6850 H   0  0  0  0  0  0  0  0  0  0  0  0
    0.3719    2.0346   -1.2767 H   0  0  0  0  0  0  0  0  0  0  0  0
    3.5188    1.4892    1.7337 H   0  0  0  0  0  0  0  0  0  0  0  0
    4.9184    0.7910    2.5112 H   0  0  0  0  0  0  0  0  0  0  0  0
    6.0446    0.0661   -1.8998 H   0  0  0  0  0  0  0  0  0  0  0  0
    7.4713    0.7886   -1.1297 H   0  0  0  0  0  0  0  0  0  0  0  0
    6.8582   -2.2236   -1.2725 H   0  0  0  0  0  0  0  0  0  0  0  0
    8.0454   -1.3792   -2.2709 H   0  0  0  0  0  0  0  0  0  0  0  0
    8.7807   -0.0046    0.9608 H   0  0  0  0  0  0  0  0  0  0  0  0
    8.7570   -1.5888    1.7400 H   0  0  0  0  0  0  0  0  0  0  0  0
    6.6522   -0.3494    2.2354 H   0  0  0  0  0  0  0  0  0  0  0  0
    6.2996   -1.7957    1.2644 H   0  0  0  0  0  0  0  0  0  0  0  0
   -3.7565    0.5064   -2.4258 H   0  0  0  0  0  0  0  0  0  0  0  0
   -5.0378   -0.8563   -3.7887 H   0  0  0  0  0  0  0  0  0  0  0  0
   -6.7136   -0.5399   -4.2522 H   0  0  0  0  0  0  0  0  0  0  0  0
   -5.6811    0.8317   -3.8293 H   0  0  0  0  0  0  0  0  0  0  0  0
   -8.5348   -1.8620    0.6749 H   0  0  0  0  0  0  0  0  0  0  0  0
   -7.0924   -2.2336   -0.2815 H   0  0  0  0  0  0  0  0  0  0  0  0
   -6.9515   -1.8441    1.4662 H   0  0  0  0  0  0  0  0  0  0  0  0
  1  2  1  0
  2  3  1  0
  3  4  2  0
  4  5  1  0
  5  6  1  0
  6  7  2  0
  6  8  1  0
  8  9  1  0
  9 10  1  0
 10 11  2  0
 11 12  1  0
 12 13  2  0
 13 14  1  0
 14 15  1  0
 15 16  1  0
 16 17  2  0
 16 18  1  0
 18 19  1  0
 19 20  1  0
 20 21  1  0
 21 22  1  0
 22 23  1  0
 13 24  1  0
  5 25  2  0
 25 26  1  0
 26 27  1  0
 27 28  1  0
 26 29  2  0
 29 30  1  0
 30 31  1  0
 29  3  1  0
 24 10  1  0
 23 18  1  0
  1 32  1  0
  1 33  1  0
  1 34  1  0
  4 35  1  0
  8 36  1  0
  9 37  1  0
  9 38  1  0
 15 39  1  0
 15 40  1  0
 19 41  1  0
 19 42  1  0
 20 43  1  0
 20 44  1  0
 22 45  1  0
 22 46  1  0
 23 47  1  0
 23 48  1  0
 25 49  1  0
 28 50  1  0
 28 51  1  0
 28 52  1  0
 31 53  1  0
 31 54  1  0
 31 55  1  0
M  END
$$$$
