
     RDKit          3D

 40 41  0  0  0  0  0  0  0  0999 V2000
   -2.2506   -1.1976   -1.8570 C   0  0  0  0  0  0  0  0  0  0  0  0
   -3.0443   -0.4003   -0.8562 C   0  0  0  0  0  0  0  0  0  0  0  0
   -4.1504    0.3347   -1.3094 C   0  0  0  0  0  0  0  0  0  0  0  0
   -4.9209    1.0824   -0.4224 C   0  0  0  0  0  0  0  0  0  0  0  0
   -4.5988    1.1060    0.9315 C   0  0  0  0  0  0  0  0  0  0  0  0
   -3.4933    0.3913    1.4123 C   0  0  0  0  0  0  0  0  0  0  0  0
   -3.1673    0.4358    2.8813 C   0  0  0  0  0  0  0  0  0  0  0  0
   -2.6930   -0.3453    0.5110 C   0  0  0  0  0  0  0  0  0  0  0  0
   -1.5820   -1.0643    1.0208 N   0  0  0  0  0  0  0  0  0  0  0  0
   -0.2920   -0.7952    0.6356 C   0  0  0  0  0  0  0  0  0  0  0  0
    0.5476   -1.7727    0.4694 N   0  0  0  0  0  0  0  0  0  0  0  0
    1.8650   -1.5272    0.0735 N   0  0  0  0  0  0  0  0  0  0  0  0
    2.2724   -0.3073   -0.1158 C   0  0  0  0  0  0  0  0  0  0  0  0
    3.7240   -0.0285   -0.5508 C   0  0  0  0  0  0  0  0  0  0  0  0
    4.5002   -1.3549   -0.7000 C   0  0  0  0  0  0  0  0  0  0  0  0
    3.7417    0.6798   -1.9133 C   0  0  0  0  0  0  0  0  0  0  0  0
    4.4420    0.8170    0.5113 C   0  0  0  0  0  0  0  0  0  0  0  0
    1.3235    0.8633    0.0856 C   0  0  0  0  0  0  0  0  0  0  0  0
    1.6660    2.0239   -0.0709 O   0  0  0  0  0  0  0  0  0  0  0  0
    0.0658    0.5045    0.4523 N   0  0  0  0  0  0  0  0  0  0  0  0
   -1.3241   -0.6732   -2.1093 H   0  0  0  0  0  0  0  0  0  0  0  0
   -2.8170   -1.3489   -2.7824 H   0  0  0  0  0  0  0  0  0  0  0  0
   -2.0153   -2.1925   -1.4658 H   0  0  0  0  0  0  0  0  0  0  0  0
   -4.4247    0.3226   -2.3626 H   0  0  0  0  0  0  0  0  0  0  0  0
   -5.7791    1.6419   -0.7867 H   0  0  0  0  0  0  0  0  0  0  0  0
   -5.2186    1.6869    1.6114 H   0  0  0  0  0  0  0  0  0  0  0  0
   -3.9069    1.0196    3.4395 H   0  0  0  0  0  0  0  0  0  0  0  0
   -2.1891    0.9017    3.0382 H   0  0  0  0  0  0  0  0  0  0  0  0
   -3.1626   -0.5753    3.3012 H   0  0  0  0  0  0  0  0  0  0  0  0
   -1.7532   -2.0662    0.9699 H   0  0  0  0  0  0  0  0  0  0  0  0
    5.5365   -1.1770   -1.0098 H   0  0  0  0  0  0  0  0  0  0  0  0
    4.0385   -2.0056   -1.4520 H   0  0  0  0  0  0  0  0  0  0  0  0
    4.5295   -1.9094    0.2453 H   0  0  0  0  0  0  0  0  0  0  0  0
    3.3259    1.6904   -1.8626 H   0  0  0  0  0  0  0  0  0  0  0  0
    4.7641    0.7739   -2.2971 H   0  0  0  0  0  0  0  0  0  0  0  0
    3.1544    0.1230   -2.6525 H   0  0  0  0  0  0  0  0  0  0  0  0
    4.0325    1.8287    0.5847 H   0  0  0  0  0  0  0  0  0  0  0  0
    5.5085    0.9199    0.2804 H   0  0  0  0  0  0  0  0  0  0  0  0
    4.3549    0.3579    1.5028 H   0  0  0  0  0  0  0  0  0  0  0  0
   -0.6101    1.2363    0.6013 H   0  0  0  0  0  0  0  0  0  0  0  0
  1  2  1  0
  2  3  2  0
  3  4  1  0
  4  5  2  0
  5  6  1  0
  6  7  1  0
  6  8  2  0
  8  9  1  0
  9 10  1  0
 10 11  2  0
 11 12  1  0
 12 13  2  0
 13 14  1  0
 14 15  1  0
 14 16  1  0
 14 17  1  0
 13 18  1  0
 18 19  2  0
 18 20  1  0
  8  2  1  0
 20 10  1  0
  1 21  1  0
  1 22  1  0
  1 23  1  0
  3 24  1  0
  4 25  1  0
  5 26  1  0
  7 27  1  0
  7 28  1  0
  7 29  1  0
  9 30  1  0
 15 31  1  0
 15 32  1  0
 15 33  1  0
 16 34  1  0
 16 35  1  0
 16 36  1  0
 17 37  1  0
 17 38  1  0
 17 39  1  0
 20 40  1  0
M  END
$$$$
