
     RDKit          3D

 55 57  0  0  0  0  0  0  0  0999 V2000
    1.7371   -4.5397    2.1982 C   0  0  0  0  0  0  0  0  0  0  0  0
    1.5015   -3.3436    1.2904 C   0  0  0  0  0  0  0  0  0  0  0  0
    1.3940   -2.0441    2.0936 C   0  0  0  0  0  0  0  0  0  0  0  0
    1.1257   -0.8831    1.2318 N   0  0  0  0  0  0  0  0  0  0  0  0
   -0.2159   -0.5996    0.9351 C   0  0  0  0  0  0  0  0  0  0  0  0
   -1.1268   -1.3646    1.2645 O   0  0  0  0  0  0  0  0  0  0  0  0
   -0.5184    0.7606    0.2708 C   0  0  0  0  0  0  0  0  0  0  0  0
   -1.8291    1.2654    0.5093 O   0  0  0  0  0  0  0  0  0  0  0  0
   -2.8870    0.8217   -0.2555 C   0  0  0  0  0  0  0  0  0  0  0  0
   -2.8443   -0.1336   -1.1936 C   0  0  0  0  0  0  0  0  0  0  0  0
   -4.0319   -0.5338   -1.9781 C   0  0  0  0  0  0  0  0  0  0  0  0
   -3.8881   -1.4030   -2.8370 O   0  0  0  0  0  0  0  0  0  0  0  0
   -5.2284    0.1080   -1.7018 N   0  0  0  0  0  0  0  0  0  0  0  0
   -6.4068   -0.2821   -2.4587 C   0  0  0  0  0  0  0  0  0  0  0  0
   -5.3232    1.1249   -0.7035 C   0  0  0  0  0  0  0  0  0  0  0  0
   -6.5393    1.7733   -0.4261 C   0  0  0  0  0  0  0  0  0  0  0  0
   -6.6180    2.7665    0.5526 C   0  0  0  0  0  0  0  0  0  0  0  0
   -5.4839    3.1259    1.2685 C   0  0  0  0  0  0  0  0  0  0  0  0
   -4.2703    2.4920    1.0046 C   0  0  0  0  0  0  0  0  0  0  0  0
   -4.1729    1.4906    0.0211 C   0  0  0  0  0  0  0  0  0  0  0  0
    2.2363   -0.3070    0.5508 C   0  0  0  0  0  0  0  0  0  0  0  0
    2.2332   -0.1548   -0.8383 C   0  0  0  0  0  0  0  0  0  0  0  0
    3.3392    0.3960   -1.4932 C   0  0  0  0  0  0  0  0  0  0  0  0
    4.4685    0.7984   -0.7784 C   0  0  0  0  0  0  0  0  0  0  0  0
    5.4701    1.3163   -1.5478 O   0  0  0  0  0  0  0  0  0  0  0  0
    6.6198    1.8679   -0.9079 C   0  0  0  0  0  0  0  0  0  0  0  0
    7.6787    0.8015   -0.6882 C   0  0  0  0  0  0  0  0  0  0  0  0
    4.4871    0.6267    0.6032 C   0  0  0  0  0  0  0  0  0  0  0  0
    3.3810    0.0714    1.2612 C   0  0  0  0  0  0  0  0  0  0  0  0
    1.8134   -5.4564    1.6052 H   0  0  0  0  0  0  0  0  0  0  0  0
    0.9127   -4.6617    2.9079 H   0  0  0  0  0  0  0  0  0  0  0  0
    2.6659   -4.4240    2.7659 H   0  0  0  0  0  0  0  0  0  0  0  0
    2.3241   -3.2723    0.5692 H   0  0  0  0  0  0  0  0  0  0  0  0
    0.5863   -3.5062    0.7093 H   0  0  0  0  0  0  0  0  0  0  0  0
    2.3050   -1.8836    2.6790 H   0  0  0  0  0  0  0  0  0  0  0  0
    0.5792   -2.1322    2.8232 H   0  0  0  0  0  0  0  0  0  0  0  0
    0.1603    1.5026    0.7060 H   0  0  0  0  0  0  0  0  0  0  0  0
   -0.3196    0.7275   -0.8034 H   0  0  0  0  0  0  0  0  0  0  0  0
   -1.9520   -0.6901   -1.4423 H   0  0  0  0  0  0  0  0  0  0  0  0
   -7.1704   -0.6636   -1.7733 H   0  0  0  0  0  0  0  0  0  0  0  0
   -6.7872    0.5824   -3.0120 H   0  0  0  0  0  0  0  0  0  0  0  0
   -6.1859   -1.0710   -3.1834 H   0  0  0  0  0  0  0  0  0  0  0  0
   -7.4516    1.5240   -0.9589 H   0  0  0  0  0  0  0  0  0  0  0  0
   -7.5673    3.2561    0.7550 H   0  0  0  0  0  0  0  0  0  0  0  0
   -5.5397    3.8958    2.0336 H   0  0  0  0  0  0  0  0  0  0  0  0
   -3.3955    2.7859    1.5806 H   0  0  0  0  0  0  0  0  0  0  0  0
    1.4042   -0.5109   -1.4436 H   0  0  0  0  0  0  0  0  0  0  0  0
    3.3253    0.4993   -2.5762 H   0  0  0  0  0  0  0  0  0  0  0  0
    6.3710    2.4072    0.0126 H   0  0  0  0  0  0  0  0  0  0  0  0
    7.0248    2.6196   -1.5951 H   0  0  0  0  0  0  0  0  0  0  0  0
    7.3236    0.0170   -0.0135 H   0  0  0  0  0  0  0  0  0  0  0  0
    8.5866    1.2402   -0.2644 H   0  0  0  0  0  0  0  0  0  0  0  0
    7.9329    0.3137   -1.6351 H   0  0  0  0  0  0  0  0  0  0  0  0
    5.3447    0.9068    1.2051 H   0  0  0  0  0  0  0  0  0  0  0  0
    3.4212   -0.0241    2.3432 H   0  0  0  0  0  0  0  0  0  0  0  0
  1  2  1  0
  2  3  1  0
  3  4  1  0
  4  5  1  0
  5  6  2  0
  5  7  1  0
  7  8  1  0
  8  9  1  0
  9 10  2  0
 10 11  1  0
 11 12  2  0
 11 13  1  0
 13 14  1  0
 13 15  1  0
 15 16  2  0
 16 17  1  0
 17 18  2  0
 18 19  1  0
 19 20  2  0
  4 21  1  0
 21 22  2  0
 22 23  1  0
 23 24  2  0
 24 25  1  0
 25 26  1  0
 26 27  1  0
 24 28  1  0
 28 29  2  0
 20  9  1  0
 29 21  1  0
 20 15  1  0
  1 30  1  0
  1 31  1  0
  1 32  1  0
  2 33  1  0
  2 34  1  0
  3 35  1  0
  3 36  1  0
  7 37  1  0
  7 38  1  0
 10 39  1  0
 14 40  1  0
 14 41  1  0
 14 42  1  0
 16 43  1  0
 17 44  1  0
 18 45  1  0
 19 46  1  0
 22 47  1  0
 23 48  1  0
 26 49  1  0
 26 50  1  0
 27 51  1  0
 27 52  1  0
 27 53  1  0
 28 54  1  0
 29 55  1  0
M  END
$$$$
