
     RDKit          3D

 46 47  0  0  0  0  0  0  0  0999 V2000
   -2.3272   -2.3703   -2.6443 C   0  0  0  0  0  0  0  0  0  0  0  0
   -1.6295   -1.4327   -1.6712 C   0  0  0  0  0  0  0  0  0  0  0  0
   -1.8029    0.0299   -2.0832 C   0  0  0  0  0  0  0  0  0  0  0  0
   -1.0910    1.0095   -1.1463 C   0  0  0  0  0  0  0  0  0  0  0  0
   -1.6828    1.0973    0.1772 N   0  0  0  0  0  0  0  0  0  0  0  0
   -1.1876    0.5612    1.3481 C   0  0  0  0  0  0  0  0  0  0  0  0
    0.0706   -0.2338    1.4532 C   0  0  0  0  0  0  0  0  0  0  0  0
    1.2717    0.6766    1.7107 C   0  0  0  0  0  0  0  0  0  0  0  0
    2.5310   -0.0449    1.6720 N   0  0  0  0  0  0  0  0  0  0  0  0
    3.0975   -0.4379    0.4782 C   0  0  0  0  0  0  0  0  0  0  0  0
    2.5846   -0.2092   -0.6117 O   0  0  0  0  0  0  0  0  0  0  0  0
    4.4001   -1.1920    0.6623 C   0  0  0  0  0  0  0  0  0  0  0  0
    5.0521   -1.5528   -0.6693 C   0  0  0  0  0  0  0  0  0  0  0  0
    6.3465   -2.3235   -0.4665 C   0  0  0  0  0  0  0  0  0  0  0  0
   -1.9683    0.8595    2.3681 N   0  0  0  0  0  0  0  0  0  0  0  0
   -2.9888    1.6144    1.8521 C   0  0  0  0  0  0  0  0  0  0  0  0
   -4.0877    2.1919    2.5051 C   0  0  0  0  0  0  0  0  0  0  0  0
   -5.0030    2.9393    1.7551 C   0  0  0  0  0  0  0  0  0  0  0  0
   -4.8261    3.1102    0.3813 C   0  0  0  0  0  0  0  0  0  0  0  0
   -3.7361    2.5401   -0.2868 C   0  0  0  0  0  0  0  0  0  0  0  0
   -2.8340    1.7922    0.4818 C   0  0  0  0  0  0  0  0  0  0  0  0
   -2.1838   -3.4099   -2.3339 H   0  0  0  0  0  0  0  0  0  0  0  0
   -1.9262   -2.2585   -3.6569 H   0  0  0  0  0  0  0  0  0  0  0  0
   -3.4038   -2.1713   -2.6761 H   0  0  0  0  0  0  0  0  0  0  0  0
   -0.5633   -1.6848   -1.6342 H   0  0  0  0  0  0  0  0  0  0  0  0
   -2.0407   -1.5968   -0.6689 H   0  0  0  0  0  0  0  0  0  0  0  0
   -2.8713    0.2689   -2.1412 H   0  0  0  0  0  0  0  0  0  0  0  0
   -1.3942    0.1654   -3.0920 H   0  0  0  0  0  0  0  0  0  0  0  0
   -1.1269    2.0188   -1.5737 H   0  0  0  0  0  0  0  0  0  0  0  0
   -0.0324    0.7552   -1.0489 H   0  0  0  0  0  0  0  0  0  0  0  0
   -0.0239   -0.9480    2.2812 H   0  0  0  0  0  0  0  0  0  0  0  0
    0.2212   -0.8417    0.5566 H   0  0  0  0  0  0  0  0  0  0  0  0
    1.3191    1.4783    0.9639 H   0  0  0  0  0  0  0  0  0  0  0  0
    1.1960    1.1474    2.6974 H   0  0  0  0  0  0  0  0  0  0  0  0
    2.9533   -0.3310    2.5464 H   0  0  0  0  0  0  0  0  0  0  0  0
    5.0798   -0.5675    1.2533 H   0  0  0  0  0  0  0  0  0  0  0  0
    4.1871   -2.1041    1.2323 H   0  0  0  0  0  0  0  0  0  0  0  0
    5.2586   -0.6416   -1.2427 H   0  0  0  0  0  0  0  0  0  0  0  0
    4.3635   -2.1561   -1.2731 H   0  0  0  0  0  0  0  0  0  0  0  0
    7.0692   -1.7356    0.1085 H   0  0  0  0  0  0  0  0  0  0  0  0
    6.1638   -3.2624    0.0669 H   0  0  0  0  0  0  0  0  0  0  0  0
    6.7965   -2.5675   -1.4335 H   0  0  0  0  0  0  0  0  0  0  0  0
   -4.2154    2.0561    3.5727 H   0  0  0  0  0  0  0  0  0  0  0  0
   -5.8590    3.3901    2.2509 H   0  0  0  0  0  0  0  0  0  0  0  0
   -5.5497    3.6960   -0.1815 H   0  0  0  0  0  0  0  0  0  0  0  0
   -3.6065    2.6758   -1.3544 H   0  0  0  0  0  0  0  0  0  0  0  0
  1  2  1  0
  2  3  1  0
  3  4  1  0
  4  5  1  0
  5  6  1  0
  6  7  1  0
  7  8  1  0
  8  9  1  0
  9 10  1  0
 10 11  2  0
 10 12  1  0
 12 13  1  0
 13 14  1  0
  6 15  2  0
 15 16  1  0
 16 17  2  0
 17 18  1  0
 18 19  2  0
 19 20  1  0
 20 21  2  0
 21  5  1  0
 21 16  1  0
  1 22  1  0
  1 23  1  0
  1 24  1  0
  2 25  1  0
  2 26  1  0
  3 27  1  0
  3 28  1  0
  4 29  1  0
  4 30  1  0
  7 31  1  0
  7 32  1  0
  8 33  1  0
  8 34  1  0
  9 35  1  0
 12 36  1  0
 12 37  1  0
 13 38  1  0
 13 39  1  0
 14 40  1  0
 14 41  1  0
 14 42  1  0
 17 43  1  0
 18 44  1  0
 19 45  1  0
 20 46  1  0
M  END
$$$$
