
     RDKit          3D

 55 58  0  0  0  0  0  0  0  0999 V2000
    8.1995   -1.5564    1.5021 C   0  0  0  0  0  0  0  0  0  0  0  0
    7.7694   -1.2325    0.1864 O   0  0  0  0  0  0  0  0  0  0  0  0
    6.5012   -0.7367    0.0564 C   0  0  0  0  0  0  0  0  0  0  0  0
    6.1034   -0.4881   -1.2587 C   0  0  0  0  0  0  0  0  0  0  0  0
    4.8325    0.0212   -1.5369 C   0  0  0  0  0  0  0  0  0  0  0  0
    3.9390    0.2970   -0.4961 C   0  0  0  0  0  0  0  0  0  0  0  0
    2.5669    0.8548   -0.7865 C   0  0  0  0  0  0  0  0  0  0  0  0
    1.4334   -0.1544   -0.6438 C   0  0  0  0  0  0  0  0  0  0  0  0
    1.5980   -1.3632   -0.7713 O   0  0  0  0  0  0  0  0  0  0  0  0
    0.2247    0.4692   -0.3994 N   0  0  0  0  0  0  0  0  0  0  0  0
   -1.0448   -0.1143   -0.1998 C   0  0  0  0  0  0  0  0  0  0  0  0
   -1.2674   -1.4936   -0.1607 C   0  0  0  0  0  0  0  0  0  0  0  0
   -2.5619   -1.9135    0.0609 C   0  0  0  0  0  0  0  0  0  0  0  0
   -3.6148   -1.0150    0.2394 C   0  0  0  0  0  0  0  0  0  0  0  0
   -3.4252    0.3504    0.2038 C   0  0  0  0  0  0  0  0  0  0  0  0
   -2.1192    0.8206   -0.0163 C   0  0  0  0  0  0  0  0  0  0  0  0
   -1.8120    2.2050   -0.1102 N   0  0  0  0  0  0  0  0  0  0  0  0
   -2.3851    3.0674    0.9454 C   0  0  0  0  0  0  0  0  0  0  0  0
   -3.2691    4.0702    0.2111 C   0  0  0  0  0  0  0  0  0  0  0  0
   -2.5834    4.1971   -1.1363 C   0  0  0  0  0  0  0  0  0  0  0  0
   -2.1888    2.7553   -1.4324 C   0  0  0  0  0  0  0  0  0  0  0  0
   -4.7864   -1.7580    0.4352 N   0  0  0  0  0  0  0  0  0  0  0  0
   -6.0932   -1.2096    0.6482 C   0  0  0  0  0  0  0  0  0  0  0  0
   -4.4744   -3.1348    0.3812 C   0  0  0  0  0  0  0  0  0  0  0  0
   -5.2523   -4.0670    0.5087 O   0  0  0  0  0  0  0  0  0  0  0  0
   -3.0848   -3.2105    0.1491 N   0  0  0  0  0  0  0  0  0  0  0  0
   -2.3224   -4.4185    0.0167 C   0  0  0  0  0  0  0  0  0  0  0  0
    4.3388    0.0420    0.8225 C   0  0  0  0  0  0  0  0  0  0  0  0
    5.6120   -0.4708    1.0973 C   0  0  0  0  0  0  0  0  0  0  0  0
    9.2159   -1.9562    1.4323 H   0  0  0  0  0  0  0  0  0  0  0  0
    8.2362   -0.6643    2.1357 H   0  0  0  0  0  0  0  0  0  0  0  0
    7.5664   -2.3320    1.9458 H   0  0  0  0  0  0  0  0  0  0  0  0
    6.7883   -0.6996   -2.0761 H   0  0  0  0  0  0  0  0  0  0  0  0
    4.5484    0.1927   -2.5724 H   0  0  0  0  0  0  0  0  0  0  0  0
    2.5269    1.2518   -1.8085 H   0  0  0  0  0  0  0  0  0  0  0  0
    2.3942    1.7044   -0.1134 H   0  0  0  0  0  0  0  0  0  0  0  0
    0.1842    1.4855   -0.3533 H   0  0  0  0  0  0  0  0  0  0  0  0
   -0.4722   -2.2146   -0.2908 H   0  0  0  0  0  0  0  0  0  0  0  0
   -4.2581    1.0298    0.3256 H   0  0  0  0  0  0  0  0  0  0  0  0
   -2.9358    2.5338    1.7277 H   0  0  0  0  0  0  0  0  0  0  0  0
   -1.5551    3.5927    1.4328 H   0  0  0  0  0  0  0  0  0  0  0  0
   -3.3479    5.0241    0.7396 H   0  0  0  0  0  0  0  0  0  0  0  0
   -4.2789    3.6631    0.0838 H   0  0  0  0  0  0  0  0  0  0  0  0
   -1.6905    4.8275   -1.0494 H   0  0  0  0  0  0  0  0  0  0  0  0
   -3.2327    4.6201   -1.9075 H   0  0  0  0  0  0  0  0  0  0  0  0
   -1.3466    2.7057   -2.1300 H   0  0  0  0  0  0  0  0  0  0  0  0
   -3.0434    2.2277   -1.8763 H   0  0  0  0  0  0  0  0  0  0  0  0
   -6.8249   -2.0100    0.7891 H   0  0  0  0  0  0  0  0  0  0  0  0
   -6.0802   -0.5778    1.5409 H   0  0  0  0  0  0  0  0  0  0  0  0
   -6.3809   -0.6137   -0.2230 H   0  0  0  0  0  0  0  0  0  0  0  0
   -2.9726   -5.2915    0.1211 H   0  0  0  0  0  0  0  0  0  0  0  0
   -1.5561   -4.4500    0.7967 H   0  0  0  0  0  0  0  0  0  0  0  0
   -1.8496   -4.4425   -0.9695 H   0  0  0  0  0  0  0  0  0  0  0  0
    3.6578    0.2335    1.6492 H   0  0  0  0  0  0  0  0  0  0  0  0
    5.8738   -0.6535    2.1338 H   0  0  0  0  0  0  0  0  0  0  0  0
  1  2  1  0
  2  3  1  0
  3  4  2  0
  4  5  1  0
  5  6  2  0
  6  7  1  0
  7  8  1  0
  8  9  2  0
  8 10  1  0
 10 11  1  0
 11 12  2  0
 12 13  1  0
 13 14  2  0
 14 15  1  0
 15 16  2  0
 16 17  1  0
 17 18  1  0
 18 19  1  0
 19 20  1  0
 20 21  1  0
 14 22  1  0
 22 23  1  0
 22 24  1  0
 24 25  2  0
 24 26  1  0
 26 27  1  0
  6 28  1  0
 28 29  2  0
 29  3  1  0
 16 11  1  0
 21 17  1  0
 26 13  1  0
  1 30  1  0
  1 31  1  0
  1 32  1  0
  4 33  1  0
  5 34  1  0
  7 35  1  0
  7 36  1  0
 10 37  1  0
 12 38  1  0
 15 39  1  0
 18 40  1  0
 18 41  1  0
 19 42  1  0
 19 43  1  0
 20 44  1  0
 20 45  1  0
 21 46  1  0
 21 47  1  0
 23 48  1  0
 23 49  1  0
 23 50  1  0
 27 51  1  0
 27 52  1  0
 27 53  1  0
 28 54  1  0
 29 55  1  0
M  END
$$$$
