
     RDKit          3D

 45 46  0  0  0  0  0  0  0  0999 V2000
    5.3880    2.0039    0.3891 C   0  0  0  0  0  0  0  0  0  0  0  0
    6.0843    0.3613    0.7085 S   0  0  0  0  0  0  0  0  0  0  0  0
    5.0770   -0.1222    2.1497 C   0  0  0  0  0  0  0  0  0  0  0  0
    3.5715   -0.2154    1.8966 C   0  0  0  0  0  0  0  0  0  0  0  0
    3.1370   -1.1087    0.7200 C   0  0  1  0  0  0  0  0  0  0  0  0
    3.6202   -2.5614    0.8881 C   0  0  0  0  0  0  0  0  0  0  0  0
    3.0949   -3.3779   -0.1623 O   0  0  0  0  0  0  0  0  0  0  0  0
    1.6769   -1.1034    0.5767 N   0  0  0  0  0  0  0  0  0  0  0  0
    0.9887   -0.0139    0.0891 C   0  0  0  0  0  0  0  0  0  0  0  0
    1.5219    1.0553   -0.1863 O   0  0  0  0  0  0  0  0  0  0  0  0
   -0.4887   -0.2880   -0.1031 C   0  0  0  0  0  0  0  0  0  0  0  0
   -1.2623    0.9948   -0.4028 C   0  0  0  0  0  0  0  0  0  0  0  0
   -2.7243    0.7256   -0.6621 C   0  0  0  0  0  0  0  0  0  0  0  0
   -3.3304    0.6693   -1.8745 C   0  0  0  0  0  0  0  0  0  0  0  0
   -2.5849    0.8064   -3.1803 C   0  0  0  0  0  0  0  0  0  0  0  0
   -4.6993    0.4598   -1.9981 N   0  0  0  0  0  0  0  0  0  0  0  0
   -5.4979    0.3067   -0.9216 C   0  0  0  0  0  0  0  0  0  0  0  0
   -6.8412    0.0999   -0.7504 C   0  0  0  0  0  0  0  0  0  0  0  0
   -7.0032    0.0249    0.6477 C   0  0  0  0  0  0  0  0  0  0  0  0
   -5.8557    0.1714    1.3166 N   0  0  0  0  0  0  0  0  0  0  0  0
   -4.9295    0.3512    0.3344 N   0  0  0  0  0  0  0  0  0  0  0  0
   -3.5624    0.5492    0.5807 C   0  0  0  0  0  0  0  0  0  0  0  0
   -3.1089    0.5610    1.7191 O   0  0  0  0  0  0  0  0  0  0  0  0
    4.3652    1.9235    0.0143 H   0  0  0  0  0  0  0  0  0  0  0  0
    5.4060    2.6116    1.2974 H   0  0  0  0  0  0  0  0  0  0  0  0
    5.9921    2.5031   -0.3733 H   0  0  0  0  0  0  0  0  0  0  0  0
    5.4540   -1.0889    2.4995 H   0  0  0  0  0  0  0  0  0  0  0  0
    5.2700    0.5918    2.9580 H   0  0  0  0  0  0  0  0  0  0  0  0
    3.1737    0.7976    1.7642 H   0  0  0  0  0  0  0  0  0  0  0  0
    3.0966   -0.5852    2.8158 H   0  0  0  0  0  0  0  0  0  0  0  0
    3.5246   -0.7137   -0.2264 H   0  0  0  0  0  0  0  0  0  0  0  0
    3.2650   -2.9829    1.8344 H   0  0  0  0  0  0  0  0  0  0  0  0
    4.7108   -2.6383    0.8637 H   0  0  0  0  0  0  0  0  0  0  0  0
    3.4707   -3.0413   -0.9958 H   0  0  0  0  0  0  0  0  0  0  0  0
    1.2289   -2.0135    0.5245 H   0  0  0  0  0  0  0  0  0  0  0  0
   -0.8757   -0.7668    0.8039 H   0  0  0  0  0  0  0  0  0  0  0  0
   -0.5920   -0.9973   -0.9333 H   0  0  0  0  0  0  0  0  0  0  0  0
   -1.1592    1.6953    0.4367 H   0  0  0  0  0  0  0  0  0  0  0  0
   -0.8087    1.5212   -1.2502 H   0  0  0  0  0  0  0  0  0  0  0  0
   -2.9385    0.0586   -3.8993 H   0  0  0  0  0  0  0  0  0  0  0  0
   -1.5077    0.6512   -3.0812 H   0  0  0  0  0  0  0  0  0  0  0  0
   -2.7560    1.7997   -3.6077 H   0  0  0  0  0  0  0  0  0  0  0  0
   -5.0754    0.4445   -2.9451 H   0  0  0  0  0  0  0  0  0  0  0  0
   -7.6004    0.0125   -1.5131 H   0  0  0  0  0  0  0  0  0  0  0  0
   -7.9156   -0.1326    1.2095 H   0  0  0  0  0  0  0  0  0  0  0  0
  1  2  1  0
  2  3  1  0
  3  4  1  0
  4  5  1  0
  5  6  1  0
  6  7  1  0
  5  8  1  0
  8  9  1  0
  9 10  2  0
  9 11  1  0
 11 12  1  0
 12 13  1  0
 13 14  2  0
 14 15  1  0
 14 16  1  0
 16 17  1  0
 17 18  2  0
 18 19  1  0
 19 20  2  0
 20 21  1  0
 21 22  1  0
 22 23  2  0
 22 13  1  0
 21 17  1  0
  1 24  1  0
  1 25  1  0
  1 26  1  0
  3 27  1  0
  3 28  1  0
  4 29  1  0
  4 30  1  0
  5 31  1  6
  6 32  1  0
  6 33  1  0
  7 34  1  0
  8 35  1  0
 11 36  1  0
 11 37  1  0
 12 38  1  0
 12 39  1  0
 15 40  1  0
 15 41  1  0
 15 42  1  0
 16 43  1  0
 18 44  1  0
 19 45  1  0
M  END
$$$$
