
     RDKit          3D

 73 77  0  0  0  0  0  0  0  0999 V2000
   -6.8171    5.0675   -0.8350 C   0  0  0  0  0  0  0  0  0  0  0  0
   -7.3649    3.7758   -0.5847 O   0  0  0  0  0  0  0  0  0  0  0  0
   -6.4827    2.7859   -0.2497 C   0  0  0  0  0  0  0  0  0  0  0  0
   -5.1004    2.9057   -0.1960 C   0  0  0  0  0  0  0  0  0  0  0  0
   -4.3173    1.7983    0.1501 C   0  0  0  0  0  0  0  0  0  0  0  0
   -4.8883    0.5487    0.4504 C   0  0  0  0  0  0  0  0  0  0  0  0
   -4.0296   -0.5769    0.7498 N   0  0  0  0  0  0  0  0  0  0  0  0
   -4.4519   -1.8886    0.2601 C   0  0  0  0  0  0  0  0  0  0  0  0
   -2.8470   -0.4177    1.4851 C   0  0  0  0  0  0  0  0  0  0  0  0
   -2.4073    0.6669    1.8803 O   0  0  0  0  0  0  0  0  0  0  0  0
   -2.0180   -1.6746    1.8042 C   0  0  0  0  0  0  0  0  0  0  0  0
   -1.0371   -2.0269    0.7673 N   0  0  0  0  0  0  0  0  0  0  0  0
   -0.1285   -1.0768    0.3388 C   0  0  0  0  0  0  0  0  0  0  0  0
    0.7836   -1.3247   -0.6137 C   0  0  0  0  0  0  0  0  0  0  0  0
    1.8719   -0.0306   -1.0061 S   0  0  0  0  0  6  0  0  0  0  0  0
    1.0715    1.1484   -1.2842 O   0  0  0  0  0  0  0  0  0  0  0  0
    2.9123   -0.4093   -1.9419 O   0  0  0  0  0  0  0  0  0  0  0  0
    2.6980    0.3006    0.4640 N   0  0  0  0  0  0  0  0  0  0  0  0
    3.2630    1.6977    0.5172 C   0  0  0  0  0  0  0  0  0  0  0  0
    4.4274    1.8060    1.5157 C   0  0  0  0  0  0  0  0  0  0  0  0
    5.5515    0.9138    1.1532 N   0  0  0  0  0  0  0  0  0  0  0  0
    6.6826    1.4759    0.5255 C   0  0  0  0  0  0  0  0  0  0  0  0
    7.9093    0.7931    0.6271 C   0  0  0  0  0  0  0  0  0  0  0  0
    9.0736    1.2746    0.0202 C   0  0  0  0  0  0  0  0  0  0  0  0
    9.0412    2.4582   -0.7099 C   0  0  0  0  0  0  0  0  0  0  0  0
    7.8454    3.1578   -0.8263 C   0  0  0  0  0  0  0  0  0  0  0  0
    6.6884    2.6717   -0.2172 C   0  0  0  0  0  0  0  0  0  0  0  0
    5.5626    3.3776   -0.3983 F   0  0  0  0  0  0  0  0  0  0  0  0
    5.1382   -0.3629    0.5128 C   0  0  0  0  0  0  0  0  0  0  0  0
    3.6926   -0.7469    0.8847 C   0  0  0  0  0  0  0  0  0  0  0  0
    0.8655   -2.6428   -1.2657 C   0  0  0  0  0  0  0  0  0  0  0  0
    1.7093   -3.0154   -2.3252 C   0  0  0  0  0  0  0  0  0  0  0  0
    1.7262   -4.3218   -2.8353 C   0  0  0  0  0  0  0  0  0  0  0  0
    0.8859   -5.2944   -2.3132 C   0  0  0  0  0  0  0  0  0  0  0  0
    0.0112   -4.9541   -1.2894 C   0  0  0  0  0  0  0  0  0  0  0  0
   -0.0058   -3.6442   -0.7758 C   0  0  0  0  0  0  0  0  0  0  0  0
   -1.0066   -3.3361    0.2914 C   0  0  0  0  0  0  0  0  0  0  0  0
   -1.7591   -4.2186    0.6954 O   0  0  0  0  0  0  0  0  0  0  0  0
   -6.3014    0.4410    0.4082 C   0  0  0  0  0  0  0  0  0  0  0  0
   -6.8575   -0.7579    0.7879 O   0  0  0  0  0  0  0  0  0  0  0  0
   -8.2589   -0.9261    0.6172 C   0  0  0  0  0  0  0  0  0  0  0  0
   -7.0758    1.5580    0.0556 C   0  0  0  0  0  0  0  0  0  0  0  0
   -6.1358    5.0495   -1.6907 H   0  0  0  0  0  0  0  0  0  0  0  0
   -7.6499    5.7343   -1.0857 H   0  0  0  0  0  0  0  0  0  0  0  0
   -6.3229    5.4665    0.0591 H   0  0  0  0  0  0  0  0  0  0  0  0
   -4.5907    3.8376   -0.4239 H   0  0  0  0  0  0  0  0  0  0  0  0
   -3.2373    1.9300    0.1382 H   0  0  0  0  0  0  0  0  0  0  0  0
   -5.1281   -1.7993   -0.5957 H   0  0  0  0  0  0  0  0  0  0  0  0
   -4.9213   -2.4454    1.0760 H   0  0  0  0  0  0  0  0  0  0  0  0
   -3.5918   -2.4519   -0.1060 H   0  0  0  0  0  0  0  0  0  0  0  0
   -1.4618   -1.4898    2.7304 H   0  0  0  0  0  0  0  0  0  0  0  0
   -2.6864   -2.5085    2.0319 H   0  0  0  0  0  0  0  0  0  0  0  0
   -0.1844   -0.0998    0.8195 H   0  0  0  0  0  0  0  0  0  0  0  0
    3.6042    1.9982   -0.4785 H   0  0  0  0  0  0  0  0  0  0  0  0
    2.4575    2.3734    0.8283 H   0  0  0  0  0  0  0  0  0  0  0  0
    4.7423    2.8464    1.6486 H   0  0  0  0  0  0  0  0  0  0  0  0
    4.0720    1.4895    2.5052 H   0  0  0  0  0  0  0  0  0  0  0  0
    7.9676   -0.1216    1.2131 H   0  0  0  0  0  0  0  0  0  0  0  0
   10.0060    0.7261    0.1271 H   0  0  0  0  0  0  0  0  0  0  0  0
    9.9464    2.8347   -1.1801 H   0  0  0  0  0  0  0  0  0  0  0  0
    7.7993    4.0813   -1.3964 H   0  0  0  0  0  0  0  0  0  0  0  0
    5.2159   -0.2802   -0.5787 H   0  0  0  0  0  0  0  0  0  0  0  0
    5.8062   -1.1688    0.8371 H   0  0  0  0  0  0  0  0  0  0  0  0
    3.5996   -0.8679    1.9707 H   0  0  0  0  0  0  0  0  0  0  0  0
    3.4443   -1.7182    0.4449 H   0  0  0  0  0  0  0  0  0  0  0  0
    2.3812   -2.3206   -2.8182 H   0  0  0  0  0  0  0  0  0  0  0  0
    2.4020   -4.5710   -3.6520 H   0  0  0  0  0  0  0  0  0  0  0  0
    0.9011   -6.3060   -2.7097 H   0  0  0  0  0  0  0  0  0  0  0  0
   -0.6630   -5.7105   -0.8909 H   0  0  0  0  0  0  0  0  0  0  0  0
   -8.8175   -0.2694    1.2920 H   0  0  0  0  0  0  0  0  0  0  0  0
   -8.5507   -0.7706   -0.4262 H   0  0  0  0  0  0  0  0  0  0  0  0
   -8.5008   -1.9605    0.8836 H   0  0  0  0  0  0  0  0  0  0  0  0
   -8.1592    1.5166    0.0276 H   0  0  0  0  0  0  0  0  0  0  0  0
  1  2  1  0
  2  3  1  0
  3  4  2  0
  4  5  1  0
  5  6  2  0
  6  7  1  0
  7  8  1  0
  7  9  1  0
  9 10  2  0
  9 11  1  0
 11 12  1  0
 12 13  1  0
 13 14  2  0
 14 15  1  0
 15 16  2  0
 15 17  2  0
 15 18  1  0
 18 19  1  0
 19 20  1  0
 20 21  1  0
 21 22  1  0
 22 23  2  0
 23 24  1  0
 24 25  2  0
 25 26  1  0
 26 27  2  0
 27 28  1  0
 21 29  1  0
 29 30  1  0
 14 31  1  0
 31 32  2  0
 32 33  1  0
 33 34  2  0
 34 35  1  0
 35 36  2  0
 36 37  1  0
 37 38  2  0
  6 39  1  0
 39 40  1  0
 40 41  1  0
 39 42  2  0
 42  3  1  0
 37 12  1  0
 30 18  1  0
 36 31  1  0
 27 22  1  0
  1 43  1  0
  1 44  1  0
  1 45  1  0
  4 46  1  0
  5 47  1  0
  8 48  1  0
  8 49  1  0
  8 50  1  0
 11 51  1  0
 11 52  1  0
 13 53  1  0
 19 54  1  0
 19 55  1  0
 20 56  1  0
 20 57  1  0
 23 58  1  0
 24 59  1  0
 25 60  1  0
 26 61  1  0
 29 62  1  0
 29 63  1  0
 30 64  1  0
 30 65  1  0
 32 66  1  0
 33 67  1  0
 34 68  1  0
 35 69  1  0
 41 70  1  0
 41 71  1  0
 41 72  1  0
 42 73  1  0
M  END
$$$$
