
     RDKit          3D

 30 31  0  0  0  0  0  0  0  0999 V2000
   -3.8894    0.9965   -0.6607 C   0  0  0  0  0  0  0  0  0  0  0  0
   -3.3560    0.2553    0.5657 C   0  0  1  0  0  0  0  0  0  0  0  0
   -3.8921   -1.1832    0.6261 C   0  0  0  0  0  0  0  0  0  0  0  0
   -3.3821   -1.9472   -0.4696 O   0  0  0  0  0  0  0  0  0  0  0  0
   -1.8980    0.2300    0.5407 N   0  0  0  0  0  0  0  0  0  0  0  0
   -1.1368    1.3058    0.9601 C   0  0  0  0  0  0  0  0  0  0  0  0
   -1.6467    2.2845    1.5018 O   0  0  0  0  0  0  0  0  0  0  0  0
    0.3147    1.1830    0.6996 C   0  0  0  0  0  0  0  0  0  0  0  0
    1.0460    0.0361    0.2655 C   0  0  0  0  0  0  0  0  0  0  0  0
    2.3568    0.4407    0.1783 C   0  0  0  0  0  0  0  0  0  0  0  0
    3.6010   -0.3904   -0.2448 C   0  0  0  0  0  0  0  0  0  0  0  0
    4.9359    0.1058   -0.3077 C   0  0  0  0  0  0  0  0  0  0  0  0
    5.8296   -0.8613   -0.7160 C   0  0  0  0  0  0  0  0  0  0  0  0
    5.0621   -2.3588   -1.0216 S   0  0  0  0  0  0  0  0  0  0  0  0
    3.5290   -1.7174   -0.6079 C   0  0  0  0  0  0  0  0  0  0  0  0
    2.3609    1.7512    0.5488 N   0  0  0  0  0  0  0  0  0  0  0  0
    1.1502    2.2269    0.8692 N   0  0  0  0  0  0  0  0  0  0  0  0
   -4.9842    1.0102   -0.6614 H   0  0  0  0  0  0  0  0  0  0  0  0
   -3.5405    2.0347   -0.6727 H   0  0  0  0  0  0  0  0  0  0  0  0
   -3.5515    0.5283   -1.5918 H   0  0  0  0  0  0  0  0  0  0  0  0
   -3.6815    0.7906    1.4654 H   0  0  0  0  0  0  0  0  0  0  0  0
   -4.9861   -1.1954    0.5853 H   0  0  0  0  0  0  0  0  0  0  0  0
   -3.5678   -1.6714    1.5514 H   0  0  0  0  0  0  0  0  0  0  0  0
   -3.7955   -2.8268   -0.4121 H   0  0  0  0  0  0  0  0  0  0  0  0
   -1.4912   -0.4556   -0.0813 H   0  0  0  0  0  0  0  0  0  0  0  0
    0.6608   -0.9511    0.0585 H   0  0  0  0  0  0  0  0  0  0  0  0
    5.2433    1.1158   -0.0696 H   0  0  0  0  0  0  0  0  0  0  0  0
    6.8982   -0.7624   -0.8504 H   0  0  0  0  0  0  0  0  0  0  0  0
    2.6584   -2.3558   -0.6556 H   0  0  0  0  0  0  0  0  0  0  0  0
    3.1525    2.3812    0.6081 H   0  0  0  0  0  0  0  0  0  0  0  0
  1  2  1  0
  2  3  1  0
  3  4  1  0
  2  5  1  0
  5  6  1  0
  6  7  2  0
  6  8  1  0
  8  9  1  0
  9 10  2  0
 10 11  1  0
 11 12  1  0
 12 13  2  0
 13 14  1  0
 14 15  1  0
 10 16  1  0
 16 17  1  0
 17  8  2  0
 15 11  2  0
  1 18  1  0
  1 19  1  0
  1 20  1  0
  2 21  1  1
  3 22  1  0
  3 23  1  0
  4 24  1  0
  5 25  1  0
  9 26  1  0
 12 27  1  0
 13 28  1  0
 15 29  1  0
 16 30  1  0
M  END
$$$$
