
     RDKit          3D

 45 46  0  0  0  0  0  0  0  0999 V2000
   -6.2818   -0.2177    0.2086 C   0  0  0  0  0  0  0  0  0  0  0  0
   -5.0480    0.6771    0.2096 C   0  0  0  0  0  0  0  0  0  0  0  0
   -3.8088   -0.0284   -0.1465 N   0  0  0  0  0  0  0  0  0  0  0  0
   -3.3965   -1.0396    0.8347 C   0  0  0  0  0  0  0  0  0  0  0  0
   -3.7289   -2.4402    0.3340 C   0  0  0  0  0  0  0  0  0  0  0  0
   -2.7184    0.9040   -0.4913 C   0  0  0  0  0  0  0  0  0  0  0  0
   -2.2524    1.8332    0.6415 C   0  0  0  0  0  0  0  0  0  0  0  0
   -1.1200    2.7644    0.2080 C   0  0  0  0  0  0  0  0  0  0  0  0
    0.1344    2.0624    0.0174 N   0  0  0  0  0  0  0  0  0  0  0  0
    0.6280    1.7687   -1.2450 C   0  0  0  0  0  0  0  0  0  0  0  0
    0.0191    2.0900   -2.2625 O   0  0  0  0  0  0  0  0  0  0  0  0
    1.9124    1.0514   -1.2708 C   0  0  0  0  0  0  0  0  0  0  0  0
    2.6997    0.5574   -0.1918 C   0  0  0  0  0  0  0  0  0  0  0  0
    3.7967   -0.0306   -0.7794 C   0  0  0  0  0  0  0  0  0  0  0  0
    4.9856   -0.7229   -0.2915 C   0  0  0  0  0  0  0  0  0  0  0  0
    5.9463   -1.2380   -1.1780 C   0  0  0  0  0  0  0  0  0  0  0  0
    7.0835   -1.9003   -0.7053 C   0  0  0  0  0  0  0  0  0  0  0  0
    7.2782   -2.0582    0.6644 C   0  0  0  0  0  0  0  0  0  0  0  0
    6.3341   -1.5525    1.5532 C   0  0  0  0  0  0  0  0  0  0  0  0
    6.5690   -1.7443    3.2479 Cl  0  0  0  0  0  0  0  0  0  0  0  0
    5.1967   -0.8904    1.0855 C   0  0  0  0  0  0  0  0  0  0  0  0
    3.6782    0.1013   -2.1290 O   0  0  0  0  0  0  0  0  0  0  0  0
    2.5142    0.7691   -2.4383 N   0  0  0  0  0  0  0  0  0  0  0  0
   -7.1823    0.3903    0.3462 H   0  0  0  0  0  0  0  0  0  0  0  0
   -6.2536   -0.9473    1.0233 H   0  0  0  0  0  0  0  0  0  0  0  0
   -6.3827   -0.7528   -0.7413 H   0  0  0  0  0  0  0  0  0  0  0  0
   -5.2325    1.4708   -0.5254 H   0  0  0  0  0  0  0  0  0  0  0  0
   -4.9619    1.1629    1.1890 H   0  0  0  0  0  0  0  0  0  0  0  0
   -2.3114   -1.0159    0.9982 H   0  0  0  0  0  0  0  0  0  0  0  0
   -3.8512   -0.8672    1.8178 H   0  0  0  0  0  0  0  0  0  0  0  0
   -4.8029   -2.5877    0.1941 H   0  0  0  0  0  0  0  0  0  0  0  0
   -3.3829   -3.1865    1.0568 H   0  0  0  0  0  0  0  0  0  0  0  0
   -3.2300   -2.6438   -0.6198 H   0  0  0  0  0  0  0  0  0  0  0  0
   -1.8717    0.3130   -0.8616 H   0  0  0  0  0  0  0  0  0  0  0  0
   -3.0366    1.5127   -1.3477 H   0  0  0  0  0  0  0  0  0  0  0  0
   -3.0892    2.4606    0.9687 H   0  0  0  0  0  0  0  0  0  0  0  0
   -1.9288    1.2482    1.5103 H   0  0  0  0  0  0  0  0  0  0  0  0
   -1.3954    3.3154   -0.6975 H   0  0  0  0  0  0  0  0  0  0  0  0
   -0.9387    3.5003    0.9992 H   0  0  0  0  0  0  0  0  0  0  0  0
    0.6543    1.7988    0.8399 H   0  0  0  0  0  0  0  0  0  0  0  0
    2.4969    0.6158    0.8652 H   0  0  0  0  0  0  0  0  0  0  0  0
    5.8213   -1.1304   -2.2549 H   0  0  0  0  0  0  0  0  0  0  0  0
    7.8147   -2.2917   -1.4089 H   0  0  0  0  0  0  0  0  0  0  0  0
    8.1626   -2.5732    1.0298 H   0  0  0  0  0  0  0  0  0  0  0  0
    4.4804   -0.5082    1.8073 H   0  0  0  0  0  0  0  0  0  0  0  0
  1  2  1  0
  2  3  1  0
  3  4  1  0
  4  5  1  0
  3  6  1  0
  6  7  1  0
  7  8  1  0
  8  9  1  0
  9 10  1  0
 10 11  2  0
 10 12  1  0
 12 13  1  0
 13 14  2  0
 14 15  1  0
 15 16  2  0
 16 17  1  0
 17 18  2  0
 18 19  1  0
 19 20  1  0
 19 21  2  0
 14 22  1  0
 22 23  1  0
 23 12  2  0
 21 15  1  0
  1 24  1  0
  1 25  1  0
  1 26  1  0
  2 27  1  0
  2 28  1  0
  4 29  1  0
  4 30  1  0
  5 31  1  0
  5 32  1  0
  5 33  1  0
  6 34  1  0
  6 35  1  0
  7 36  1  0
  7 37  1  0
  8 38  1  0
  8 39  1  0
  9 40  1  0
 13 41  1  0
 16 42  1  0
 17 43  1  0
 18 44  1  0
 21 45  1  0
M  END
$$$$
