
     RDKit          3D

 61 64  0  0  0  0  0  0  0  0999 V2000
   -4.9698   -1.8376    1.6134 C   0  0  0  0  0  0  0  0  0  0  0  0
   -4.3248   -1.0806    0.5279 N   0  0  0  0  0  0  0  0  0  0  0  0
   -2.8451   -1.1530    0.5490 C   0  0  0  0  0  0  0  0  0  0  0  0
   -2.2386    0.1923    0.1495 C   0  0  0  0  0  0  0  0  0  0  0  0
   -2.7294    1.2709    0.4832 O   0  0  0  0  0  0  0  0  0  0  0  0
   -1.0762    0.0918   -0.5882 N   0  0  0  0  0  0  0  0  0  0  0  0
   -0.2864    1.2673   -0.9050 C   0  0  0  0  0  0  0  0  0  0  0  0
    0.6448    1.6628    0.2586 C   0  0  0  0  0  0  0  0  0  0  0  0
    1.5370    0.5687    0.7015 N   0  0  0  0  0  0  0  0  0  0  0  0
    2.4988    0.1822   -0.3554 C   0  0  0  0  0  0  0  0  0  0  0  0
    3.7849   -0.4784    0.1930 C   0  0  0  0  0  0  0  0  0  0  0  0
    4.5525    0.3713    1.1272 N   0  0  0  0  0  0  0  0  0  0  0  0
    5.7360    0.9868    0.5099 C   0  0  0  0  0  0  0  0  0  0  0  0
    6.8265   -0.0087    0.1710 C   0  0  0  0  0  0  0  0  0  0  0  0
    7.4018   -0.0258   -1.1083 C   0  0  0  0  0  0  0  0  0  0  0  0
    8.4226   -0.9285   -1.4142 C   0  0  0  0  0  0  0  0  0  0  0  0
    8.8836   -1.8172   -0.4447 C   0  0  0  0  0  0  0  0  0  0  0  0
    8.3263   -1.8046    0.8327 C   0  0  0  0  0  0  0  0  0  0  0  0
    7.3058   -0.9036    1.1403 C   0  0  0  0  0  0  0  0  0  0  0  0
    3.6959    1.4030    1.7438 C   0  0  0  0  0  0  0  0  0  0  0  0
    2.2429    0.9250    1.9533 C   0  0  0  0  0  0  0  0  0  0  0  0
   -5.0220   -1.2417   -1.0208 S   0  0  0  0  0  6  0  0  0  0  0  0
   -4.1463   -0.6180   -1.9872 O   0  0  0  0  0  0  0  0  0  0  0  0
   -5.4010   -2.6335   -1.1269 O   0  0  0  0  0  0  0  0  0  0  0  0
   -6.4542   -0.2363   -0.9076 C   0  0  0  0  0  0  0  0  0  0  0  0
   -6.4336    0.9490   -0.1353 C   0  0  0  0  0  0  0  0  0  0  0  0
   -7.5529    1.8010    0.0011 C   0  0  0  0  0  0  0  0  0  0  0  0
   -8.7828    1.5481   -0.6275 C   0  0  0  0  0  0  0  0  0  0  0  0
   -8.8497    0.3856   -1.4344 C   0  0  0  0  0  0  0  0  0  0  0  0
   -9.9271   -0.0197   -2.1226 N   0  0  0  0  0  0  0  0  0  0  0  0
   -9.4848   -1.4097   -2.9133 S   0  0  0  0  0  0  0  0  0  0  0  0
   -7.9147   -1.5642   -2.4082 N   0  0  0  0  0  0  0  0  0  0  0  0
   -7.6555   -0.5330   -1.5880 C   0  0  0  0  0  0  0  0  0  0  0  0
   -6.0571   -1.7430    1.5695 H   0  0  0  0  0  0  0  0  0  0  0  0
   -4.6511   -1.4359    2.5792 H   0  0  0  0  0  0  0  0  0  0  0  0
   -4.6961   -2.8955    1.5672 H   0  0  0  0  0  0  0  0  0  0  0  0
   -2.4835   -1.3721    1.5605 H   0  0  0  0  0  0  0  0  0  0  0  0
   -2.4928   -1.9590   -0.1041 H   0  0  0  0  0  0  0  0  0  0  0  0
   -0.5802   -0.7895   -0.5868 H   0  0  0  0  0  0  0  0  0  0  0  0
   -0.9585    2.1015   -1.1367 H   0  0  0  0  0  0  0  0  0  0  0  0
    0.2858    1.0389   -1.8101 H   0  0  0  0  0  0  0  0  0  0  0  0
    1.2254    2.5496   -0.0234 H   0  0  0  0  0  0  0  0  0  0  0  0
    0.0050    1.9542    1.1011 H   0  0  0  0  0  0  0  0  0  0  0  0
    2.7961    1.0553   -0.9512 H   0  0  0  0  0  0  0  0  0  0  0  0
    2.0083   -0.5230   -1.0360 H   0  0  0  0  0  0  0  0  0  0  0  0
    4.3952   -0.8234   -0.6495 H   0  0  0  0  0  0  0  0  0  0  0  0
    3.5005   -1.3879    0.7381 H   0  0  0  0  0  0  0  0  0  0  0  0
    6.1866    1.7074    1.2062 H   0  0  0  0  0  0  0  0  0  0  0  0
    5.4454    1.5555   -0.3834 H   0  0  0  0  0  0  0  0  0  0  0  0
    7.0591    0.6636   -1.8767 H   0  0  0  0  0  0  0  0  0  0  0  0
    8.8597   -0.9366   -2.4094 H   0  0  0  0  0  0  0  0  0  0  0  0
    9.6791   -2.5180   -0.6835 H   0  0  0  0  0  0  0  0  0  0  0  0
    8.6852   -2.4959    1.5905 H   0  0  0  0  0  0  0  0  0  0  0  0
    6.8748   -0.9025    2.1398 H   0  0  0  0  0  0  0  0  0  0  0  0
    4.1248    1.6790    2.7146 H   0  0  0  0  0  0  0  0  0  0  0  0
    3.6725    2.3145    1.1304 H   0  0  0  0  0  0  0  0  0  0  0  0
    1.6897    1.6791    2.5267 H   0  0  0  0  0  0  0  0  0  0  0  0
    2.2578    0.0301    2.5893 H   0  0  0  0  0  0  0  0  0  0  0  0
   -5.5094    1.2367    0.3730 H   0  0  0  0  0  0  0  0  0  0  0  0
   -7.4521    2.6960    0.6163 H   0  0  0  0  0  0  0  0  0  0  0  0
   -9.6345    2.2092   -0.5163 H   0  0  0  0  0  0  0  0  0  0  0  0
  1  2  1  0
  2  3  1  0
  3  4  1  0
  4  5  2  0
  4  6  1  0
  6  7  1  0
  7  8  1  0
  8  9  1  0
  9 10  1  0
 10 11  1  0
 11 12  1  0
 12 13  1  0
 13 14  1  0
 14 15  2  0
 15 16  1  0
 16 17  2  0
 17 18  1  0
 18 19  2  0
 12 20  1  0
 20 21  1  0
  2 22  1  0
 22 23  2  0
 22 24  2  0
 22 25  1  0
 25 26  2  0
 26 27  1  0
 27 28  2  0
 28 29  1  0
 29 30  2  0
 30 31  1  0
 31 32  1  0
 32 33  2  0
 21  9  1  0
 33 25  1  0
 19 14  1  0
 33 29  1  0
  1 34  1  0
  1 35  1  0
  1 36  1  0
  3 37  1  0
  3 38  1  0
  6 39  1  0
  7 40  1  0
  7 41  1  0
  8 42  1  0
  8 43  1  0
 10 44  1  0
 10 45  1  0
 11 46  1  0
 11 47  1  0
 13 48  1  0
 13 49  1  0
 15 50  1  0
 16 51  1  0
 17 52  1  0
 18 53  1  0
 19 54  1  0
 20 55  1  0
 20 56  1  0
 21 57  1  0
 21 58  1  0
 26 59  1  0
 27 60  1  0
 28 61  1  0
M  END
$$$$
