
     RDKit          3D

 48 51  0  0  0  0  0  0  0  0999 V2000
   -4.3562   -4.8520   -0.2428 C   0  0  0  0  0  0  0  0  0  0  0  0
   -3.7061   -3.6320   -0.8717 C   0  0  0  0  0  0  0  0  0  0  0  0
   -2.3848   -3.2365   -0.1886 C   0  0  0  0  0  0  0  0  0  0  0  0
   -2.2963   -1.7386   -0.2248 C   0  0  0  0  0  0  0  0  0  0  0  0
   -1.1076   -1.1132   -0.0075 N   0  0  0  0  0  0  0  0  0  0  0  0
   -1.1238    0.1861   -0.0138 C   0  0  0  0  0  0  0  0  0  0  0  0
    0.4521    0.9565    0.1398 S   0  0  0  0  0  0  0  0  0  0  0  0
    1.4100   -0.1305   -0.9551 C   0  0  0  0  0  0  0  0  0  0  0  0
    2.7786    0.4773   -1.2127 C   0  0  0  0  0  0  0  0  0  0  0  0
    2.9383    1.2657   -2.1485 O   0  0  0  0  0  0  0  0  0  0  0  0
    3.8271    0.1122   -0.3828 N   0  0  0  0  0  0  0  0  0  0  0  0
    3.7200   -0.7624    0.7888 C   0  0  0  0  0  0  0  0  0  0  0  0
    4.8809   -0.5358    1.7626 C   0  0  0  0  0  0  0  0  0  0  0  0
    6.1674   -0.7435    1.1678 O   0  0  0  0  0  0  0  0  0  0  0  0
    6.2419   -0.3662   -0.2157 C   0  0  0  0  0  0  0  0  0  0  0  0
    5.1685    0.6357   -0.6512 C   0  0  0  0  0  0  0  0  0  0  0  0
   -2.2720    0.9708   -0.1977 N   0  0  0  0  0  0  0  0  0  0  0  0
   -2.2772    2.4005   -0.0603 C   0  0  0  0  0  0  0  0  0  0  0  0
   -2.8540    3.2103   -1.0502 C   0  0  0  0  0  0  0  0  0  0  0  0
   -2.8784    4.6005   -0.9130 C   0  0  0  0  0  0  0  0  0  0  0  0
   -2.3385    5.1995    0.2220 C   0  0  0  0  0  0  0  0  0  0  0  0
   -1.7828    4.4093    1.2245 C   0  0  0  0  0  0  0  0  0  0  0  0
   -1.7585    3.0186    1.0882 C   0  0  0  0  0  0  0  0  0  0  0  0
   -3.4952    0.3517   -0.5089 C   0  0  0  0  0  0  0  0  0  0  0  0
   -4.5540    0.9293   -0.7511 O   0  0  0  0  0  0  0  0  0  0  0  0
   -3.4457   -1.1242   -0.4911 C   0  0  0  0  0  0  0  0  0  0  0  0
   -4.7930   -2.1563   -0.7534 S   0  0  0  0  0  0  0  0  0  0  0  0
   -3.6861   -5.7165   -0.3086 H   0  0  0  0  0  0  0  0  0  0  0  0
   -5.2866   -5.1139   -0.7589 H   0  0  0  0  0  0  0  0  0  0  0  0
   -4.5864   -4.6912    0.8165 H   0  0  0  0  0  0  0  0  0  0  0  0
   -3.5251   -3.8197   -1.9366 H   0  0  0  0  0  0  0  0  0  0  0  0
   -1.5419   -3.6971   -0.7172 H   0  0  0  0  0  0  0  0  0  0  0  0
   -2.3475   -3.5778    0.8537 H   0  0  0  0  0  0  0  0  0  0  0  0
    0.9024   -0.2244   -1.9217 H   0  0  0  0  0  0  0  0  0  0  0  0
    1.5022   -1.1378   -0.5403 H   0  0  0  0  0  0  0  0  0  0  0  0
    3.7419   -1.7909    0.4115 H   0  0  0  0  0  0  0  0  0  0  0  0
    2.7681   -0.5999    1.2997 H   0  0  0  0  0  0  0  0  0  0  0  0
    4.7977   -1.2182    2.6141 H   0  0  0  0  0  0  0  0  0  0  0  0
    4.8555    0.4864    2.1581 H   0  0  0  0  0  0  0  0  0  0  0  0
    7.2406    0.0454   -0.3923 H   0  0  0  0  0  0  0  0  0  0  0  0
    6.1573   -1.2863   -0.8053 H   0  0  0  0  0  0  0  0  0  0  0  0
    5.2625    1.5663   -0.0797 H   0  0  0  0  0  0  0  0  0  0  0  0
    5.2832    0.8749   -1.7132 H   0  0  0  0  0  0  0  0  0  0  0  0
   -3.2829    2.7711   -1.9484 H   0  0  0  0  0  0  0  0  0  0  0  0
   -3.3240    5.2129   -1.6929 H   0  0  0  0  0  0  0  0  0  0  0  0
   -2.3607    6.2808    0.3292 H   0  0  0  0  0  0  0  0  0  0  0  0
   -1.3756    4.8738    2.1193 H   0  0  0  0  0  0  0  0  0  0  0  0
   -1.3553    2.4292    1.9078 H   0  0  0  0  0  0  0  0  0  0  0  0
  1  2  1  0
  2  3  1  0
  3  4  1  0
  4  5  1  0
  5  6  2  0
  6  7  1  0
  7  8  1  0
  8  9  1  0
  9 10  2  0
  9 11  1  0
 11 12  1  0
 12 13  1  0
 13 14  1  0
 14 15  1  0
 15 16  1  0
  6 17  1  0
 17 18  1  0
 18 19  2  0
 19 20  1  0
 20 21  2  0
 21 22  1  0
 22 23  2  0
 17 24  1  0
 24 25  2  0
 24 26  1  0
 26 27  1  0
 27  2  1  0
 26  4  2  0
 16 11  1  0
 23 18  1  0
  1 28  1  0
  1 29  1  0
  1 30  1  0
  2 31  1  0
  3 32  1  0
  3 33  1  0
  8 34  1  0
  8 35  1  0
 12 36  1  0
 12 37  1  0
 13 38  1  0
 13 39  1  0
 15 40  1  0
 15 41  1  0
 16 42  1  0
 16 43  1  0
 19 44  1  0
 20 45  1  0
 21 46  1  0
 22 47  1  0
 23 48  1  0
M  END
$$$$
