
     RDKit          3D

 52 53  0  0  0  0  0  0  0  0999 V2000
    7.1978    2.5988    3.0726 C   0  0  0  0  0  0  0  0  0  0  0  0
    6.2441    1.6388    2.4247 C   0  0  0  0  0  0  0  0  0  0  0  0
    6.4920    1.1592    1.1339 C   0  0  0  0  0  0  0  0  0  0  0  0
    5.5882    0.2902    0.5135 C   0  0  0  0  0  0  0  0  0  0  0  0
    4.4108   -0.1062    1.1659 C   0  0  0  0  0  0  0  0  0  0  0  0
    3.4439   -1.0001    0.5328 C   0  0  0  0  0  0  0  0  0  0  0  0
    2.3170   -1.4927    1.0174 N   0  0  0  0  0  0  0  0  0  0  0  0
    1.8017   -2.2465   -0.0150 C   0  0  0  0  0  0  0  0  0  0  0  0
    0.5133   -2.9528    0.1402 C   0  0  0  0  0  0  0  0  0  0  0  0
   -0.8605   -2.0182   -0.5111 S   0  0  0  0  0  6  0  0  0  0  0  0
   -2.0753   -2.6914   -0.0725 O   0  0  0  0  0  0  0  0  0  0  0  0
   -0.6315   -1.7989   -1.9277 O   0  0  0  0  0  0  0  0  0  0  0  0
   -0.7764   -0.4690    0.3442 C   0  0  0  0  0  0  0  0  0  0  0  0
   -1.9359    0.4037   -0.0385 C   0  0  0  0  0  0  0  0  0  0  0  0
   -1.7622    1.5321   -0.4944 O   0  0  0  0  0  0  0  0  0  0  0  0
   -3.1872   -0.0954    0.2560 N   0  0  0  0  0  0  0  0  0  0  0  0
   -4.3923    0.6146   -0.1315 C   0  0  0  0  0  0  0  0  0  0  0  0
   -4.6884    0.4460   -1.6229 C   0  0  0  0  0  0  0  0  0  0  0  0
   -6.0082    1.0754   -2.1045 C   0  0  0  0  0  0  0  0  0  0  0  0
   -6.0771    2.5757   -1.8252 C   0  0  0  0  0  0  0  0  0  0  0  0
   -7.2310    0.3633   -1.5253 C   0  0  0  0  0  0  0  0  0  0  0  0
    2.6476   -2.1778   -1.1010 C   0  0  0  0  0  0  0  0  0  0  0  0
    2.6311   -2.7159   -2.4740 C   0  0  0  0  0  0  0  0  0  0  0  0
    3.7023   -1.3814   -0.7589 O   0  0  0  0  0  0  0  0  0  0  0  0
    4.1638    0.3885    2.4547 C   0  0  0  0  0  0  0  0  0  0  0  0
    5.0677    1.2554    3.0767 C   0  0  0  0  0  0  0  0  0  0  0  0
    8.2322    2.3547    2.8077 H   0  0  0  0  0  0  0  0  0  0  0  0
    7.1217    2.5536    4.1643 H   0  0  0  0  0  0  0  0  0  0  0  0
    6.9779    3.6212    2.7476 H   0  0  0  0  0  0  0  0  0  0  0  0
    7.3908    1.4589    0.5998 H   0  0  0  0  0  0  0  0  0  0  0  0
    5.8135   -0.0692   -0.4890 H   0  0  0  0  0  0  0  0  0  0  0  0
    0.2997   -3.1490    1.1960 H   0  0  0  0  0  0  0  0  0  0  0  0
    0.5237   -3.9124   -0.3861 H   0  0  0  0  0  0  0  0  0  0  0  0
    0.1532    0.0321    0.0636 H   0  0  0  0  0  0  0  0  0  0  0  0
   -0.7932   -0.6539    1.4211 H   0  0  0  0  0  0  0  0  0  0  0  0
   -3.2783   -1.1037    0.3834 H   0  0  0  0  0  0  0  0  0  0  0  0
   -5.2018    0.2080    0.4823 H   0  0  0  0  0  0  0  0  0  0  0  0
   -4.2628    1.6719    0.1203 H   0  0  0  0  0  0  0  0  0  0  0  0
   -4.6940   -0.6254   -1.8703 H   0  0  0  0  0  0  0  0  0  0  0  0
   -3.8627    0.8801   -2.2044 H   0  0  0  0  0  0  0  0  0  0  0  0
   -6.0435    0.9420   -3.1937 H   0  0  0  0  0  0  0  0  0  0  0  0
   -6.1477    2.7879   -0.7521 H   0  0  0  0  0  0  0  0  0  0  0  0
   -5.1916    3.0871   -2.2204 H   0  0  0  0  0  0  0  0  0  0  0  0
   -6.9583    3.0161   -2.3053 H   0  0  0  0  0  0  0  0  0  0  0  0
   -8.1527    0.7716   -1.9534 H   0  0  0  0  0  0  0  0  0  0  0  0
   -7.2938    0.4701   -0.4380 H   0  0  0  0  0  0  0  0  0  0  0  0
   -7.2016   -0.7067   -1.7621 H   0  0  0  0  0  0  0  0  0  0  0  0
    2.1104   -3.6774   -2.5109 H   0  0  0  0  0  0  0  0  0  0  0  0
    3.6486   -2.8690   -2.8469 H   0  0  0  0  0  0  0  0  0  0  0  0
    2.1195   -2.0213   -3.1467 H   0  0  0  0  0  0  0  0  0  0  0  0
    3.2548    0.1037    2.9830 H   0  0  0  0  0  0  0  0  0  0  0  0
    4.8406    1.6338    4.0718 H   0  0  0  0  0  0  0  0  0  0  0  0
  1  2  1  0
  2  3  2  0
  3  4  1  0
  4  5  2  0
  5  6  1  0
  6  7  2  0
  7  8  1  0
  8  9  1  0
  9 10  1  0
 10 11  2  0
 10 12  2  0
 10 13  1  0
 13 14  1  0
 14 15  2  0
 14 16  1  0
 16 17  1  0
 17 18  1  0
 18 19  1  0
 19 20  1  0
 19 21  1  0
  8 22  2  0
 22 23  1  0
 22 24  1  0
  5 25  1  0
 25 26  2  0
 26  2  1  0
 24  6  1  0
  1 27  1  0
  1 28  1  0
  1 29  1  0
  3 30  1  0
  4 31  1  0
  9 32  1  0
  9 33  1  0
 13 34  1  0
 13 35  1  0
 16 36  1  0
 17 37  1  0
 17 38  1  0
 18 39  1  0
 18 40  1  0
 19 41  1  0
 20 42  1  0
 20 43  1  0
 20 44  1  0
 21 45  1  0
 21 46  1  0
 21 47  1  0
 23 48  1  0
 23 49  1  0
 23 50  1  0
 25 51  1  0
 26 52  1  0
M  END
$$$$
