
     RDKit          3D

 72 76  0  0  0  0  0  0  0  0999 V2000
   -9.9589    0.8351   -0.1782 C   0  0  0  0  0  0  0  0  0  0  0  0
   -9.0318    0.7943    0.8982 O   0  0  0  0  0  0  0  0  0  0  0  0
   -7.7070    0.6129    0.5863 C   0  0  0  0  0  0  0  0  0  0  0  0
   -7.2080    0.5200   -0.7182 C   0  0  0  0  0  0  0  0  0  0  0  0
   -5.8393    0.3554   -0.9408 C   0  0  0  0  0  0  0  0  0  0  0  0
   -4.9569    0.2715    0.1385 C   0  0  0  0  0  0  0  0  0  0  0  0
   -3.5339    0.1491   -0.1017 C   0  0  0  0  0  0  0  0  0  0  0  0
   -2.6345    1.0625   -0.6922 C   0  0  0  0  0  0  0  0  0  0  0  0
   -2.9228    2.4242   -1.2092 C   0  0  0  0  0  0  0  0  0  0  0  0
   -1.3921    0.5813   -0.7444 N   0  0  0  0  0  0  0  0  0  0  0  0
   -1.4579   -0.6707   -0.1956 N   0  0  0  0  0  0  0  0  0  0  0  0
   -0.4031   -1.6309   -0.0267 C   0  0  0  0  0  0  0  0  0  0  0  0
    0.9195   -1.3625   -0.4828 N   0  0  0  0  0  0  0  0  0  0  0  0
    2.0972   -2.0525    0.0649 C   0  0  0  0  0  0  0  0  0  0  0  0
    3.3254   -1.1478    0.0638 C   0  0  0  0  0  0  0  0  0  0  0  0
    3.7039   -0.6795   -1.3493 C   0  0  0  0  0  0  0  0  0  0  0  0
    4.3256    0.7193   -1.2741 C   0  0  0  0  0  0  0  0  0  0  0  0
    3.7056    1.7084   -1.6718 O   0  0  0  0  0  0  0  0  0  0  0  0
    5.5877    0.8414   -0.6928 N   0  0  0  0  0  0  0  0  0  0  0  0
    6.5812   -0.2383   -0.6996 C   0  0  0  0  0  0  0  0  0  0  0  0
    7.7061   -0.0254    0.3318 C   0  0  0  0  0  0  0  0  0  0  0  0
    8.3343    1.3069    0.3143 N   0  0  0  0  0  0  0  0  0  0  0  0
    9.1978    1.4924   -0.8501 C   0  0  0  0  0  0  0  0  0  0  0  0
    7.2836    2.3416    0.3868 C   0  0  0  0  0  0  0  0  0  0  0  0
    6.1534    2.1939   -0.6500 C   0  0  0  0  0  0  0  0  0  0  0  0
    2.4836   -0.6921   -2.2845 C   0  0  0  0  0  0  0  0  0  0  0  0
    1.1948   -0.3587   -1.5363 C   0  0  0  0  0  0  0  0  0  0  0  0
   -0.7335   -2.7910    0.5798 C   0  0  0  0  0  0  0  0  0  0  0  0
   -2.1460   -2.9879    1.0149 C   0  0  0  0  0  0  0  0  0  0  0  0
   -2.4844   -4.2942    1.6913 C   0  0  0  0  0  0  0  0  0  0  0  0
   -3.1027   -2.1254    0.8544 N   0  0  0  0  0  0  0  0  0  0  0  0
   -2.7686   -0.9496    0.2398 C   0  0  0  0  0  0  0  0  0  0  0  0
   -5.4505    0.3501    1.4467 C   0  0  0  0  0  0  0  0  0  0  0  0
   -6.8191    0.5304    1.6788 C   0  0  0  0  0  0  0  0  0  0  0  0
   -7.3860    0.6367    2.9276 O   0  0  0  0  0  0  0  0  0  0  0  0
   -6.5049    0.6900    4.0418 C   0  0  0  0  0  0  0  0  0  0  0  0
  -10.9608    0.9585    0.2452 H   0  0  0  0  0  0  0  0  0  0  0  0
   -9.9532   -0.1045   -0.7406 H   0  0  0  0  0  0  0  0  0  0  0  0
   -9.7672    1.6947   -0.8310 H   0  0  0  0  0  0  0  0  0  0  0  0
   -7.8556    0.5764   -1.5851 H   0  0  0  0  0  0  0  0  0  0  0  0
   -5.4685    0.2871   -1.9613 H   0  0  0  0  0  0  0  0  0  0  0  0
   -2.0001    2.9807   -1.4093 H   0  0  0  0  0  0  0  0  0  0  0  0
   -3.4910    2.3646   -2.1441 H   0  0  0  0  0  0  0  0  0  0  0  0
   -3.5082    2.9963   -0.4808 H   0  0  0  0  0  0  0  0  0  0  0  0
    2.2909   -2.9614   -0.5170 H   0  0  0  0  0  0  0  0  0  0  0  0
    1.9151   -2.3595    1.1019 H   0  0  0  0  0  0  0  0  0  0  0  0
    3.1309   -0.2845    0.7144 H   0  0  0  0  0  0  0  0  0  0  0  0
    4.1665   -1.6855    0.5153 H   0  0  0  0  0  0  0  0  0  0  0  0
    4.4376   -1.3580   -1.7986 H   0  0  0  0  0  0  0  0  0  0  0  0
    6.1095   -1.1994   -0.4976 H   0  0  0  0  0  0  0  0  0  0  0  0
    6.9915   -0.2935   -1.7152 H   0  0  0  0  0  0  0  0  0  0  0  0
    8.4683   -0.8031    0.2095 H   0  0  0  0  0  0  0  0  0  0  0  0
    7.2886   -0.1787    1.3350 H   0  0  0  0  0  0  0  0  0  0  0  0
    8.6590    1.4668   -1.8039 H   0  0  0  0  0  0  0  0  0  0  0  0
    9.9728    0.7185   -0.8782 H   0  0  0  0  0  0  0  0  0  0  0  0
    9.7237    2.4517   -0.7804 H   0  0  0  0  0  0  0  0  0  0  0  0
    7.7252    3.3417    0.3128 H   0  0  0  0  0  0  0  0  0  0  0  0
    6.8369    2.2903    1.3896 H   0  0  0  0  0  0  0  0  0  0  0  0
    5.3613    2.9161   -0.4172 H   0  0  0  0  0  0  0  0  0  0  0  0
    6.5200    2.4260   -1.6574 H   0  0  0  0  0  0  0  0  0  0  0  0
    2.6170    0.0031   -3.1219 H   0  0  0  0  0  0  0  0  0  0  0  0
    2.3848   -1.6914   -2.7319 H   0  0  0  0  0  0  0  0  0  0  0  0
    0.3887   -0.3650   -2.2795 H   0  0  0  0  0  0  0  0  0  0  0  0
    1.2583    0.6409   -1.0902 H   0  0  0  0  0  0  0  0  0  0  0  0
   -0.0335   -3.5957    0.7453 H   0  0  0  0  0  0  0  0  0  0  0  0
   -1.6082   -4.9411    1.7828 H   0  0  0  0  0  0  0  0  0  0  0  0
   -2.8787   -4.0907    2.6925 H   0  0  0  0  0  0  0  0  0  0  0  0
   -3.2486   -4.8166    1.1065 H   0  0  0  0  0  0  0  0  0  0  0  0
   -4.7442    0.2728    2.2672 H   0  0  0  0  0  0  0  0  0  0  0  0
   -5.9688   -0.2579    4.1624 H   0  0  0  0  0  0  0  0  0  0  0  0
   -5.8092    1.5315    3.9588 H   0  0  0  0  0  0  0  0  0  0  0  0
   -7.1089    0.8498    4.9409 H   0  0  0  0  0  0  0  0  0  0  0  0
  1  2  1  0
  2  3  1  0
  3  4  2  0
  4  5  1  0
  5  6  2  0
  6  7  1  0
  7  8  1  0
  8  9  1  0
  8 10  2  0
 10 11  1  0
 11 12  1  0
 12 13  1  0
 13 14  1  0
 14 15  1  0
 15 16  1  0
 16 17  1  0
 17 18  2  0
 17 19  1  0
 19 20  1  0
 20 21  1  0
 21 22  1  0
 22 23  1  0
 22 24  1  0
 24 25  1  0
 16 26  1  0
 26 27  1  0
 12 28  2  0
 28 29  1  0
 29 30  1  0
 29 31  2  0
 31 32  1  0
  6 33  1  0
 33 34  2  0
 34 35  1  0
 35 36  1  0
 34  3  1  0
 32  7  2  0
 32 11  1  0
 27 13  1  0
 25 19  1  0
  1 37  1  0
  1 38  1  0
  1 39  1  0
  4 40  1  0
  5 41  1  0
  9 42  1  0
  9 43  1  0
  9 44  1  0
 14 45  1  0
 14 46  1  0
 15 47  1  0
 15 48  1  0
 16 49  1  0
 20 50  1  0
 20 51  1  0
 21 52  1  0
 21 53  1  0
 23 54  1  0
 23 55  1  0
 23 56  1  0
 24 57  1  0
 24 58  1  0
 25 59  1  0
 25 60  1  0
 26 61  1  0
 26 62  1  0
 27 63  1  0
 27 64  1  0
 28 65  1  0
 30 66  1  0
 30 67  1  0
 30 68  1  0
 33 69  1  0
 36 70  1  0
 36 71  1  0
 36 72  1  0
M  END
$$$$
