
     RDKit          3D

 50 52  0  0  0  0  0  0  0  0999 V2000
   -6.6704    0.9640    1.4696 C   0  0  0  0  0  0  0  0  0  0  0  0
   -5.3273    1.5269    1.1055 C   0  0  0  0  0  0  0  0  0  0  0  0
   -5.0733    2.8921    1.2200 C   0  0  0  0  0  0  0  0  0  0  0  0
   -3.8313    3.3947    0.8527 C   0  0  0  0  0  0  0  0  0  0  0  0
   -2.8387    2.5380    0.3614 C   0  0  0  0  0  0  0  0  0  0  0  0
   -3.0567    1.1577    0.2194 C   0  0  0  0  0  0  0  0  0  0  0  0
   -2.0407    0.2846   -0.2889 N   0  0  0  0  0  0  0  0  0  0  0  0
   -0.7190    0.6280   -0.4885 C   0  0  0  0  0  0  0  0  0  0  0  0
   -0.1535    1.6869   -0.2344 O   0  0  0  0  0  0  0  0  0  0  0  0
    0.0516   -0.5716   -1.0390 C   0  0  0  0  0  0  0  0  0  0  0  0
    1.1750   -0.9078   -0.0622 C   0  0  0  0  0  0  0  0  0  0  0  0
    2.4466   -0.1667   -0.4354 C   0  0  0  0  0  0  0  0  0  0  0  0
    2.6925    0.1204   -1.6016 O   0  0  0  0  0  0  0  0  0  0  0  0
    3.2690    0.0437    0.6581 N   0  0  0  0  0  0  0  0  0  0  0  0
    4.5365    0.6643    0.6736 C   0  0  0  0  0  0  0  0  0  0  0  0
    5.1771    0.7757    1.9155 C   0  0  0  0  0  0  0  0  0  0  0  0
    6.4358    1.3741    2.0195 C   0  0  0  0  0  0  0  0  0  0  0  0
    7.0672    1.8674    0.8817 C   0  0  0  0  0  0  0  0  0  0  0  0
    6.4384    1.7631   -0.3565 C   0  0  0  0  0  0  0  0  0  0  0  0
    5.1781    1.1650   -0.4606 C   0  0  0  0  0  0  0  0  0  0  0  0
   -1.0101   -1.5558   -1.0893 N   0  0  0  0  0  0  0  0  0  0  0  0
   -0.8906   -2.8993   -1.6690 C   0  0  0  0  0  0  0  0  0  0  0  0
   -0.7554   -3.9581   -0.5733 C   0  0  0  0  0  0  0  0  0  0  0  0
    0.2273   -3.0342   -2.7021 C   0  0  0  0  0  0  0  0  0  0  0  0
   -2.2246   -1.0376   -0.6440 C   0  0  0  0  0  0  0  0  0  0  0  0
   -3.2481   -1.7071   -0.6252 O   0  0  0  0  0  0  0  0  0  0  0  0
   -4.3243    0.6789    0.5981 C   0  0  0  0  0  0  0  0  0  0  0  0
   -7.2248    1.6489    2.1202 H   0  0  0  0  0  0  0  0  0  0  0  0
   -6.5570    0.0192    2.0120 H   0  0  0  0  0  0  0  0  0  0  0  0
   -7.2606    0.7898    0.5643 H   0  0  0  0  0  0  0  0  0  0  0  0
   -5.8372    3.5704    1.5924 H   0  0  0  0  0  0  0  0  0  0  0  0
   -3.6284    4.4597    0.9389 H   0  0  0  0  0  0  0  0  0  0  0  0
   -1.9020    3.0062    0.0749 H   0  0  0  0  0  0  0  0  0  0  0  0
    0.3663   -0.3428   -2.0614 H   0  0  0  0  0  0  0  0  0  0  0  0
    1.4292   -1.9714   -0.0960 H   0  0  0  0  0  0  0  0  0  0  0  0
    0.8858   -0.6764    0.9702 H   0  0  0  0  0  0  0  0  0  0  0  0
    2.9221   -0.2542    1.5609 H   0  0  0  0  0  0  0  0  0  0  0  0
    4.7066    0.4032    2.8212 H   0  0  0  0  0  0  0  0  0  0  0  0
    6.9210    1.4562    2.9886 H   0  0  0  0  0  0  0  0  0  0  0  0
    8.0454    2.3348    0.9578 H   0  0  0  0  0  0  0  0  0  0  0  0
    6.9243    2.1508   -1.2487 H   0  0  0  0  0  0  0  0  0  0  0  0
    4.7256    1.1098   -1.4454 H   0  0  0  0  0  0  0  0  0  0  0  0
   -1.8370   -3.0989   -2.1879 H   0  0  0  0  0  0  0  0  0  0  0  0
   -1.5870   -3.8978    0.1368 H   0  0  0  0  0  0  0  0  0  0  0  0
   -0.7561   -4.9646   -1.0049 H   0  0  0  0  0  0  0  0  0  0  0  0
    0.1710   -3.8373   -0.0043 H   0  0  0  0  0  0  0  0  0  0  0  0
    0.2123   -4.0303   -3.1577 H   0  0  0  0  0  0  0  0  0  0  0  0
    1.2169   -2.8876   -2.2589 H   0  0  0  0  0  0  0  0  0  0  0  0
    0.1054   -2.2992   -3.5051 H   0  0  0  0  0  0  0  0  0  0  0  0
   -4.5728   -0.3760    0.5266 H   0  0  0  0  0  0  0  0  0  0  0  0
  1  2  1  0
  2  3  2  0
  3  4  1  0
  4  5  2  0
  5  6  1  0
  6  7  1  0
  7  8  1  0
  8  9  2  0
  8 10  1  0
 10 11  1  0
 11 12  1  0
 12 13  2  0
 12 14  1  0
 14 15  1  0
 15 16  2  0
 16 17  1  0
 17 18  2  0
 18 19  1  0
 19 20  2  0
 10 21  1  0
 21 22  1  0
 22 23  1  0
 22 24  1  0
 21 25  1  0
 25 26  2  0
  6 27  2  0
 27  2  1  0
 25  7  1  0
 20 15  1  0
  1 28  1  0
  1 29  1  0
  1 30  1  0
  3 31  1  0
  4 32  1  0
  5 33  1  0
 10 34  1  0
 11 35  1  0
 11 36  1  0
 14 37  1  0
 16 38  1  0
 17 39  1  0
 18 40  1  0
 19 41  1  0
 20 42  1  0
 22 43  1  0
 23 44  1  0
 23 45  1  0
 23 46  1  0
 24 47  1  0
 24 48  1  0
 24 49  1  0
 27 50  1  0
M  END
$$$$
