
     RDKit          3D

 58 60  0  0  0  0  0  0  0  0999 V2000
    0.2504    4.1255    0.3369 C   0  0  0  0  0  0  0  0  0  0  0  0
    0.5018    3.6942   -1.1056 C   0  0  0  0  0  0  0  0  0  0  0  0
    0.6168    2.2234   -1.2044 N   0  0  0  0  0  0  0  0  0  0  0  0
   -0.4954    1.4488   -1.5123 C   0  0  0  0  0  0  0  0  0  0  0  0
   -0.5265    0.1132   -1.6009 C   0  0  0  0  0  0  0  0  0  0  0  0
   -1.8106   -0.5443   -1.9017 C   0  0  0  0  0  0  0  0  0  0  0  0
   -2.3117   -0.4901   -3.0256 O   0  0  0  0  0  0  0  0  0  0  0  0
   -2.3878   -1.1352   -0.7979 N   0  0  0  0  0  0  0  0  0  0  0  0
   -3.7133   -1.7428   -0.8416 C   0  0  0  0  0  0  0  0  0  0  0  0
   -3.8410   -2.8372    0.2318 C   0  0  0  0  0  0  0  0  0  0  0  0
   -4.6058   -2.5076    1.5074 C   0  0  0  0  0  0  0  0  0  0  0  0
   -4.2222   -1.1869    2.1721 C   0  0  0  0  0  0  0  0  0  0  0  0
   -5.0283   -0.0036    1.6421 C   0  0  0  0  0  0  0  0  0  0  0  0
   -4.7035    0.4184    0.2118 C   0  0  0  0  0  0  0  0  0  0  0  0
   -4.8321   -0.6829   -0.8433 C   0  0  0  0  0  0  0  0  0  0  0  0
    0.7174   -0.6287   -1.3446 C   0  0  0  0  0  0  0  0  0  0  0  0
    0.7470   -1.8523   -1.3103 O   0  0  0  0  0  0  0  0  0  0  0  0
    1.9449    0.1701   -1.0895 C   0  0  0  0  0  0  0  0  0  0  0  0
    3.1587   -0.5163   -0.9268 C   0  0  0  0  0  0  0  0  0  0  0  0
    4.3121    0.2006   -0.6180 C   0  0  0  0  0  0  0  0  0  0  0  0
    5.8632   -0.6603   -0.4337 S   0  0  0  0  0  6  0  0  0  0  0  0
    5.8296   -1.7953   -1.3333 O   0  0  0  0  0  0  0  0  0  0  0  0
    6.9159    0.3345   -0.5195 O   0  0  0  0  0  0  0  0  0  0  0  0
    5.8059   -1.2265    1.1719 N   0  0  0  0  0  0  0  0  0  0  0  0
    5.8482   -0.2110    2.2406 C   0  0  0  0  0  0  0  0  0  0  0  0
    4.8850   -2.3397    1.4635 C   0  0  0  0  0  0  0  0  0  0  0  0
    4.2655    1.5919   -0.5102 C   0  0  0  0  0  0  0  0  0  0  0  0
    3.0496    2.2695   -0.6914 C   0  0  0  0  0  0  0  0  0  0  0  0
    1.8603    1.5817   -0.9925 C   0  0  0  0  0  0  0  0  0  0  0  0
   -0.6719    3.6805    0.7260 H   0  0  0  0  0  0  0  0  0  0  0  0
    1.0669    3.8210    0.9994 H   0  0  0  0  0  0  0  0  0  0  0  0
    0.1500    5.2177    0.3955 H   0  0  0  0  0  0  0  0  0  0  0  0
    1.3749    4.2049   -1.5263 H   0  0  0  0  0  0  0  0  0  0  0  0
   -0.3385    4.0427   -1.7216 H   0  0  0  0  0  0  0  0  0  0  0  0
   -1.4031    2.0263   -1.6871 H   0  0  0  0  0  0  0  0  0  0  0  0
   -1.9291   -1.0416    0.0969 H   0  0  0  0  0  0  0  0  0  0  0  0
   -3.7655   -2.2557   -1.8124 H   0  0  0  0  0  0  0  0  0  0  0  0
   -2.8449   -3.2002    0.5024 H   0  0  0  0  0  0  0  0  0  0  0  0
   -4.3495   -3.6996   -0.2130 H   0  0  0  0  0  0  0  0  0  0  0  0
   -4.4217   -3.3215    2.2188 H   0  0  0  0  0  0  0  0  0  0  0  0
   -5.6823   -2.5345    1.3068 H   0  0  0  0  0  0  0  0  0  0  0  0
   -4.4403   -1.2743    3.2472 H   0  0  0  0  0  0  0  0  0  0  0  0
   -3.1467   -0.9978    2.0927 H   0  0  0  0  0  0  0  0  0  0  0  0
   -4.8515    0.8598    2.3043 H   0  0  0  0  0  0  0  0  0  0  0  0
   -6.1029   -0.2241    1.7168 H   0  0  0  0  0  0  0  0  0  0  0  0
   -5.3923    1.2280   -0.0573 H   0  0  0  0  0  0  0  0  0  0  0  0
   -3.7029    0.8638    0.1792 H   0  0  0  0  0  0  0  0  0  0  0  0
   -4.8227   -0.1796   -1.8250 H   0  0  0  0  0  0  0  0  0  0  0  0
   -5.8149   -1.1677   -0.7688 H   0  0  0  0  0  0  0  0  0  0  0  0
    3.1932   -1.5997   -1.0447 H   0  0  0  0  0  0  0  0  0  0  0  0
    6.1379   -0.6865    3.1859 H   0  0  0  0  0  0  0  0  0  0  0  0
    4.8677    0.2560    2.3704 H   0  0  0  0  0  0  0  0  0  0  0  0
    6.5945    0.5653    2.0351 H   0  0  0  0  0  0  0  0  0  0  0  0
    5.1825   -2.8144    2.4070 H   0  0  0  0  0  0  0  0  0  0  0  0
    4.9235   -3.1162    0.6914 H   0  0  0  0  0  0  0  0  0  0  0  0
    3.8550   -1.9794    1.5673 H   0  0  0  0  0  0  0  0  0  0  0  0
    5.1687    2.1631   -0.2977 H   0  0  0  0  0  0  0  0  0  0  0  0
    3.0719    3.3523   -0.5905 H   0  0  0  0  0  0  0  0  0  0  0  0
  1  2  1  0
  2  3  1  0
  3  4  1  0
  4  5  2  0
  5  6  1  0
  6  7  2  0
  6  8  1  0
  8  9  1  0
  9 10  1  0
 10 11  1  0
 11 12  1  0
 12 13  1  0
 13 14  1  0
 14 15  1  0
  5 16  1  0
 16 17  2  0
 16 18  1  0
 18 19  2  0
 19 20  1  0
 20 21  1  0
 21 22  2  0
 21 23  2  0
 21 24  1  0
 24 25  1  0
 24 26  1  0
 20 27  2  0
 27 28  1  0
 28 29  2  0
 29  3  1  0
 15  9  1  0
 29 18  1  0
  1 30  1  0
  1 31  1  0
  1 32  1  0
  2 33  1  0
  2 34  1  0
  4 35  1  0
  8 36  1  0
  9 37  1  0
 10 38  1  0
 10 39  1  0
 11 40  1  0
 11 41  1  0
 12 42  1  0
 12 43  1  0
 13 44  1  0
 13 45  1  0
 14 46  1  0
 14 47  1  0
 15 48  1  0
 15 49  1  0
 19 50  1  0
 25 51  1  0
 25 52  1  0
 25 53  1  0
 26 54  1  0
 26 55  1  0
 26 56  1  0
 27 57  1  0
 28 58  1  0
M  END
$$$$
