
     RDKit          3D

 44 46  0  0  0  0  0  0  0  0999 V2000
    8.9856    0.7554    0.0181 C   0  0  0  0  0  0  0  0  0  0  0  0
    7.5112    1.1029    0.1200 C   0  0  0  0  0  0  0  0  0  0  0  0
    6.7608   -0.0804   -0.1457 O   0  0  0  0  0  0  0  0  0  0  0  0
    5.3989    0.0227   -0.1092 C   0  0  0  0  0  0  0  0  0  0  0  0
    4.7143   -1.1607   -0.3867 C   0  0  0  0  0  0  0  0  0  0  0  0
    3.3147   -1.2021   -0.3843 C   0  0  0  0  0  0  0  0  0  0  0  0
    2.5774   -0.0531   -0.1045 C   0  0  0  0  0  0  0  0  0  0  0  0
    1.1674   -0.0003   -0.0728 N   0  0  0  0  0  0  0  0  0  0  0  0
    0.2768   -1.0158   -0.3826 C   0  0  0  0  0  0  0  0  0  0  0  0
    0.5850   -2.1297   -0.7933 O   0  0  0  0  0  0  0  0  0  0  0  0
   -1.1250   -0.6501   -0.1927 C   0  0  0  0  0  0  0  0  0  0  0  0
   -1.7033    0.3743    0.5862 C   0  0  0  0  0  0  0  0  0  0  0  0
   -3.0336    0.4090    0.5245 N   0  0  0  0  0  0  0  0  0  0  0  0
   -3.3636   -0.6419   -0.2834 N   0  0  0  0  0  0  0  0  0  0  0  0
   -4.7207   -0.9819   -0.5088 C   0  0  0  0  0  0  0  0  0  0  0  0
   -4.9501   -2.0395   -1.1034 O   0  0  0  0  0  0  0  0  0  0  0  0
   -5.8929   -0.1795   -0.0592 C   0  0  0  0  0  0  0  0  0  0  0  0
   -7.0762   -0.8597    0.2655 C   0  0  0  0  0  0  0  0  0  0  0  0
   -8.2094   -0.1520    0.6705 C   0  0  0  0  0  0  0  0  0  0  0  0
   -8.1717    1.2391    0.7431 C   0  0  0  0  0  0  0  0  0  0  0  0
   -7.0052    1.9238    0.4046 C   0  0  0  0  0  0  0  0  0  0  0  0
   -5.8690    1.2187   -0.0017 C   0  0  0  0  0  0  0  0  0  0  0  0
   -2.2175   -1.2924   -0.7494 C   0  0  0  0  0  0  0  0  0  0  0  0
   -2.2620   -2.3467   -1.6026 N   0  0  0  0  0  0  0  0  0  0  0  0
    3.2670    1.1334    0.1775 C   0  0  0  0  0  0  0  0  0  0  0  0
    4.6679    1.1733    0.1745 C   0  0  0  0  0  0  0  0  0  0  0  0
    9.6076    1.6332    0.2145 H   0  0  0  0  0  0  0  0  0  0  0  0
    9.2227    0.3696   -0.9789 H   0  0  0  0  0  0  0  0  0  0  0  0
    9.2467   -0.0307    0.7344 H   0  0  0  0  0  0  0  0  0  0  0  0
    7.2990    1.4688    1.1312 H   0  0  0  0  0  0  0  0  0  0  0  0
    7.2745    1.8777   -0.6185 H   0  0  0  0  0  0  0  0  0  0  0  0
    5.2736   -2.0670   -0.6084 H   0  0  0  0  0  0  0  0  0  0  0  0
    2.8407   -2.1534   -0.6031 H   0  0  0  0  0  0  0  0  0  0  0  0
    0.7754    0.9042    0.1425 H   0  0  0  0  0  0  0  0  0  0  0  0
   -1.2093    1.1042    1.2148 H   0  0  0  0  0  0  0  0  0  0  0  0
   -7.1199   -1.9456    0.2041 H   0  0  0  0  0  0  0  0  0  0  0  0
   -9.1213   -0.6866    0.9250 H   0  0  0  0  0  0  0  0  0  0  0  0
   -9.0543    1.7910    1.0573 H   0  0  0  0  0  0  0  0  0  0  0  0
   -6.9804    3.0099    0.4525 H   0  0  0  0  0  0  0  0  0  0  0  0
   -4.9813    1.7807   -0.2792 H   0  0  0  0  0  0  0  0  0  0  0  0
   -3.1458   -2.8492   -1.7370 H   0  0  0  0  0  0  0  0  0  0  0  0
   -1.4357   -2.9417   -1.6991 H   0  0  0  0  0  0  0  0  0  0  0  0
    2.7284    2.0504    0.4028 H   0  0  0  0  0  0  0  0  0  0  0  0
    5.1524    2.1178    0.3977 H   0  0  0  0  0  0  0  0  0  0  0  0
  1  2  1  0
  2  3  1  0
  3  4  1  0
  4  5  2  0
  5  6  1  0
  6  7  2  0
  7  8  1  0
  8  9  1  0
  9 10  2  0
  9 11  1  0
 11 12  1  0
 12 13  2  0
 13 14  1  0
 14 15  1  0
 15 16  2  0
 15 17  1  0
 17 18  2  0
 18 19  1  0
 19 20  2  0
 20 21  1  0
 21 22  2  0
 14 23  1  0
 23 24  1  0
  7 25  1  0
 25 26  2  0
 26  4  1  0
 23 11  2  0
 22 17  1  0
  1 27  1  0
  1 28  1  0
  1 29  1  0
  2 30  1  0
  2 31  1  0
  5 32  1  0
  6 33  1  0
  8 34  1  0
 12 35  1  0
 18 36  1  0
 19 37  1  0
 20 38  1  0
 21 39  1  0
 22 40  1  0
 24 41  1  0
 24 42  1  0
 25 43  1  0
 26 44  1  0
M  END
$$$$
