
     RDKit          3D

 30 32  0  0  0  0  0  0  0  0999 V2000
   -6.8525    3.3807   -2.2074 N   0  0  0  0  0  0  0  0  0  0  0  0
   -5.8744    2.8082   -1.9575 C   0  0  0  0  0  0  0  0  0  0  0  0
   -4.6622    2.1101   -1.6440 C   0  0  0  0  0  0  0  0  0  0  0  0
   -3.5893    2.7892   -1.0631 C   0  0  0  0  0  0  0  0  0  0  0  0
   -2.4074    2.1045   -0.7580 C   0  0  0  0  0  0  0  0  0  0  0  0
   -2.2800    0.7350   -1.0297 C   0  0  0  0  0  0  0  0  0  0  0  0
   -1.0540    0.1254   -0.6860 N   0  0  0  0  0  0  0  0  0  0  0  0
   -0.6740   -1.1958   -0.8999 C   0  0  0  0  0  0  0  0  0  0  0  0
   -1.3650   -2.0342   -1.4699 O   0  0  0  0  0  0  0  0  0  0  0  0
    0.6697   -1.5262   -0.3857 C   0  0  0  0  0  0  0  0  0  0  0  0
    1.5126   -0.7924    0.4938 C   0  0  0  0  0  0  0  0  0  0  0  0
    2.6492   -1.5568    0.6466 C   0  0  0  0  0  0  0  0  0  0  0  0
    3.8135   -1.2800    1.4278 C   0  0  0  0  0  0  0  0  0  0  0  0
    4.9503   -2.0542    1.5893 C   0  0  0  0  0  0  0  0  0  0  0  0
    5.8177   -1.3491    2.4582 C   0  0  0  0  0  0  0  0  0  0  0  0
    5.1659   -0.1843    2.7799 C   0  0  0  0  0  0  0  0  0  0  0  0
    3.9577   -0.1309    2.1646 O   0  0  0  0  0  0  0  0  0  0  0  0
    2.4941   -2.6882   -0.0988 O   0  0  0  0  0  0  0  0  0  0  0  0
    1.2714   -2.6759   -0.7338 N   0  0  0  0  0  0  0  0  0  0  0  0
   -3.3588    0.0630   -1.6084 C   0  0  0  0  0  0  0  0  0  0  0  0
   -4.5434    0.7458   -1.9150 C   0  0  0  0  0  0  0  0  0  0  0  0
   -3.6636    3.8530   -0.8440 H   0  0  0  0  0  0  0  0  0  0  0  0
   -1.5907    2.6631   -0.3066 H   0  0  0  0  0  0  0  0  0  0  0  0
   -0.3666    0.7405   -0.2761 H   0  0  0  0  0  0  0  0  0  0  0  0
    1.3332    0.1568    0.9750 H   0  0  0  0  0  0  0  0  0  0  0  0
    5.1272   -3.0179    1.1302 H   0  0  0  0  0  0  0  0  0  0  0  0
    6.7951   -1.6532    2.8061 H   0  0  0  0  0  0  0  0  0  0  0  0
    5.4132    0.6654    3.4013 H   0  0  0  0  0  0  0  0  0  0  0  0
   -3.3206   -0.9983   -1.8367 H   0  0  0  0  0  0  0  0  0  0  0  0
   -5.3682    0.1966   -2.3668 H   0  0  0  0  0  0  0  0  0  0  0  0
  1  2  3  0
  2  3  1  0
  3  4  2  0
  4  5  1  0
  5  6  2  0
  6  7  1  0
  7  8  1  0
  8  9  2  0
  8 10  1  0
 10 11  1  0
 11 12  2  0
 12 13  1  0
 13 14  2  0
 14 15  1  0
 15 16  2  0
 16 17  1  0
 12 18  1  0
 18 19  1  0
  6 20  1  0
 20 21  2  0
 21  3  1  0
 19 10  2  0
 17 13  1  0
  4 22  1  0
  5 23  1  0
  7 24  1  0
 11 25  1  0
 14 26  1  0
 15 27  1  0
 16 28  1  0
 20 29  1  0
 21 30  1  0
M  END
$$$$
