
     RDKit          3D

 35 37  0  0  0  0  0  0  0  0999 V2000
    6.5801   -0.4547    0.3986 C   0  0  0  0  0  0  0  0  0  0  0  0
    5.4193    0.2205   -0.2886 C   0  0  0  0  0  0  0  0  0  0  0  0
    5.6079    1.0815   -1.1398 O   0  0  0  0  0  0  0  0  0  0  0  0
    4.1972   -0.2294    0.1800 N   0  0  0  0  0  0  0  0  0  0  0  0
    2.9152    0.1868   -0.2355 C   0  0  0  0  0  0  0  0  0  0  0  0
    2.6852    1.1384   -1.2237 C   0  0  0  0  0  0  0  0  0  0  0  0
    1.3759    1.4881   -1.5707 C   0  0  0  0  0  0  0  0  0  0  0  0
    0.2835    0.9040   -0.9488 C   0  0  0  0  0  0  0  0  0  0  0  0
   -0.9600    1.2627   -1.3064 N   0  0  0  0  0  0  0  0  0  0  0  0
   -1.9788    0.6448   -0.6509 C   0  0  0  0  0  0  0  0  0  0  0  0
   -3.3605    1.0127   -1.0108 C   0  0  0  0  0  0  0  0  0  0  0  0
   -3.5696    1.9000   -1.8355 O   0  0  0  0  0  0  0  0  0  0  0  0
   -4.3765    0.3142   -0.3626 N   0  0  0  0  0  0  0  0  0  0  0  0
   -5.7483    0.6505   -0.7021 C   0  0  0  0  0  0  0  0  0  0  0  0
   -4.1836   -0.5988    0.6691 C   0  0  0  0  0  0  0  0  0  0  0  0
   -5.1329   -1.1028    1.2715 O   0  0  0  0  0  0  0  0  0  0  0  0
   -2.8730   -0.9045    0.9850 N   0  0  0  0  0  0  0  0  0  0  0  0
   -2.5798   -1.8682    2.0348 C   0  0  0  0  0  0  0  0  0  0  0  0
   -1.7795   -0.3035    0.3330 C   0  0  0  0  0  0  0  0  0  0  0  0
   -0.5208   -0.6640    0.6934 N   0  0  0  0  0  0  0  0  0  0  0  0
    0.5069   -0.0646    0.0563 C   0  0  0  0  0  0  0  0  0  0  0  0
    1.8126   -0.4042    0.3930 C   0  0  0  0  0  0  0  0  0  0  0  0
    6.3615   -1.5090    0.5915 H   0  0  0  0  0  0  0  0  0  0  0  0
    7.4625   -0.4046   -0.2458 H   0  0  0  0  0  0  0  0  0  0  0  0
    6.7894    0.0565    1.3419 H   0  0  0  0  0  0  0  0  0  0  0  0
    4.2252   -0.9314    0.9098 H   0  0  0  0  0  0  0  0  0  0  0  0
    3.4968    1.6326   -1.7497 H   0  0  0  0  0  0  0  0  0  0  0  0
    1.2098    2.2343   -2.3451 H   0  0  0  0  0  0  0  0  0  0  0  0
   -5.8215    1.0997   -1.6964 H   0  0  0  0  0  0  0  0  0  0  0  0
   -6.3779   -0.2444   -0.6763 H   0  0  0  0  0  0  0  0  0  0  0  0
   -6.1207    1.3637    0.0402 H   0  0  0  0  0  0  0  0  0  0  0  0
   -2.0117   -1.3760    2.8309 H   0  0  0  0  0  0  0  0  0  0  0  0
   -1.9984   -2.6965    1.6165 H   0  0  0  0  0  0  0  0  0  0  0  0
   -3.4918   -2.2823    2.4736 H   0  0  0  0  0  0  0  0  0  0  0  0
    1.9562   -1.1519    1.1693 H   0  0  0  0  0  0  0  0  0  0  0  0
  1  2  1  0
  2  3  2  0
  2  4  1  0
  4  5  1  0
  5  6  2  0
  6  7  1  0
  7  8  2  0
  8  9  1  0
  9 10  2  0
 10 11  1  0
 11 12  2  0
 11 13  1  0
 13 14  1  0
 13 15  1  0
 15 16  2  0
 15 17  1  0
 17 18  1  0
 17 19  1  0
 19 20  2  0
 20 21  1  0
 21 22  2  0
 22  5  1  0
 21  8  1  0
 19 10  1  0
  1 23  1  0
  1 24  1  0
  1 25  1  0
  4 26  1  0
  6 27  1  0
  7 28  1  0
 14 29  1  0
 14 30  1  0
 14 31  1  0
 18 32  1  0
 18 33  1  0
 18 34  1  0
 22 35  1  0
M  END
$$$$
