
     RDKit          3D

 37 38  0  0  0  0  0  0  0  0999 V2000
   -0.1868    0.9210   -2.4926 C   0  0  0  0  0  0  0  0  0  0  0  0
   -0.1187   -0.1678   -1.4256 C   0  0  0  0  0  0  0  0  0  0  0  0
   -1.0343    0.1067   -0.3367 N   0  0  0  0  0  0  0  0  0  0  0  0
   -2.3779   -0.1576   -0.4171 C   0  0  0  0  0  0  0  0  0  0  0  0
   -2.8734   -0.6891   -1.4084 O   0  0  0  0  0  0  0  0  0  0  0  0
   -3.2035    0.2543    0.8157 C   0  0  0  0  0  0  0  0  0  0  0  0
   -4.6795   -0.1160    0.5896 C   0  0  0  0  0  0  0  0  0  0  0  0
   -2.6926   -0.4878    2.0596 C   0  0  0  0  0  0  0  0  0  0  0  0
   -3.1021    1.7721    1.0281 C   0  0  0  0  0  0  0  0  0  0  0  0
    1.2540   -0.2405   -0.8281 C   0  0  0  0  0  0  0  0  0  0  0  0
    1.7149    0.4764    0.1821 N   0  0  0  0  0  0  0  0  0  0  0  0
    3.0081    0.0544    0.3723 C   0  0  0  0  0  0  0  0  0  0  0  0
    3.9626    0.4806    1.3067 C   0  0  0  0  0  0  0  0  0  0  0  0
    5.2285   -0.1192    1.2948 C   0  0  0  0  0  0  0  0  0  0  0  0
    5.5365   -1.1223    0.3721 C   0  0  0  0  0  0  0  0  0  0  0  0
    4.5962   -1.5606   -0.5679 C   0  0  0  0  0  0  0  0  0  0  0  0
    3.3433   -0.9450   -0.5340 C   0  0  0  0  0  0  0  0  0  0  0  0
    2.2086   -1.1172   -1.2838 N   0  0  0  0  0  0  0  0  0  0  0  0
   -1.1889    0.9821   -2.9301 H   0  0  0  0  0  0  0  0  0  0  0  0
    0.0495    1.9068   -2.0747 H   0  0  0  0  0  0  0  0  0  0  0  0
    0.5237    0.7226   -3.3026 H   0  0  0  0  0  0  0  0  0  0  0  0
   -0.3894   -1.1323   -1.8716 H   0  0  0  0  0  0  0  0  0  0  0  0
   -0.6382    0.5914    0.4614 H   0  0  0  0  0  0  0  0  0  0  0  0
   -5.2970    0.1636    1.4505 H   0  0  0  0  0  0  0  0  0  0  0  0
   -4.7984   -1.1940    0.4296 H   0  0  0  0  0  0  0  0  0  0  0  0
   -5.0861    0.3929   -0.2921 H   0  0  0  0  0  0  0  0  0  0  0  0
   -3.3189   -0.2742    2.9331 H   0  0  0  0  0  0  0  0  0  0  0  0
   -1.6667   -0.2007    2.3149 H   0  0  0  0  0  0  0  0  0  0  0  0
   -2.6960   -1.5720    1.8987 H   0  0  0  0  0  0  0  0  0  0  0  0
   -2.0815    2.0839    1.2753 H   0  0  0  0  0  0  0  0  0  0  0  0
   -3.7517    2.1014    1.8469 H   0  0  0  0  0  0  0  0  0  0  0  0
   -3.3974    2.3155    0.1232 H   0  0  0  0  0  0  0  0  0  0  0  0
    3.7170    1.2592    2.0198 H   0  0  0  0  0  0  0  0  0  0  0  0
    5.9786    0.2018    2.0138 H   0  0  0  0  0  0  0  0  0  0  0  0
    6.5274   -1.5722    0.3846 H   0  0  0  0  0  0  0  0  0  0  0  0
    4.8369   -2.3397   -1.2828 H   0  0  0  0  0  0  0  0  0  0  0  0
    2.0931   -1.7786   -2.0380 H   0  0  0  0  0  0  0  0  0  0  0  0
  1  2  1  0
  2  3  1  0
  3  4  1  0
  4  5  2  0
  4  6  1  0
  6  7  1  0
  6  8  1  0
  6  9  1  0
  2 10  1  0
 10 11  2  0
 11 12  1  0
 12 13  2  0
 13 14  1  0
 14 15  2  0
 15 16  1  0
 16 17  2  0
 17 18  1  0
 18 10  1  0
 17 12  1  0
  1 19  1  0
  1 20  1  0
  1 21  1  0
  2 22  1  0
  3 23  1  0
  7 24  1  0
  7 25  1  0
  7 26  1  0
  8 27  1  0
  8 28  1  0
  8 29  1  0
  9 30  1  0
  9 31  1  0
  9 32  1  0
 13 33  1  0
 14 34  1  0
 15 35  1  0
 16 36  1  0
 18 37  1  0
M  END
$$$$
