
     RDKit          3D

 71 74  0  0  0  0  0  0  0  0999 V2000
    2.4513   -2.4384    1.1807 C   0  0  0  0  0  0  0  0  0  0  0  0
    3.8670   -1.9749    0.8137 C   0  0  0  0  0  0  0  0  0  0  0  0
    4.8205   -2.2072    1.9916 C   0  0  0  0  0  0  0  0  0  0  0  0
    3.8251   -0.6088    0.2597 N   0  0  0  0  0  0  0  0  0  0  0  0
    4.0430    0.5179    1.1849 C   0  0  0  0  0  0  0  0  0  0  0  0
    2.9121    0.7821    2.1975 C   0  0  0  0  0  0  0  0  0  0  0  0
    1.6174    0.9608    1.5692 N   0  0  0  0  0  0  0  0  0  0  0  0
    1.2803    2.1056    0.8965 C   0  0  0  0  0  0  0  0  0  0  0  0
    1.9877    3.1103    0.8938 O   0  0  0  0  0  0  0  0  0  0  0  0
   -0.0113    2.0546    0.1527 C   0  0  0  0  0  0  0  0  0  0  0  0
   -0.3875    3.1344   -0.5485 C   0  0  0  0  0  0  0  0  0  0  0  0
   -1.5476    3.2768   -1.2937 N   0  0  0  0  0  0  0  0  0  0  0  0
   -1.8437    4.5118   -2.0223 C   0  0  0  0  0  0  0  0  0  0  0  0
   -2.4694    2.2091   -1.3500 C   0  0  0  0  0  0  0  0  0  0  0  0
   -3.6736    2.2692   -2.0741 C   0  0  0  0  0  0  0  0  0  0  0  0
   -4.5648    1.1909   -2.0991 C   0  0  0  0  0  0  0  0  0  0  0  0
   -4.2649    0.0290   -1.3890 C   0  0  0  0  0  0  0  0  0  0  0  0
   -5.4151   -1.3207   -1.4222 S   0  0  0  0  0  6  0  0  0  0  0  0
   -4.8972   -2.3971   -0.6057 O   0  0  0  0  0  0  0  0  0  0  0  0
   -5.7819   -1.5364   -2.8052 O   0  0  0  0  0  0  0  0  0  0  0  0
   -6.7714   -0.6766   -0.6090 N   0  0  0  0  0  0  0  0  0  0  0  0
   -6.5211   -0.2258    0.8020 C   0  0  0  0  0  0  0  0  0  0  0  0
   -7.8434   -0.1076    1.5675 C   0  0  0  0  0  0  0  0  0  0  0  0
   -8.5282   -1.3603    1.7012 O   0  0  0  0  0  0  0  0  0  0  0  0
   -8.2691   -2.2649    0.6167 C   0  0  0  0  0  0  0  0  0  0  0  0
   -7.9961   -1.5457   -0.7076 C   0  0  0  0  0  0  0  0  0  0  0  0
   -3.0782   -0.0749   -0.6687 C   0  0  0  0  0  0  0  0  0  0  0  0
   -2.1911    1.0122   -0.6516 C   0  0  0  0  0  0  0  0  0  0  0  0
   -0.9318    0.8918    0.1285 C   0  0  0  0  0  0  0  0  0  0  0  0
   -0.6792   -0.1471    0.7361 O   0  0  0  0  0  0  0  0  0  0  0  0
    4.5942   -0.4616   -0.9918 C   0  0  0  0  0  0  0  0  0  0  0  0
    6.1009   -0.5941   -0.8902 C   0  0  0  0  0  0  0  0  0  0  0  0
    6.8980    0.5036   -0.5319 C   0  0  0  0  0  0  0  0  0  0  0  0
    8.2851    0.3763   -0.4336 C   0  0  0  0  0  0  0  0  0  0  0  0
    8.8945   -0.8473   -0.7029 C   0  0  0  0  0  0  0  0  0  0  0  0
    8.1184   -1.9438   -1.0728 C   0  0  0  0  0  0  0  0  0  0  0  0
    6.7310   -1.8177   -1.1669 C   0  0  0  0  0  0  0  0  0  0  0  0
    2.0580   -1.9338    2.0665 H   0  0  0  0  0  0  0  0  0  0  0  0
    2.4498   -3.5136    1.3933 H   0  0  0  0  0  0  0  0  0  0  0  0
    1.7549   -2.2710    0.3519 H   0  0  0  0  0  0  0  0  0  0  0  0
    4.1785   -2.6664    0.0198 H   0  0  0  0  0  0  0  0  0  0  0  0
    4.4976   -1.6818    2.8961 H   0  0  0  0  0  0  0  0  0  0  0  0
    4.8648   -3.2754    2.2353 H   0  0  0  0  0  0  0  0  0  0  0  0
    5.8408   -1.8884    1.7549 H   0  0  0  0  0  0  0  0  0  0  0  0
    4.1350    1.4387    0.5936 H   0  0  0  0  0  0  0  0  0  0  0  0
    4.9907    0.4168    1.7259 H   0  0  0  0  0  0  0  0  0  0  0  0
    2.8209   -0.0299    2.9227 H   0  0  0  0  0  0  0  0  0  0  0  0
    3.1461    1.6938    2.7599 H   0  0  0  0  0  0  0  0  0  0  0  0
    1.0476    0.1296    1.4118 H   0  0  0  0  0  0  0  0  0  0  0  0
    0.2498    4.0178   -0.5687 H   0  0  0  0  0  0  0  0  0  0  0  0
   -2.7600    4.9781   -1.6435 H   0  0  0  0  0  0  0  0  0  0  0  0
   -1.9476    4.3180   -3.0959 H   0  0  0  0  0  0  0  0  0  0  0  0
   -1.0400    5.2500   -1.9104 H   0  0  0  0  0  0  0  0  0  0  0  0
   -3.9489    3.1553   -2.6384 H   0  0  0  0  0  0  0  0  0  0  0  0
   -5.4887    1.2633   -2.6710 H   0  0  0  0  0  0  0  0  0  0  0  0
   -6.0338    0.7533    0.7771 H   0  0  0  0  0  0  0  0  0  0  0  0
   -5.8693   -0.9387    1.3177 H   0  0  0  0  0  0  0  0  0  0  0  0
   -8.5197    0.5940    1.0646 H   0  0  0  0  0  0  0  0  0  0  0  0
   -7.6643    0.2784    2.5757 H   0  0  0  0  0  0  0  0  0  0  0  0
   -9.1424   -2.9170    0.5211 H   0  0  0  0  0  0  0  0  0  0  0  0
   -7.4197   -2.8973    0.8995 H   0  0  0  0  0  0  0  0  0  0  0  0
   -8.8359   -0.8881   -0.9646 H   0  0  0  0  0  0  0  0  0  0  0  0
   -7.9031   -2.2788   -1.5154 H   0  0  0  0  0  0  0  0  0  0  0  0
   -2.8375   -0.9869   -0.1256 H   0  0  0  0  0  0  0  0  0  0  0  0
    4.3587    0.5081   -1.4520 H   0  0  0  0  0  0  0  0  0  0  0  0
    4.2204   -1.1887   -1.7261 H   0  0  0  0  0  0  0  0  0  0  0  0
    6.4403    1.4688   -0.3267 H   0  0  0  0  0  0  0  0  0  0  0  0
    8.8894    1.2338   -0.1478 H   0  0  0  0  0  0  0  0  0  0  0  0
    9.9738   -0.9454   -0.6284 H   0  0  0  0  0  0  0  0  0  0  0  0
    8.5921   -2.8983   -1.2875 H   0  0  0  0  0  0  0  0  0  0  0  0
    6.1413   -2.6835   -1.4584 H   0  0  0  0  0  0  0  0  0  0  0  0
  1  2  1  0
  2  3  1  0
  2  4  1  0
  4  5  1  0
  5  6  1  0
  6  7  1  0
  7  8  1  0
  8  9  2  0
  8 10  1  0
 10 11  2  0
 11 12  1  0
 12 13  1  0
 12 14  1  0
 14 15  2  0
 15 16  1  0
 16 17  2  0
 17 18  1  0
 18 19  2  0
 18 20  2  0
 18 21  1  0
 21 22  1  0
 22 23  1  0
 23 24  1  0
 24 25  1  0
 25 26  1  0
 17 27  1  0
 27 28  2  0
 28 29  1  0
 29 30  2  0
  4 31  1  0
 31 32  1  0
 32 33  2  0
 33 34  1  0
 34 35  2  0
 35 36  1  0
 36 37  2  0
 29 10  1  0
 37 32  1  0
 28 14  1  0
 26 21  1  0
  1 38  1  0
  1 39  1  0
  1 40  1  0
  2 41  1  0
  3 42  1  0
  3 43  1  0
  3 44  1  0
  5 45  1  0
  5 46  1  0
  6 47  1  0
  6 48  1  0
  7 49  1  0
 11 50  1  0
 13 51  1  0
 13 52  1  0
 13 53  1  0
 15 54  1  0
 16 55  1  0
 22 56  1  0
 22 57  1  0
 23 58  1  0
 23 59  1  0
 25 60  1  0
 25 61  1  0
 26 62  1  0
 26 63  1  0
 27 64  1  0
 31 65  1  0
 31 66  1  0
 33 67  1  0
 34 68  1  0
 35 69  1  0
 36 70  1  0
 37 71  1  0
M  END
$$$$
