
     RDKit          3D

 44 46  0  0  0  0  0  0  0  0999 V2000
   -3.9896    2.1381   -0.9158 C   0  0  0  0  0  0  0  0  0  0  0  0
   -4.0081    1.0005    0.0670 C   0  0  0  0  0  0  0  0  0  0  0  0
   -5.2420    0.3887    0.3571 C   0  0  0  0  0  0  0  0  0  0  0  0
   -5.3242   -0.6592    1.2745 C   0  0  0  0  0  0  0  0  0  0  0  0
   -4.1748   -1.1035    1.9120 C   0  0  0  0  0  0  0  0  0  0  0  0
   -4.2568   -2.1023    2.8002 F   0  0  0  0  0  0  0  0  0  0  0  0
   -2.9410   -0.5312    1.6413 C   0  0  0  0  0  0  0  0  0  0  0  0
   -2.8513    0.5118    0.7076 C   0  0  0  0  0  0  0  0  0  0  0  0
   -1.2301    1.1656    0.3608 S   0  0  0  0  0  6  0  0  0  0  0  0
   -1.1579    1.5797   -1.0229 O   0  0  0  0  0  0  0  0  0  0  0  0
   -0.8912    2.0496    1.4511 O   0  0  0  0  0  0  0  0  0  0  0  0
   -0.2334   -0.1855    0.5108 N   0  0  0  0  0  0  0  0  0  0  0  0
   -0.0491   -1.0581   -0.6793 C   0  0  0  0  0  0  0  0  0  0  0  0
    0.1269   -2.5055   -0.1946 C   0  0  0  0  0  0  0  0  0  0  0  0
    1.5868   -2.9592   -0.1921 C   0  0  0  0  0  0  0  0  0  0  0  0
    2.5307   -1.8397    0.2281 C   0  0  0  0  0  0  0  0  0  0  0  0
    2.3952   -0.6565   -0.6398 N   0  0  0  0  0  0  0  0  0  0  0  0
    3.3225    0.3775   -0.5216 C   0  0  0  0  0  0  0  0  0  0  0  0
    3.4269    1.4542   -1.5513 C   0  0  0  0  0  0  0  0  0  0  0  0
    4.3219    2.4296   -1.3853 C   0  0  0  0  0  0  0  0  0  0  0  0
    5.1949    2.4322   -0.2049 C   0  0  0  0  0  0  0  0  0  0  0  0
    6.0197    3.3227   -0.0339 O   0  0  0  0  0  0  0  0  0  0  0  0
    5.0266    1.3830    0.6553 N   0  0  0  0  0  0  0  0  0  0  0  0
    4.1207    0.3741    0.5204 N   0  0  0  0  0  0  0  0  0  0  0  0
    1.1851   -0.5814   -1.4760 C   0  0  0  0  0  0  0  0  0  0  0  0
   -3.6026    1.8007   -1.8816 H   0  0  0  0  0  0  0  0  0  0  0  0
   -4.9975    2.5342   -1.0812 H   0  0  0  0  0  0  0  0  0  0  0  0
   -3.3885    2.9704   -0.5375 H   0  0  0  0  0  0  0  0  0  0  0  0
   -6.1545    0.7345   -0.1257 H   0  0  0  0  0  0  0  0  0  0  0  0
   -6.2787   -1.1236    1.5021 H   0  0  0  0  0  0  0  0  0  0  0  0
   -2.0664   -0.8993    2.1681 H   0  0  0  0  0  0  0  0  0  0  0  0
    0.6168    0.0384    1.0361 H   0  0  0  0  0  0  0  0  0  0  0  0
   -0.9485   -1.0185   -1.3046 H   0  0  0  0  0  0  0  0  0  0  0  0
   -0.3017   -2.6345    0.8071 H   0  0  0  0  0  0  0  0  0  0  0  0
   -0.4351   -3.1797   -0.8534 H   0  0  0  0  0  0  0  0  0  0  0  0
    1.8580   -3.3031   -1.1988 H   0  0  0  0  0  0  0  0  0  0  0  0
    1.7037   -3.8226    0.4723 H   0  0  0  0  0  0  0  0  0  0  0  0
    3.5593   -2.2166    0.1805 H   0  0  0  0  0  0  0  0  0  0  0  0
    2.3287   -1.5594    1.2688 H   0  0  0  0  0  0  0  0  0  0  0  0
    2.7988    1.4231   -2.4290 H   0  0  0  0  0  0  0  0  0  0  0  0
    4.4541    3.2328   -2.0961 H   0  0  0  0  0  0  0  0  0  0  0  0
    5.6173    1.3551    1.4787 H   0  0  0  0  0  0  0  0  0  0  0  0
    1.0036    0.4408   -1.8169 H   0  0  0  0  0  0  0  0  0  0  0  0
    1.3247   -1.1979   -2.3719 H   0  0  0  0  0  0  0  0  0  0  0  0
  1  2  1  0
  2  3  2  0
  3  4  1  0
  4  5  2  0
  5  6  1  0
  5  7  1  0
  7  8  2  0
  8  9  1  0
  9 10  2  0
  9 11  2  0
  9 12  1  0
 12 13  1  0
 13 14  1  0
 14 15  1  0
 15 16  1  0
 16 17  1  0
 17 18  1  0
 18 19  1  0
 19 20  2  0
 20 21  1  0
 21 22  2  0
 21 23  1  0
 23 24  1  0
 17 25  1  0
  8  2  1  0
 25 13  1  0
 24 18  2  0
  1 26  1  0
  1 27  1  0
  1 28  1  0
  3 29  1  0
  4 30  1  0
  7 31  1  0
 12 32  1  0
 13 33  1  0
 14 34  1  0
 14 35  1  0
 15 36  1  0
 15 37  1  0
 16 38  1  0
 16 39  1  0
 19 40  1  0
 20 41  1  0
 23 42  1  0
 25 43  1  0
 25 44  1  0
M  END
$$$$
