
     RDKit          3D

 51 54  0  0  0  0  0  0  0  0999 V2000
    7.2736   -0.5748   -0.4947 C   0  0  0  0  0  0  0  0  0  0  0  0
    5.7935   -0.3890   -0.3632 C   0  0  0  0  0  0  0  0  0  0  0  0
    4.9787   -0.2474   -1.4891 C   0  0  0  0  0  0  0  0  0  0  0  0
    3.6017   -0.0480   -1.3403 C   0  0  0  0  0  0  0  0  0  0  0  0
    3.0186    0.0238   -0.0679 C   0  0  0  0  0  0  0  0  0  0  0  0
    1.6290    0.2227   -0.0111 N   0  0  0  0  0  0  0  0  0  0  0  0
    0.8255    0.3543    1.1080 C   0  0  0  0  0  0  0  0  0  0  0  0
    1.1914    0.3602    2.2799 O   0  0  0  0  0  0  0  0  0  0  0  0
   -0.6565    0.5191    0.7376 C   0  0  1  0  0  0  0  0  0  0  0  0
   -0.8384    0.7018   -0.6714 O   0  0  0  0  0  0  0  0  0  0  0  0
   -2.1748    1.0854   -1.0105 C   0  0  2  0  0  0  0  0  0  0  0  0
   -2.3362    2.5005   -0.9012 O   0  0  0  0  0  0  0  0  0  0  0  0
   -3.3249    2.7264    0.1072 C   0  0  0  0  0  0  0  0  0  0  0  0
   -4.6192    3.1896   -0.5629 C   0  0  0  0  0  0  0  0  0  0  0  0
   -2.8271    3.7887    1.0785 C   0  0  0  0  0  0  0  0  0  0  0  0
   -3.5571    1.5048    0.8221 O   0  0  0  0  0  0  0  0  0  0  0  0
   -3.2656    0.4784   -0.1341 C   0  0  2  0  0  0  0  0  0  0  0  0
   -2.8133   -0.8027    0.5372 C   0  0  1  0  0  0  0  0  0  0  0  0
   -2.6377   -1.8129   -0.4613 O   0  0  0  0  0  0  0  0  0  0  0  0
   -1.5589   -2.6256   -0.0039 C   0  0  0  0  0  0  0  0  0  0  0  0
   -2.1175   -3.9040    0.6111 C   0  0  0  0  0  0  0  0  0  0  0  0
   -0.6459   -2.9357   -1.1815 C   0  0  0  0  0  0  0  0  0  0  0  0
   -0.8133   -1.9280    0.9894 O   0  0  0  0  0  0  0  0  0  0  0  0
   -1.4725   -0.6793    1.2433 C   0  0  1  0  0  0  0  0  0  0  0  0
    3.8323   -0.1064    1.0555 C   0  0  0  0  0  0  0  0  0  0  0  0
    5.2032   -0.3055    0.8997 C   0  0  0  0  0  0  0  0  0  0  0  0
    5.9681   -0.4191    1.9958 F   0  0  0  0  0  0  0  0  0  0  0  0
    7.7882    0.3744   -0.3163 H   0  0  0  0  0  0  0  0  0  0  0  0
    7.6352   -1.3188    0.2228 H   0  0  0  0  0  0  0  0  0  0  0  0
    7.5405   -0.9320   -1.4949 H   0  0  0  0  0  0  0  0  0  0  0  0
    5.4060   -0.2912   -2.4883 H   0  0  0  0  0  0  0  0  0  0  0  0
    2.9919    0.0544   -2.2349 H   0  0  0  0  0  0  0  0  0  0  0  0
    1.1248    0.2986   -0.8912 H   0  0  0  0  0  0  0  0  0  0  0  0
   -0.9741    1.4378    1.2410 H   0  0  0  0  0  0  0  0  0  0  0  0
   -2.3171    0.8038   -2.0587 H   0  0  0  0  0  0  0  0  0  0  0  0
   -5.4202    3.3200    0.1723 H   0  0  0  0  0  0  0  0  0  0  0  0
   -4.9702    2.4569   -1.2978 H   0  0  0  0  0  0  0  0  0  0  0  0
   -4.4691    4.1308   -1.1026 H   0  0  0  0  0  0  0  0  0  0  0  0
   -3.5542    3.9680    1.8775 H   0  0  0  0  0  0  0  0  0  0  0  0
   -2.6188    4.7322    0.5631 H   0  0  0  0  0  0  0  0  0  0  0  0
   -1.8945    3.4748    1.5580 H   0  0  0  0  0  0  0  0  0  0  0  0
   -4.1703    0.3048   -0.7295 H   0  0  0  0  0  0  0  0  0  0  0  0
   -3.5725   -1.1548    1.2460 H   0  0  0  0  0  0  0  0  0  0  0  0
   -1.3149   -4.5500    0.9823 H   0  0  0  0  0  0  0  0  0  0  0  0
   -2.7233   -4.4608   -0.1115 H   0  0  0  0  0  0  0  0  0  0  0  0
   -2.7645   -3.6721    1.4649 H   0  0  0  0  0  0  0  0  0  0  0  0
   -0.2540   -2.0095   -1.6172 H   0  0  0  0  0  0  0  0  0  0  0  0
    0.2160   -3.5355   -0.8709 H   0  0  0  0  0  0  0  0  0  0  0  0
   -1.1849   -3.4624   -1.9760 H   0  0  0  0  0  0  0  0  0  0  0  0
   -1.5978   -0.5869    2.3281 H   0  0  0  0  0  0  0  0  0  0  0  0
    3.4410   -0.0597    2.0651 H   0  0  0  0  0  0  0  0  0  0  0  0
  1  2  1  0
  2  3  2  0
  3  4  1  0
  4  5  2  0
  5  6  1  0
  6  7  1  0
  7  8  2  0
  7  9  1  0
  9 10  1  0
 10 11  1  0
 11 12  1  0
 12 13  1  0
 13 14  1  0
 13 15  1  0
 13 16  1  0
 16 17  1  0
 17 18  1  0
 18 19  1  0
 19 20  1  0
 20 21  1  0
 20 22  1  0
 20 23  1  0
 23 24  1  0
  5 25  1  0
 25 26  2  0
 26 27  1  0
 26  2  1  0
 24  9  1  0
 17 11  1  0
 24 18  1  0
  1 28  1  0
  1 29  1  0
  1 30  1  0
  3 31  1  0
  4 32  1  0
  6 33  1  0
  9 34  1  1
 11 35  1  6
 14 36  1  0
 14 37  1  0
 14 38  1  0
 15 39  1  0
 15 40  1  0
 15 41  1  0
 17 42  1  6
 18 43  1  1
 21 44  1  0
 21 45  1  0
 21 46  1  0
 22 47  1  0
 22 48  1  0
 22 49  1  0
 24 50  1  1
 25 51  1  0
M  END
$$$$
