
     RDKit          3D

 43 46  0  0  0  0  0  0  0  0999 V2000
    3.3911    1.3759    0.2728 O   0  0  0  0  0  0  0  0  0  0  0  0
    3.6467    0.5433   -0.5939 C   0  0  0  0  0  0  0  0  0  0  0  0
    2.5659    0.1207   -1.5936 C   0  0  0  0  0  0  0  0  0  0  0  0
    1.5430   -0.6344   -0.9207 N   0  0  0  0  0  0  0  0  0  0  0  0
    1.5720   -2.0007   -0.7287 C   0  0  0  0  0  0  0  0  0  0  0  0
    2.4413   -2.7559   -1.1489 O   0  0  0  0  0  0  0  0  0  0  0  0
    0.4665   -2.4285    0.0195 O   0  0  0  0  0  0  0  0  0  0  0  0
   -0.1873   -1.2334    0.2959 C   0  0  0  0  0  0  0  0  0  0  0  0
   -1.3400   -1.1098    1.0433 C   0  0  0  0  0  0  0  0  0  0  0  0
   -1.8490    0.1867    1.2147 C   0  0  0  0  0  0  0  0  0  0  0  0
   -3.3169    0.4279    2.2053 S   0  0  0  0  0  6  0  0  0  0  0  0
   -3.4021   -0.6891    3.1225 O   0  0  0  0  0  0  0  0  0  0  0  0
   -3.2951    1.7944    2.6806 O   0  0  0  0  0  0  0  0  0  0  0  0
   -4.5712    0.2888    1.0942 N   0  0  0  0  0  0  0  0  0  0  0  0
   -4.9180   -1.0312    0.5314 C   0  0  0  0  0  0  0  0  0  0  0  0
   -5.1262   -0.7713   -0.9538 C   0  0  0  0  0  0  0  0  0  0  0  0
   -5.6312    0.6619   -0.9824 C   0  0  0  0  0  0  0  0  0  0  0  0
   -4.7709    1.3397    0.0762 C   0  0  0  0  0  0  0  0  0  0  0  0
   -1.1767    1.3152    0.6863 C   0  0  0  0  0  0  0  0  0  0  0  0
   -0.0068    1.1562   -0.0665 C   0  0  0  0  0  0  0  0  0  0  0  0
    0.4522   -0.1334   -0.2493 C   0  0  0  0  0  0  0  0  0  0  0  0
    4.8381   -0.1305   -0.7743 N   0  0  0  0  0  0  0  0  0  0  0  0
    6.0075    0.0506   -0.0815 C   0  0  0  0  0  0  0  0  0  0  0  0
    7.0801   -0.6547   -0.3773 N   0  0  0  0  0  0  0  0  0  0  0  0
    8.1241   -0.2723    0.4433 C   0  0  0  0  0  0  0  0  0  0  0  0
    7.8293    0.7287    1.3467 C   0  0  0  0  0  0  0  0  0  0  0  0
    6.1873    1.1964    1.1682 S   0  0  0  0  0  0  0  0  0  0  0  0
    2.1410    1.0183   -2.0625 H   0  0  0  0  0  0  0  0  0  0  0  0
    2.9970   -0.4957   -2.3946 H   0  0  0  0  0  0  0  0  0  0  0  0
   -1.8155   -1.9799    1.4863 H   0  0  0  0  0  0  0  0  0  0  0  0
   -5.8483   -1.3702    0.9988 H   0  0  0  0  0  0  0  0  0  0  0  0
   -4.1551   -1.7930    0.6946 H   0  0  0  0  0  0  0  0  0  0  0  0
   -5.8259   -1.4795   -1.4066 H   0  0  0  0  0  0  0  0  0  0  0  0
   -4.1701   -0.8426   -1.4880 H   0  0  0  0  0  0  0  0  0  0  0  0
   -6.6913    0.6968   -0.6940 H   0  0  0  0  0  0  0  0  0  0  0  0
   -5.5268    1.1285   -1.9672 H   0  0  0  0  0  0  0  0  0  0  0  0
   -5.2779    2.2122    0.5020 H   0  0  0  0  0  0  0  0  0  0  0  0
   -3.8192    1.6513   -0.3666 H   0  0  0  0  0  0  0  0  0  0  0  0
   -1.5582    2.3200    0.8746 H   0  0  0  0  0  0  0  0  0  0  0  0
    0.5200    2.0202   -0.4604 H   0  0  0  0  0  0  0  0  0  0  0  0
    4.9155   -0.8600   -1.4765 H   0  0  0  0  0  0  0  0  0  0  0  0
    9.0870   -0.7579    0.3384 H   0  0  0  0  0  0  0  0  0  0  0  0
    8.4736    1.1901    2.0811 H   0  0  0  0  0  0  0  0  0  0  0  0
  1  2  2  0
  2  3  1  0
  3  4  1  0
  4  5  1  0
  5  6  2  0
  5  7  1  0
  7  8  1  0
  8  9  2  0
  9 10  1  0
 10 11  1  0
 11 12  2  0
 11 13  2  0
 11 14  1  0
 14 15  1  0
 15 16  1  0
 16 17  1  0
 17 18  1  0
 10 19  2  0
 19 20  1  0
 20 21  2  0
  2 22  1  0
 22 23  1  0
 23 24  2  0
 24 25  1  0
 25 26  2  0
 26 27  1  0
 21  4  1  0
 27 23  1  0
 21  8  1  0
 18 14  1  0
  3 28  1  0
  3 29  1  0
  9 30  1  0
 15 31  1  0
 15 32  1  0
 16 33  1  0
 16 34  1  0
 17 35  1  0
 17 36  1  0
 18 37  1  0
 18 38  1  0
 19 39  1  0
 20 40  1  0
 22 41  1  0
 25 42  1  0
 26 43  1  0
M  END
$$$$
