
     RDKit          3D

 63 67  0  0  0  0  0  0  0  0999 V2000
   -0.0082   -0.6369   -3.0287 O   0  0  0  0  0  0  0  0  0  0  0  0
    0.2855    0.2736   -2.2466 C   0  0  0  0  0  0  0  0  0  0  0  0
   -0.7064    1.4312   -2.0576 C   0  0  0  0  0  0  0  0  0  0  0  0
   -1.0184    1.8252   -0.6821 N   0  0  0  0  0  0  0  0  0  0  0  0
   -0.7870    3.1420   -0.3022 C   0  0  0  0  0  0  0  0  0  0  0  0
   -0.2586    3.9804   -1.0328 O   0  0  0  0  0  0  0  0  0  0  0  0
   -1.3110    3.5194    1.0766 C   0  0  0  0  0  0  0  0  0  0  0  0
   -1.3348    2.5189    2.0736 O   0  0  0  0  0  0  0  0  0  0  0  0
   -1.7191    1.2965    1.5957 C   0  0  0  0  0  0  0  0  0  0  0  0
   -2.2057    0.4122    2.5626 C   0  0  0  0  0  0  0  0  0  0  0  0
   -2.5970   -0.8721    2.2005 C   0  0  0  0  0  0  0  0  0  0  0  0
   -2.4996   -1.2610    0.8638 C   0  0  0  0  0  0  0  0  0  0  0  0
   -2.9372   -2.9262    0.4060 S   0  0  0  0  0  6  0  0  0  0  0  0
   -2.0842   -3.3001   -0.7002 O   0  0  0  0  0  0  0  0  0  0  0  0
   -2.9617   -3.7075    1.6246 O   0  0  0  0  0  0  0  0  0  0  0  0
   -4.5143   -2.7857   -0.1540 N   0  0  0  0  0  0  0  0  0  0  0  0
   -5.6283   -2.5652    0.7990 C   0  0  0  0  0  0  0  0  0  0  0  0
   -6.1290   -1.1195    0.7430 C   0  0  0  0  0  0  0  0  0  0  0  0
   -6.4832   -0.7403   -0.5933 O   0  0  0  0  0  0  0  0  0  0  0  0
   -5.3491   -0.8358   -1.4647 C   0  0  0  0  0  0  0  0  0  0  0  0
   -4.7895   -2.2605   -1.5134 C   0  0  0  0  0  0  0  0  0  0  0  0
   -1.9770   -0.3894   -0.1041 C   0  0  0  0  0  0  0  0  0  0  0  0
   -1.5830    0.9080    0.2521 C   0  0  0  0  0  0  0  0  0  0  0  0
    1.5019    0.2956   -1.5921 N   0  0  0  0  0  0  0  0  0  0  0  0
    2.3759   -0.8757   -1.6885 C   0  0  0  0  0  0  0  0  0  0  0  0
    3.2853   -1.0427   -0.4582 C   0  0  0  0  0  0  0  0  0  0  0  0
    4.0697    0.1765   -0.1789 N   0  0  0  0  0  0  0  0  0  0  0  0
    5.3009    0.0891    0.4561 C   0  0  0  0  0  0  0  0  0  0  0  0
    5.6072   -0.9802    1.3178 C   0  0  0  0  0  0  0  0  0  0  0  0
    6.8418   -1.0832    1.9714 C   0  0  0  0  0  0  0  0  0  0  0  0
    7.8119   -0.1078    1.7793 C   0  0  0  0  0  0  0  0  0  0  0  0
    7.5351    0.9628    0.9388 C   0  0  0  0  0  0  0  0  0  0  0  0
    8.7283    2.1806    0.6909 Cl  0  0  0  0  0  0  0  0  0  0  0  0
    6.2999    1.0615    0.2886 C   0  0  0  0  0  0  0  0  0  0  0  0
    3.6044    1.4292   -0.7952 C   0  0  0  0  0  0  0  0  0  0  0  0
    2.0668    1.4634   -0.9103 C   0  0  0  0  0  0  0  0  0  0  0  0
   -0.3182    2.2783   -2.6336 H   0  0  0  0  0  0  0  0  0  0  0  0
   -1.6556    1.1550   -2.5342 H   0  0  0  0  0  0  0  0  0  0  0  0
   -2.3227    3.9256    0.9551 H   0  0  0  0  0  0  0  0  0  0  0  0
   -0.6761    4.3280    1.4556 H   0  0  0  0  0  0  0  0  0  0  0  0
   -2.2690    0.7272    3.6020 H   0  0  0  0  0  0  0  0  0  0  0  0
   -2.9588   -1.5600    2.9619 H   0  0  0  0  0  0  0  0  0  0  0  0
   -6.4383   -3.2462    0.5102 H   0  0  0  0  0  0  0  0  0  0  0  0
   -5.3433   -2.8244    1.8226 H   0  0  0  0  0  0  0  0  0  0  0  0
   -5.3810   -0.4168    1.1245 H   0  0  0  0  0  0  0  0  0  0  0  0
   -7.0242   -1.0155    1.3643 H   0  0  0  0  0  0  0  0  0  0  0  0
   -5.6752   -0.5345   -2.4653 H   0  0  0  0  0  0  0  0  0  0  0  0
   -4.5938   -0.1147   -1.1379 H   0  0  0  0  0  0  0  0  0  0  0  0
   -5.5315   -2.9280   -1.9691 H   0  0  0  0  0  0  0  0  0  0  0  0
   -3.9008   -2.2940   -2.1496 H   0  0  0  0  0  0  0  0  0  0  0  0
   -1.8905   -0.7537   -1.1241 H   0  0  0  0  0  0  0  0  0  0  0  0
    1.7748   -1.7817   -1.8262 H   0  0  0  0  0  0  0  0  0  0  0  0
    2.9848   -0.7436   -2.5916 H   0  0  0  0  0  0  0  0  0  0  0  0
    3.9427   -1.8993   -0.6487 H   0  0  0  0  0  0  0  0  0  0  0  0
    2.6689   -1.2699    0.4201 H   0  0  0  0  0  0  0  0  0  0  0  0
    4.8694   -1.7532    1.5188 H   0  0  0  0  0  0  0  0  0  0  0  0
    7.0367   -1.9244    2.6318 H   0  0  0  0  0  0  0  0  0  0  0  0
    8.7702   -0.1847    2.2845 H   0  0  0  0  0  0  0  0  0  0  0  0
    6.1423    1.9058   -0.3748 H   0  0  0  0  0  0  0  0  0  0  0  0
    3.9052    2.2974   -0.1964 H   0  0  0  0  0  0  0  0  0  0  0  0
    4.0518    1.5280   -1.7920 H   0  0  0  0  0  0  0  0  0  0  0  0
    1.7681    2.3709   -1.4408 H   0  0  0  0  0  0  0  0  0  0  0  0
    1.6317    1.4835    0.0953 H   0  0  0  0  0  0  0  0  0  0  0  0
  1  2  2  0
  2  3  1  0
  3  4  1  0
  4  5  1  0
  5  6  2  0
  5  7  1  0
  7  8  1  0
  8  9  1  0
  9 10  2  0
 10 11  1  0
 11 12  2  0
 12 13  1  0
 13 14  2  0
 13 15  2  0
 13 16  1  0
 16 17  1  0
 17 18  1  0
 18 19  1  0
 19 20  1  0
 20 21  1  0
 12 22  1  0
 22 23  2  0
  2 24  1  0
 24 25  1  0
 25 26  1  0
 26 27  1  0
 27 28  1  0
 28 29  2  0
 29 30  1  0
 30 31  2  0
 31 32  1  0
 32 33  1  0
 32 34  2  0
 27 35  1  0
 35 36  1  0
 23  4  1  0
 36 24  1  0
 23  9  1  0
 34 28  1  0
 21 16  1  0
  3 37  1  0
  3 38  1  0
  7 39  1  0
  7 40  1  0
 10 41  1  0
 11 42  1  0
 17 43  1  0
 17 44  1  0
 18 45  1  0
 18 46  1  0
 20 47  1  0
 20 48  1  0
 21 49  1  0
 21 50  1  0
 22 51  1  0
 25 52  1  0
 25 53  1  0
 26 54  1  0
 26 55  1  0
 29 56  1  0
 30 57  1  0
 31 58  1  0
 34 59  1  0
 35 60  1  0
 35 61  1  0
 36 62  1  0
 36 63  1  0
M  END
$$$$
