
     RDKit          3D

 47 50  0  0  0  0  0  0  0  0999 V2000
    5.3718   -0.9075   -0.2695 O   0  0  0  0  0  0  0  0  0  0  0  0
    4.3132   -0.2989   -0.3698 C   0  0  0  0  0  0  0  0  0  0  0  0
    4.2314    1.0722   -0.5098 N   0  0  0  0  0  0  0  0  0  0  0  0
    5.4253    1.8920   -0.4138 C   0  0  0  0  0  0  0  0  0  0  0  0
    5.2858    3.2121   -1.1676 C   0  0  0  0  0  0  0  0  0  0  0  0
    6.4515    4.0117   -1.0122 O   0  0  0  0  0  0  0  0  0  0  0  0
    3.0225   -1.0426   -0.3105 C   0  0  0  0  0  0  0  0  0  0  0  0
    3.0143   -2.3120    0.3231 C   0  0  0  0  0  0  0  0  0  0  0  0
    1.8418   -3.0729    0.4119 C   0  0  0  0  0  0  0  0  0  0  0  0
    0.7011   -2.5359   -0.1484 C   0  0  0  0  0  0  0  0  0  0  0  0
    0.7080   -1.3040   -0.7768 C   0  0  0  0  0  0  0  0  0  0  0  0
    1.8496   -0.5311   -0.8838 C   0  0  0  0  0  0  0  0  0  0  0  0
   -0.6454   -1.0475   -1.2614 C   0  0  0  0  0  0  0  0  0  0  0  0
   -0.9539   -0.0546   -1.8914 O   0  0  0  0  0  0  0  0  0  0  0  0
   -1.4031   -2.1215   -0.8833 N   0  0  0  0  0  0  0  0  0  0  0  0
   -2.8305   -2.2319   -1.1251 C   0  0  0  0  0  0  0  0  0  0  0  0
   -3.6687   -2.2166    0.1593 C   0  0  0  0  0  0  0  0  0  0  0  0
   -3.4311   -1.0190    1.0280 C   0  0  0  0  0  0  0  0  0  0  0  0
   -2.7692   -1.0166    2.2414 C   0  0  0  0  0  0  0  0  0  0  0  0
   -2.7698    0.2607    2.7306 N   0  0  0  0  0  0  0  0  0  0  0  0
   -3.4142    1.1041    1.8570 C   0  0  0  0  0  0  0  0  0  0  0  0
   -3.6495    2.4816    1.9438 C   0  0  0  0  0  0  0  0  0  0  0  0
   -4.3445    3.0877    0.8938 C   0  0  0  0  0  0  0  0  0  0  0  0
   -4.7866    2.3433   -0.1966 C   0  0  0  0  0  0  0  0  0  0  0  0
   -4.5449    0.9663   -0.2660 C   0  0  0  0  0  0  0  0  0  0  0  0
   -3.8439    0.3295    0.7787 C   0  0  0  0  0  0  0  0  0  0  0  0
   -0.6600   -3.0637   -0.2267 C   0  0  0  0  0  0  0  0  0  0  0  0
   -1.0021   -4.1390    0.2260 O   0  0  0  0  0  0  0  0  0  0  0  0
    3.3516    1.5216   -0.2916 H   0  0  0  0  0  0  0  0  0  0  0  0
    6.2931    1.3387   -0.7909 H   0  0  0  0  0  0  0  0  0  0  0  0
    5.6153    2.0802    0.6492 H   0  0  0  0  0  0  0  0  0  0  0  0
    4.4325    3.7827   -0.7867 H   0  0  0  0  0  0  0  0  0  0  0  0
    5.1181    3.0395   -2.2361 H   0  0  0  0  0  0  0  0  0  0  0  0
    7.1933    3.5306   -1.4199 H   0  0  0  0  0  0  0  0  0  0  0  0
    3.9375   -2.7060    0.7495 H   0  0  0  0  0  0  0  0  0  0  0  0
    1.8293   -4.0441    0.8965 H   0  0  0  0  0  0  0  0  0  0  0  0
    1.8147    0.4132   -1.4156 H   0  0  0  0  0  0  0  0  0  0  0  0
   -3.0039   -3.1803   -1.6469 H   0  0  0  0  0  0  0  0  0  0  0  0
   -3.1431   -1.4216   -1.7928 H   0  0  0  0  0  0  0  0  0  0  0  0
   -3.4669   -3.1257    0.7398 H   0  0  0  0  0  0  0  0  0  0  0  0
   -4.7315   -2.2587   -0.1094 H   0  0  0  0  0  0  0  0  0  0  0  0
   -2.3078   -1.8209    2.7998 H   0  0  0  0  0  0  0  0  0  0  0  0
   -2.3646    0.5495    3.6099 H   0  0  0  0  0  0  0  0  0  0  0  0
   -3.3078    3.0643    2.7928 H   0  0  0  0  0  0  0  0  0  0  0  0
   -4.5421    4.1566    0.9293 H   0  0  0  0  0  0  0  0  0  0  0  0
   -5.3231    2.8343   -1.0047 H   0  0  0  0  0  0  0  0  0  0  0  0
   -4.8938    0.4002   -1.1238 H   0  0  0  0  0  0  0  0  0  0  0  0
  1  2  2  0
  2  3  1  0
  3  4  1  0
  4  5  1  0
  5  6  1  0
  2  7  1  0
  7  8  2  0
  8  9  1  0
  9 10  2  0
 10 11  1  0
 11 12  2  0
 11 13  1  0
 13 14  2  0
 13 15  1  0
 15 16  1  0
 16 17  1  0
 17 18  1  0
 18 19  2  0
 19 20  1  0
 20 21  1  0
 21 22  2  0
 22 23  1  0
 23 24  2  0
 24 25  1  0
 25 26  2  0
 15 27  1  0
 27 28  2  0
 12  7  1  0
 26 18  1  0
 27 10  1  0
 26 21  1  0
  3 29  1  0
  4 30  1  0
  4 31  1  0
  5 32  1  0
  5 33  1  0
  6 34  1  0
  8 35  1  0
  9 36  1  0
 12 37  1  0
 16 38  1  0
 16 39  1  0
 17 40  1  0
 17 41  1  0
 19 42  1  0
 20 43  1  0
 22 44  1  0
 23 45  1  0
 24 46  1  0
 25 47  1  0
M  END
$$$$
