
     RDKit          3D

 41 44  0  0  0  0  0  0  0  0999 V2000
    6.6708    1.6084    0.0891 C   0  0  0  0  0  0  0  0  0  0  0  0
    5.3127    0.7967   -0.7271 S   0  0  0  0  0  6  0  0  0  0  0  0
    5.6478   -0.6025   -0.8955 O   0  0  0  0  0  0  0  0  0  0  0  0
    4.9510    1.6226   -1.8601 O   0  0  0  0  0  0  0  0  0  0  0  0
    4.1033    0.9116    0.4737 N   0  0  0  0  0  0  0  0  0  0  0  0
    4.2959    0.0284    1.6780 C   0  0  0  0  0  0  0  0  0  0  0  0
    3.1679   -1.0155    1.6458 C   0  0  0  0  0  0  0  0  0  0  0  0
    2.1841   -0.3898    0.7124 C   0  0  0  0  0  0  0  0  0  0  0  0
    0.8798   -0.7928    0.4523 C   0  0  0  0  0  0  0  0  0  0  0  0
    0.1388   -0.0812   -0.5026 C   0  0  0  0  0  0  0  0  0  0  0  0
   -1.2711   -0.4352   -0.8493 C   0  0  0  0  0  0  0  0  0  0  0  0
   -1.7684    0.0221   -1.8787 O   0  0  0  0  0  0  0  0  0  0  0  0
   -2.0413   -1.3925    0.0527 C   0  0  0  0  0  0  0  0  0  0  0  0
   -3.4593   -1.0691    0.0013 N   0  0  0  0  0  0  0  0  0  0  0  0
   -4.2748   -1.6591   -0.9508 C   0  0  0  0  0  0  0  0  0  0  0  0
   -5.5476   -1.4688   -1.1171 N   0  0  0  0  0  0  0  0  0  0  0  0
   -6.0962   -0.5343   -0.2318 C   0  0  0  0  0  0  0  0  0  0  0  0
   -7.4592   -0.1643   -0.2244 C   0  0  0  0  0  0  0  0  0  0  0  0
   -7.7083    0.7813    0.7517 C   0  0  0  0  0  0  0  0  0  0  0  0
   -6.2870    1.1952    1.6312 S   0  0  0  0  0  0  0  0  0  0  0  0
   -5.3545    0.1193    0.7114 C   0  0  0  0  0  0  0  0  0  0  0  0
   -3.9487   -0.1048    0.8815 C   0  0  0  0  0  0  0  0  0  0  0  0
   -3.2313    0.4621    1.7045 O   0  0  0  0  0  0  0  0  0  0  0  0
    0.7339    1.0008   -1.1866 C   0  0  0  0  0  0  0  0  0  0  0  0
    2.0531    1.3848   -0.9226 C   0  0  0  0  0  0  0  0  0  0  0  0
    2.7641    0.6715    0.0228 C   0  0  0  0  0  0  0  0  0  0  0  0
    7.5106    1.6374   -0.6090 H   0  0  0  0  0  0  0  0  0  0  0  0
    6.3708    2.6259    0.3466 H   0  0  0  0  0  0  0  0  0  0  0  0
    6.9548    1.0451    0.9787 H   0  0  0  0  0  0  0  0  0  0  0  0
    4.2043    0.6636    2.5681 H   0  0  0  0  0  0  0  0  0  0  0  0
    5.2783   -0.4499    1.7229 H   0  0  0  0  0  0  0  0  0  0  0  0
    3.5270   -1.9621    1.2282 H   0  0  0  0  0  0  0  0  0  0  0  0
    2.7531   -1.1852    2.6434 H   0  0  0  0  0  0  0  0  0  0  0  0
    0.4803   -1.6500    0.9822 H   0  0  0  0  0  0  0  0  0  0  0  0
   -1.8776   -2.4125   -0.3103 H   0  0  0  0  0  0  0  0  0  0  0  0
   -1.7031   -1.3159    1.0892 H   0  0  0  0  0  0  0  0  0  0  0  0
   -3.7492   -2.3666   -1.6132 H   0  0  0  0  0  0  0  0  0  0  0  0
   -8.2142   -0.5594   -0.8915 H   0  0  0  0  0  0  0  0  0  0  0  0
   -8.6506    1.2535    0.9937 H   0  0  0  0  0  0  0  0  0  0  0  0
    0.1660    1.5551   -1.9334 H   0  0  0  0  0  0  0  0  0  0  0  0
    2.4938    2.2260   -1.4481 H   0  0  0  0  0  0  0  0  0  0  0  0
  1  2  1  0
  2  3  2  0
  2  4  2  0
  2  5  1  0
  5  6  1  0
  6  7  1  0
  7  8  1  0
  8  9  2  0
  9 10  1  0
 10 11  1  0
 11 12  2  0
 11 13  1  0
 13 14  1  0
 14 15  1  0
 15 16  2  0
 16 17  1  0
 17 18  1  0
 18 19  2  0
 19 20  1  0
 20 21  1  0
 21 22  1  0
 22 23  2  0
 10 24  2  0
 24 25  1  0
 25 26  2  0
 26  5  1  0
 26  8  1  0
 22 14  1  0
 21 17  2  0
  1 27  1  0
  1 28  1  0
  1 29  1  0
  6 30  1  0
  6 31  1  0
  7 32  1  0
  7 33  1  0
  9 34  1  0
 13 35  1  0
 13 36  1  0
 15 37  1  0
 18 38  1  0
 19 39  1  0
 24 40  1  0
 25 41  1  0
M  END
$$$$
