
     RDKit          3D

 45 48  0  0  0  0  0  0  0  0999 V2000
    3.4849   -2.2071    1.6429 C   0  0  0  0  0  0  0  0  0  0  0  0
    3.2838   -0.8831    1.0593 N   0  0  0  0  0  0  0  0  0  0  0  0
    2.2820   -0.0969    1.8150 C   0  0  0  0  0  0  0  0  0  0  0  0
    0.8120   -0.5383    1.6139 C   0  0  0  0  0  0  0  0  0  0  0  0
    0.4445   -0.6189    0.1806 N   0  0  0  0  0  0  0  0  0  0  0  0
   -0.0460    0.5037   -0.4182 C   0  0  0  0  0  0  0  0  0  0  0  0
    0.2251    1.7025    0.1830 O   0  0  0  0  0  0  0  0  0  0  0  0
   -0.3526    2.6578   -0.6121 C   0  0  0  0  0  0  0  0  0  0  0  0
   -0.2724    4.0608   -0.3280 C   0  0  0  0  0  0  0  0  0  0  0  0
   -0.8039    5.1182   -1.0499 C   0  0  0  0  0  0  0  0  0  0  0  0
   -0.4571    6.3099   -0.3694 C   0  0  0  0  0  0  0  0  0  0  0  0
    0.2660    5.9193    0.7305 C   0  0  0  0  0  0  0  0  0  0  0  0
    0.3830    4.5681    0.7675 O   0  0  0  0  0  0  0  0  0  0  0  0
   -0.9956    2.1573   -1.6496 N   0  0  0  0  0  0  0  0  0  0  0  0
   -0.8208    0.7850   -1.5272 C   0  0  0  0  0  0  0  0  0  0  0  0
   -1.5697   -0.3539   -2.5845 S   0  0  0  0  0  6  0  0  0  0  0  0
   -2.7028    0.3341   -3.1738 O   0  0  0  0  0  0  0  0  0  0  0  0
   -0.4855   -0.8747   -3.3973 O   0  0  0  0  0  0  0  0  0  0  0  0
   -2.2143   -1.6558   -1.5709 C   0  0  0  0  0  0  0  0  0  0  0  0
   -3.2028   -1.3596   -0.6262 C   0  0  0  0  0  0  0  0  0  0  0  0
   -3.7154   -2.3816    0.1719 C   0  0  0  0  0  0  0  0  0  0  0  0
   -3.2487   -3.6885    0.0188 C   0  0  0  0  0  0  0  0  0  0  0  0
   -2.2730   -3.9810   -0.9361 C   0  0  0  0  0  0  0  0  0  0  0  0
   -1.7545   -2.9652   -1.7389 C   0  0  0  0  0  0  0  0  0  0  0  0
    1.4095   -1.4341   -0.5926 C   0  0  0  0  0  0  0  0  0  0  0  0
    2.8670   -0.9657   -0.3582 C   0  0  0  0  0  0  0  0  0  0  0  0
    3.8404   -2.1172    2.6755 H   0  0  0  0  0  0  0  0  0  0  0  0
    2.5802   -2.8228    1.6484 H   0  0  0  0  0  0  0  0  0  0  0  0
    4.2621   -2.7505    1.0939 H   0  0  0  0  0  0  0  0  0  0  0  0
    2.3853    0.9513    1.5074 H   0  0  0  0  0  0  0  0  0  0  0  0
    2.5240   -0.1121    2.8848 H   0  0  0  0  0  0  0  0  0  0  0  0
    0.1384    0.1360    2.1578 H   0  0  0  0  0  0  0  0  0  0  0  0
    0.6622   -1.5298    2.0586 H   0  0  0  0  0  0  0  0  0  0  0  0
   -1.3750    5.0246   -1.9645 H   0  0  0  0  0  0  0  0  0  0  0  0
   -0.7030    7.3253   -0.6472 H   0  0  0  0  0  0  0  0  0  0  0  0
    0.7429    6.4517    1.5418 H   0  0  0  0  0  0  0  0  0  0  0  0
   -3.5811   -0.3459   -0.5124 H   0  0  0  0  0  0  0  0  0  0  0  0
   -4.4836   -2.1625    0.9098 H   0  0  0  0  0  0  0  0  0  0  0  0
   -3.6536   -4.4839    0.6405 H   0  0  0  0  0  0  0  0  0  0  0  0
   -1.9219   -5.0030   -1.0571 H   0  0  0  0  0  0  0  0  0  0  0  0
   -1.0011   -3.2023   -2.4865 H   0  0  0  0  0  0  0  0  0  0  0  0
    1.1998   -1.4051   -1.6644 H   0  0  0  0  0  0  0  0  0  0  0  0
    1.2999   -2.4816   -0.2874 H   0  0  0  0  0  0  0  0  0  0  0  0
    3.5536   -1.6173   -0.9125 H   0  0  0  0  0  0  0  0  0  0  0  0
    2.9875    0.0328   -0.7989 H   0  0  0  0  0  0  0  0  0  0  0  0
  1  2  1  0
  2  3  1  0
  3  4  1  0
  4  5  1  0
  5  6  1  0
  6  7  1  0
  7  8  1  0
  8  9  1  0
  9 10  2  0
 10 11  1  0
 11 12  2  0
 12 13  1  0
  8 14  2  0
 14 15  1  0
 15 16  1  0
 16 17  2  0
 16 18  2  0
 16 19  1  0
 19 20  2  0
 20 21  1  0
 21 22  2  0
 22 23  1  0
 23 24  2  0
  5 25  1  0
 25 26  1  0
 26  2  1  0
 15  6  2  0
 24 19  1  0
 13  9  1  0
  1 27  1  0
  1 28  1  0
  1 29  1  0
  3 30  1  0
  3 31  1  0
  4 32  1  0
  4 33  1  0
 10 34  1  0
 11 35  1  0
 12 36  1  0
 20 37  1  0
 21 38  1  0
 22 39  1  0
 23 40  1  0
 24 41  1  0
 25 42  1  0
 25 43  1  0
 26 44  1  0
 26 45  1  0
M  END
$$$$
