
     RDKit          3D

 43 45  0  0  0  0  0  0  0  0999 V2000
   -5.1791    2.2659   -1.0997 C   0  0  0  0  0  0  0  0  0  0  0  0
   -4.8989    0.9904   -1.6787 O   0  0  0  0  0  0  0  0  0  0  0  0
   -5.1830   -0.0131   -0.7903 C   0  0  0  0  0  0  0  0  0  0  0  0
   -6.5163   -0.4015   -0.6265 C   0  0  0  0  0  0  0  0  0  0  0  0
   -6.8345   -1.4764    0.2032 C   0  0  0  0  0  0  0  0  0  0  0  0
   -5.8210   -2.1766    0.8559 C   0  0  0  0  0  0  0  0  0  0  0  0
   -4.4857   -1.8058    0.6779 C   0  0  0  0  0  0  0  0  0  0  0  0
   -4.1593   -0.7220   -0.1491 C   0  0  0  0  0  0  0  0  0  0  0  0
   -2.7404   -0.3497   -0.3186 C   0  0  0  0  0  0  0  0  0  0  0  0
   -2.3061    0.8696   -0.3867 N   0  0  0  0  0  0  0  0  0  0  0  0
   -0.9047    0.7994   -0.5516 O   0  0  0  0  0  0  0  0  0  0  0  0
   -0.5807   -0.5327   -0.9643 C   0  0  0  0  0  0  0  0  0  0  0  0
    0.8038   -0.9353   -0.4538 C   0  0  0  0  0  0  0  0  0  0  0  0
    1.0746   -2.1066   -0.2033 O   0  0  0  0  0  0  0  0  0  0  0  0
    1.6746    0.1413   -0.3892 N   0  0  0  0  0  0  0  0  0  0  0  0
    3.0335    0.1372   -0.0250 C   0  0  0  0  0  0  0  0  0  0  0  0
    3.7624   -1.0169    0.2599 C   0  0  0  0  0  0  0  0  0  0  0  0
    5.1156   -0.9326    0.6116 C   0  0  0  0  0  0  0  0  0  0  0  0
    5.7599    0.3078    0.6825 C   0  0  0  0  0  0  0  0  0  0  0  0
    7.2039    0.3429    1.0624 C   0  0  0  0  0  0  0  0  0  0  0  0
    7.9007    1.6750    1.1575 C   0  0  0  0  0  0  0  0  0  0  0  0
    7.8047   -0.7049    1.2910 O   0  0  0  0  0  0  0  0  0  0  0  0
    5.0331    1.4665    0.3949 C   0  0  0  0  0  0  0  0  0  0  0  0
    3.6800    1.3778    0.0431 C   0  0  0  0  0  0  0  0  0  0  0  0
   -1.6807   -1.3934   -0.3943 C   0  0  0  0  0  0  0  0  0  0  0  0
   -6.2585    2.4484   -1.0761 H   0  0  0  0  0  0  0  0  0  0  0  0
   -4.7573    2.3621   -0.0927 H   0  0  0  0  0  0  0  0  0  0  0  0
   -4.7204    3.0298   -1.7345 H   0  0  0  0  0  0  0  0  0  0  0  0
   -7.3062    0.1221   -1.1584 H   0  0  0  0  0  0  0  0  0  0  0  0
   -7.8724   -1.7741    0.3320 H   0  0  0  0  0  0  0  0  0  0  0  0
   -6.0707   -3.0152    1.5021 H   0  0  0  0  0  0  0  0  0  0  0  0
   -3.7153   -2.3637    1.2037 H   0  0  0  0  0  0  0  0  0  0  0  0
   -0.5691   -0.5612   -2.0605 H   0  0  0  0  0  0  0  0  0  0  0  0
    1.2473    1.0486   -0.5554 H   0  0  0  0  0  0  0  0  0  0  0  0
    3.3130   -2.0043    0.2168 H   0  0  0  0  0  0  0  0  0  0  0  0
    5.6621   -1.8491    0.8299 H   0  0  0  0  0  0  0  0  0  0  0  0
    7.9022    2.1720    0.1840 H   0  0  0  0  0  0  0  0  0  0  0  0
    8.9409    1.5156    1.4585 H   0  0  0  0  0  0  0  0  0  0  0  0
    7.4221    2.3003    1.9156 H   0  0  0  0  0  0  0  0  0  0  0  0
    5.4895    2.4510    0.4353 H   0  0  0  0  0  0  0  0  0  0  0  0
    3.1392    2.2963   -0.1746 H   0  0  0  0  0  0  0  0  0  0  0  0
   -1.4548   -1.7578    0.6128 H   0  0  0  0  0  0  0  0  0  0  0  0
   -1.9478   -2.2272   -1.0474 H   0  0  0  0  0  0  0  0  0  0  0  0
  1  2  1  0
  2  3  1  0
  3  4  2  0
  4  5  1  0
  5  6  2  0
  6  7  1  0
  7  8  2  0
  8  9  1  0
  9 10  2  0
 10 11  1  0
 11 12  1  0
 12 13  1  0
 13 14  2  0
 13 15  1  0
 15 16  1  0
 16 17  2  0
 17 18  1  0
 18 19  2  0
 19 20  1  0
 20 21  1  0
 20 22  2  0
 19 23  1  0
 23 24  2  0
 12 25  1  0
  8  3  1  0
 25  9  1  0
 24 16  1  0
  1 26  1  0
  1 27  1  0
  1 28  1  0
  4 29  1  0
  5 30  1  0
  6 31  1  0
  7 32  1  0
 12 33  1  0
 15 34  1  0
 17 35  1  0
 18 36  1  0
 21 37  1  0
 21 38  1  0
 21 39  1  0
 23 40  1  0
 24 41  1  0
 25 42  1  0
 25 43  1  0
M  END
$$$$
