
     RDKit          3D

 49 52  0  0  0  0  0  0  0  0999 V2000
   -7.7228   -0.5001   -0.7805 C   0  0  0  0  0  0  0  0  0  0  0  0
   -6.3798   -0.9552   -0.8810 O   0  0  0  0  0  0  0  0  0  0  0  0
   -5.4056   -0.2041   -0.2751 C   0  0  0  0  0  0  0  0  0  0  0  0
   -5.6335    1.0382    0.3329 C   0  0  0  0  0  0  0  0  0  0  0  0
   -4.5907    1.7362    0.9456 C   0  0  0  0  0  0  0  0  0  0  0  0
   -3.3092    1.1981    0.9569 C   0  0  0  0  0  0  0  0  0  0  0  0
   -3.0690   -0.0349    0.3382 C   0  0  0  0  0  0  0  0  0  0  0  0
   -1.6938   -0.5817    0.4052 C   0  0  0  0  0  0  0  0  0  0  0  0
   -1.4990   -1.6023    1.0569 O   0  0  0  0  0  0  0  0  0  0  0  0
   -0.6951    0.1063   -0.2645 N   0  0  0  0  0  0  0  0  0  0  0  0
   -0.9172    1.1115   -1.2976 C   0  0  0  0  0  0  0  0  0  0  0  0
    0.2976    0.9949   -2.2035 C   0  0  0  0  0  0  0  0  0  0  0  0
    1.4006    0.6005   -1.2334 C   0  0  0  0  0  0  0  0  0  0  0  0
    0.6956   -0.3729   -0.2730 C   0  0  0  0  0  0  0  0  0  0  0  0
    1.3521   -0.4076    1.1145 C   0  0  0  0  0  0  0  0  0  0  0  0
    2.7694   -0.8449    1.0620 C   0  0  0  0  0  0  0  0  0  0  0  0
    3.1317   -2.1312    0.9843 N   0  0  0  0  0  0  0  0  0  0  0  0
    4.5246   -2.0683    0.9549 O   0  0  0  0  0  0  0  0  0  0  0  0
    4.8638   -0.7424    1.0107 C   0  0  0  0  0  0  0  0  0  0  0  0
    6.2876   -0.4367    0.9869 C   0  0  0  0  0  0  0  0  0  0  0  0
    7.2704   -1.4214    0.9615 C   0  0  0  0  0  0  0  0  0  0  0  0
    8.5997   -1.1415    0.9379 N   0  0  0  0  0  0  0  0  0  0  0  0
    8.9129    0.1730    0.9424 C   0  0  0  0  0  0  0  0  0  0  0  0
    7.9456    1.1620    0.9677 C   0  0  0  0  0  0  0  0  0  0  0  0
    6.6216    0.8832    0.9892 N   0  0  0  0  0  0  0  0  0  0  0  0
    3.8101    0.0473    1.0709 N   0  0  0  0  0  0  0  0  0  0  0  0
   -4.1063   -0.7497   -0.2928 C   0  0  0  0  0  0  0  0  0  0  0  0
   -3.8412   -2.0947   -0.9187 C   0  0  0  0  0  0  0  0  0  0  0  0
   -8.3643   -1.2441   -1.2626 H   0  0  0  0  0  0  0  0  0  0  0  0
   -8.0371   -0.4179    0.2652 H   0  0  0  0  0  0  0  0  0  0  0  0
   -7.8570    0.4478   -1.3117 H   0  0  0  0  0  0  0  0  0  0  0  0
   -6.6201    1.4902    0.3532 H   0  0  0  0  0  0  0  0  0  0  0  0
   -4.7844    2.6925    1.4250 H   0  0  0  0  0  0  0  0  0  0  0  0
   -2.5020    1.7277    1.4569 H   0  0  0  0  0  0  0  0  0  0  0  0
   -0.9495    2.0905   -0.8076 H   0  0  0  0  0  0  0  0  0  0  0  0
   -1.8510    0.9443   -1.8412 H   0  0  0  0  0  0  0  0  0  0  0  0
    0.5120    1.9214   -2.7428 H   0  0  0  0  0  0  0  0  0  0  0  0
    0.1457    0.1946   -2.9379 H   0  0  0  0  0  0  0  0  0  0  0  0
    1.7520    1.4937   -0.7018 H   0  0  0  0  0  0  0  0  0  0  0  0
    2.2565    0.1441   -1.7395 H   0  0  0  0  0  0  0  0  0  0  0  0
    0.6831   -1.3799   -0.7115 H   0  0  0  0  0  0  0  0  0  0  0  0
    0.8043   -1.0777    1.7861 H   0  0  0  0  0  0  0  0  0  0  0  0
    1.2950    0.5865    1.5764 H   0  0  0  0  0  0  0  0  0  0  0  0
    7.0293   -2.4796    0.9599 H   0  0  0  0  0  0  0  0  0  0  0  0
    9.9703    0.4122    0.9253 H   0  0  0  0  0  0  0  0  0  0  0  0
    8.2095    2.2136    0.9715 H   0  0  0  0  0  0  0  0  0  0  0  0
   -4.5599   -2.3252   -1.7115 H   0  0  0  0  0  0  0  0  0  0  0  0
   -2.8550   -2.1249   -1.3934 H   0  0  0  0  0  0  0  0  0  0  0  0
   -3.8977   -2.8782   -0.1568 H   0  0  0  0  0  0  0  0  0  0  0  0
  1  2  1  0
  2  3  1  0
  3  4  2  0
  4  5  1  0
  5  6  2  0
  6  7  1  0
  7  8  1  0
  8  9  2  0
  8 10  1  0
 10 11  1  0
 11 12  1  0
 12 13  1  0
 13 14  1  0
 14 15  1  0
 15 16  1  0
 16 17  2  0
 17 18  1  0
 18 19  1  0
 19 20  1  0
 20 21  2  0
 21 22  1  0
 22 23  2  0
 23 24  1  0
 24 25  2  0
 19 26  2  0
  7 27  2  0
 27 28  1  0
 27  3  1  0
 14 10  1  0
 26 16  1  0
 25 20  1  0
  1 29  1  0
  1 30  1  0
  1 31  1  0
  4 32  1  0
  5 33  1  0
  6 34  1  0
 11 35  1  0
 11 36  1  0
 12 37  1  0
 12 38  1  0
 13 39  1  0
 13 40  1  0
 14 41  1  0
 15 42  1  0
 15 43  1  0
 21 44  1  0
 23 45  1  0
 24 46  1  0
 28 47  1  0
 28 48  1  0
 28 49  1  0
M  END
$$$$
