
     RDKit          3D

 48 51  0  0  0  0  0  0  0  0999 V2000
   -7.2414    2.3957    0.8405 C   0  0  0  0  0  0  0  0  0  0  0  0
   -6.6967    1.5852   -0.1932 O   0  0  0  0  0  0  0  0  0  0  0  0
   -5.6228    0.8034    0.1323 C   0  0  0  0  0  0  0  0  0  0  0  0
   -5.1518   -0.0011   -0.9112 C   0  0  0  0  0  0  0  0  0  0  0  0
   -4.0622   -0.8517   -0.7194 C   0  0  0  0  0  0  0  0  0  0  0  0
   -3.4367   -0.8885    0.5280 C   0  0  0  0  0  0  0  0  0  0  0  0
   -2.0498   -1.9720    0.7642 S   0  0  0  0  0  6  0  0  0  0  0  0
   -1.5579   -1.7981    2.1159 O   0  0  0  0  0  0  0  0  0  0  0  0
   -2.4375   -3.2748    0.2690 O   0  0  0  0  0  0  0  0  0  0  0  0
   -0.8772   -1.3082   -0.2872 N   0  0  0  0  0  0  0  0  0  0  0  0
   -0.4908    0.1034   -0.0167 C   0  0  0  0  0  0  0  0  0  0  0  0
    0.9067    0.4154   -0.5306 C   0  0  0  0  0  0  0  0  0  0  0  0
    1.9394   -0.4801    0.1647 C   0  0  0  0  0  0  0  0  0  0  0  0
    3.2416   -0.3650   -0.4731 N   0  0  0  0  0  0  0  0  0  0  0  0
    3.5823   -0.8612   -1.7521 C   0  0  0  0  0  0  0  0  0  0  0  0
    2.8858   -1.5138   -2.5111 O   0  0  0  0  0  0  0  0  0  0  0  0
    4.8986   -0.4530   -2.0051 N   0  0  0  0  0  0  0  0  0  0  0  0
    5.3536    0.3005   -0.9315 C   0  0  0  0  0  0  0  0  0  0  0  0
    6.5729    0.9158   -0.7650 C   0  0  0  0  0  0  0  0  0  0  0  0
    6.7601    1.6304    0.4210 C   0  0  0  0  0  0  0  0  0  0  0  0
    5.7367    1.7093    1.3887 C   0  0  0  0  0  0  0  0  0  0  0  0
    4.5037    1.0742    1.1928 C   0  0  0  0  0  0  0  0  0  0  0  0
    4.3348    0.3696    0.0201 C   0  0  0  0  0  0  0  0  0  0  0  0
    1.4605   -1.9384    0.2734 C   0  0  0  0  0  0  0  0  0  0  0  0
    0.2572   -2.2169   -0.6158 C   0  0  0  0  0  0  0  0  0  0  0  0
   -3.8975   -0.0945    1.5803 C   0  0  0  0  0  0  0  0  0  0  0  0
   -4.9918    0.7534    1.3784 C   0  0  0  0  0  0  0  0  0  0  0  0
   -8.1012    2.9316    0.4273 H   0  0  0  0  0  0  0  0  0  0  0  0
   -7.5998    1.7859    1.6764 H   0  0  0  0  0  0  0  0  0  0  0  0
   -6.5148    3.1420    1.1782 H   0  0  0  0  0  0  0  0  0  0  0  0
   -5.6439    0.0330   -1.8809 H   0  0  0  0  0  0  0  0  0  0  0  0
   -3.7084   -1.4774   -1.5357 H   0  0  0  0  0  0  0  0  0  0  0  0
   -1.2100    0.7595   -0.5193 H   0  0  0  0  0  0  0  0  0  0  0  0
   -0.5319    0.3207    1.0565 H   0  0  0  0  0  0  0  0  0  0  0  0
    1.1469    1.4691   -0.3441 H   0  0  0  0  0  0  0  0  0  0  0  0
    0.9392    0.2835   -1.6193 H   0  0  0  0  0  0  0  0  0  0  0  0
    2.0495   -0.1229    1.1956 H   0  0  0  0  0  0  0  0  0  0  0  0
    5.3946   -0.6664   -2.8547 H   0  0  0  0  0  0  0  0  0  0  0  0
    7.3537    0.8545   -1.5132 H   0  0  0  0  0  0  0  0  0  0  0  0
    7.7072    2.1352    0.6022 H   0  0  0  0  0  0  0  0  0  0  0  0
    5.9111    2.2727    2.3037 H   0  0  0  0  0  0  0  0  0  0  0  0
    3.7298    1.1428    1.9466 H   0  0  0  0  0  0  0  0  0  0  0  0
    1.1755   -2.1329    1.3158 H   0  0  0  0  0  0  0  0  0  0  0  0
    2.2669   -2.6455    0.0466 H   0  0  0  0  0  0  0  0  0  0  0  0
   -0.0385   -3.2661   -0.5128 H   0  0  0  0  0  0  0  0  0  0  0  0
    0.5019   -2.0854   -1.6752 H   0  0  0  0  0  0  0  0  0  0  0  0
   -3.4188   -0.1313    2.5569 H   0  0  0  0  0  0  0  0  0  0  0  0
   -5.3288    1.3582    2.2144 H   0  0  0  0  0  0  0  0  0  0  0  0
  1  2  1  0
  2  3  1  0
  3  4  2  0
  4  5  1  0
  5  6  2  0
  6  7  1  0
  7  8  2  0
  7  9  2  0
  7 10  1  0
 10 11  1  0
 11 12  1  0
 12 13  1  0
 13 14  1  0
 14 15  1  0
 15 16  2  0
 15 17  1  0
 17 18  1  0
 18 19  2  0
 19 20  1  0
 20 21  2  0
 21 22  1  0
 22 23  2  0
 13 24  1  0
 24 25  1  0
  6 26  1  0
 26 27  2  0
 27  3  1  0
 25 10  1  0
 23 14  1  0
 23 18  1  0
  1 28  1  0
  1 29  1  0
  1 30  1  0
  4 31  1  0
  5 32  1  0
 11 33  1  0
 11 34  1  0
 12 35  1  0
 12 36  1  0
 13 37  1  0
 17 38  1  0
 19 39  1  0
 20 40  1  0
 21 41  1  0
 22 42  1  0
 24 43  1  0
 24 44  1  0
 25 45  1  0
 25 46  1  0
 26 47  1  0
 27 48  1  0
M  END
$$$$
