
     RDKit          3D

 51 53  0  0  0  0  0  0  0  0999 V2000
   -4.6816   -0.6107    2.2423 C   0  0  0  0  0  0  0  0  0  0  0  0
   -4.3491   -0.2546    0.7948 C   0  0  0  0  0  0  0  0  0  0  0  0
   -3.2958   -1.1259    0.2419 N   0  0  0  0  0  0  0  0  0  0  0  0
   -3.8122   -2.4781   -0.0574 C   0  0  0  0  0  0  0  0  0  0  0  0
   -4.4365   -2.4004   -1.4466 C   0  0  0  0  0  0  0  0  0  0  0  0
   -3.8314   -1.1596   -2.0918 C   0  0  0  0  0  0  0  0  0  0  0  0
   -2.7853   -0.6841   -1.0892 C   0  0  0  0  0  0  0  0  0  0  0  0
   -2.4054    0.7962   -1.2535 C   0  0  0  0  0  0  0  0  0  0  0  0
   -1.4761    1.2093   -0.2183 N   0  0  0  0  0  0  0  0  0  0  0  0
   -0.8544    2.4359   -0.2405 C   0  0  0  0  0  0  0  0  0  0  0  0
   -1.0220    3.2512   -1.1449 O   0  0  0  0  0  0  0  0  0  0  0  0
    0.0148    2.7380    0.9617 C   0  0  0  0  0  0  0  0  0  0  0  0
    1.1138    1.7953    1.1088 N   0  0  0  0  0  0  0  0  0  0  0  0
    1.2197    0.8829    2.1266 C   0  0  0  0  0  0  0  0  0  0  0  0
    2.3917    0.1860    1.9434 C   0  0  0  0  0  0  0  0  0  0  0  0
    3.0370    0.6946    0.7744 C   0  0  0  0  0  0  0  0  0  0  0  0
    4.2488    0.3851    0.0984 C   0  0  0  0  0  0  0  0  0  0  0  0
    5.0677   -0.6383    0.6268 N   0  0  0  0  0  0  0  0  0  0  0  0
    6.2686   -1.1067    0.1285 C   0  0  0  0  0  0  0  0  0  0  0  0
    6.8466   -2.2129    0.9753 C   0  0  0  0  0  0  0  0  0  0  0  0
    6.8441   -0.7388   -0.8884 O   0  0  0  0  0  0  0  0  0  0  0  0
    4.5686    1.1127   -1.0562 C   0  0  0  0  0  0  0  0  0  0  0  0
    3.7262    2.1152   -1.5358 C   0  0  0  0  0  0  0  0  0  0  0  0
    2.5363    2.4324   -0.8827 C   0  0  0  0  0  0  0  0  0  0  0  0
    2.2101    1.7082    0.2729 C   0  0  0  0  0  0  0  0  0  0  0  0
   -3.7800   -0.6042    2.8649 H   0  0  0  0  0  0  0  0  0  0  0  0
   -5.3767    0.1282    2.6553 H   0  0  0  0  0  0  0  0  0  0  0  0
   -5.1565   -1.5913    2.3309 H   0  0  0  0  0  0  0  0  0  0  0  0
   -5.2634   -0.2699    0.1908 H   0  0  0  0  0  0  0  0  0  0  0  0
   -4.0035    0.7827    0.8207 H   0  0  0  0  0  0  0  0  0  0  0  0
   -2.9628   -3.1728   -0.0794 H   0  0  0  0  0  0  0  0  0  0  0  0
   -4.5114   -2.8748    0.6853 H   0  0  0  0  0  0  0  0  0  0  0  0
   -4.2196   -3.3024   -2.0276 H   0  0  0  0  0  0  0  0  0  0  0  0
   -5.5247   -2.2957   -1.3833 H   0  0  0  0  0  0  0  0  0  0  0  0
   -3.3833   -1.3926   -3.0638 H   0  0  0  0  0  0  0  0  0  0  0  0
   -4.6105   -0.4052   -2.2523 H   0  0  0  0  0  0  0  0  0  0  0  0
   -1.8631   -1.2620   -1.2580 H   0  0  0  0  0  0  0  0  0  0  0  0
   -3.2821    1.4515   -1.2011 H   0  0  0  0  0  0  0  0  0  0  0  0
   -1.9353    0.9664   -2.2287 H   0  0  0  0  0  0  0  0  0  0  0  0
   -1.4098    0.6104    0.5982 H   0  0  0  0  0  0  0  0  0  0  0  0
   -0.5984    2.7113    1.8687 H   0  0  0  0  0  0  0  0  0  0  0  0
    0.4479    3.7400    0.8712 H   0  0  0  0  0  0  0  0  0  0  0  0
    0.4614    0.7981    2.8961 H   0  0  0  0  0  0  0  0  0  0  0  0
    2.7458   -0.6056    2.5893 H   0  0  0  0  0  0  0  0  0  0  0  0
    4.7172   -1.0769    1.4679 H   0  0  0  0  0  0  0  0  0  0  0  0
    7.9353   -2.2231    0.8618 H   0  0  0  0  0  0  0  0  0  0  0  0
    6.4371   -3.1707    0.6454 H   0  0  0  0  0  0  0  0  0  0  0  0
    6.6194   -2.0614    2.0343 H   0  0  0  0  0  0  0  0  0  0  0  0
    5.4808    0.9171   -1.6115 H   0  0  0  0  0  0  0  0  0  0  0  0
    4.0029    2.6571   -2.4368 H   0  0  0  0  0  0  0  0  0  0  0  0
    1.8885    3.2129   -1.2731 H   0  0  0  0  0  0  0  0  0  0  0  0
  1  2  1  0
  2  3  1  0
  3  4  1  0
  4  5  1  0
  5  6  1  0
  6  7  1  0
  7  8  1  0
  8  9  1  0
  9 10  1  0
 10 11  2  0
 10 12  1  0
 12 13  1  0
 13 14  1  0
 14 15  2  0
 15 16  1  0
 16 17  2  0
 17 18  1  0
 18 19  1  0
 19 20  1  0
 19 21  2  0
 17 22  1  0
 22 23  2  0
 23 24  1  0
 24 25  2  0
  7  3  1  0
 25 13  1  0
 25 16  1  0
  1 26  1  0
  1 27  1  0
  1 28  1  0
  2 29  1  0
  2 30  1  0
  4 31  1  0
  4 32  1  0
  5 33  1  0
  5 34  1  0
  6 35  1  0
  6 36  1  0
  7 37  1  0
  8 38  1  0
  8 39  1  0
  9 40  1  0
 12 41  1  0
 12 42  1  0
 14 43  1  0
 15 44  1  0
 18 45  1  0
 20 46  1  0
 20 47  1  0
 20 48  1  0
 22 49  1  0
 23 50  1  0
 24 51  1  0
M  END
$$$$
