
     RDKit          3D

 45 48  0  0  0  0  0  0  0  0999 V2000
   -6.1306    3.1758   -1.0065 C   0  0  0  0  0  0  0  0  0  0  0  0
   -4.8786    2.5138   -1.1241 O   0  0  0  0  0  0  0  0  0  0  0  0
   -4.7423    1.3085   -0.4858 C   0  0  0  0  0  0  0  0  0  0  0  0
   -5.7891    0.6008    0.1144 C   0  0  0  0  0  0  0  0  0  0  0  0
   -5.5561   -0.6202    0.7375 C   0  0  0  0  0  0  0  0  0  0  0  0
   -4.2762   -1.1793    0.7807 C   0  0  0  0  0  0  0  0  0  0  0  0
   -3.2086   -0.4883    0.1770 C   0  0  0  0  0  0  0  0  0  0  0  0
   -3.4407    0.7478   -0.4525 C   0  0  0  0  0  0  0  0  0  0  0  0
   -2.1966    1.2028   -0.9581 C   0  0  0  0  0  0  0  0  0  0  0  0
   -1.2446    0.2648   -0.6413 C   0  0  0  0  0  0  0  0  0  0  0  0
    0.1660    0.2586   -0.9212 C   0  0  0  0  0  0  0  0  0  0  0  0
    0.7321    1.1611   -1.5343 O   0  0  0  0  0  0  0  0  0  0  0  0
    0.8329   -0.8770   -0.4511 N   0  0  0  0  0  0  0  0  0  0  0  0
    2.2781   -0.9479   -0.6031 C   0  0  0  0  0  0  0  0  0  0  0  0
    2.9931   -0.1615    0.5027 C   0  0  0  0  0  0  0  0  0  0  0  0
    2.4076    0.3028    1.4829 O   0  0  0  0  0  0  0  0  0  0  0  0
    4.3616   -0.0220    0.3540 N   0  0  0  0  0  0  0  0  0  0  0  0
    5.1533    0.7242    1.3159 C   0  0  0  0  0  0  0  0  0  0  0  0
    6.4944    0.9275    0.6251 C   0  0  0  0  0  0  0  0  0  0  0  0
    6.6101   -0.3042   -0.2647 C   0  0  0  0  0  0  0  0  0  0  0  0
    5.1801   -0.5145   -0.7415 C   0  0  0  0  0  0  0  0  0  0  0  0
    0.2212   -1.9254    0.2172 N   0  0  0  0  0  0  0  0  0  0  0  0
   -1.0561   -1.8575    0.4550 C   0  0  0  0  0  0  0  0  0  0  0  0
   -1.7293   -2.9716    1.1869 C   0  0  0  0  0  0  0  0  0  0  0  0
   -1.8434   -0.7694    0.0435 N   0  0  0  0  0  0  0  0  0  0  0  0
   -6.9180    2.6200   -1.5258 H   0  0  0  0  0  0  0  0  0  0  0  0
   -6.0389    4.1524   -1.4916 H   0  0  0  0  0  0  0  0  0  0  0  0
   -6.3930    3.3488    0.0425 H   0  0  0  0  0  0  0  0  0  0  0  0
   -6.8061    0.9791    0.1080 H   0  0  0  0  0  0  0  0  0  0  0  0
   -6.3860   -1.1513    1.1999 H   0  0  0  0  0  0  0  0  0  0  0  0
   -4.1540   -2.1314    1.2820 H   0  0  0  0  0  0  0  0  0  0  0  0
   -2.0180    2.1268   -1.4950 H   0  0  0  0  0  0  0  0  0  0  0  0
    2.5889   -1.9970   -0.5552 H   0  0  0  0  0  0  0  0  0  0  0  0
    2.5533   -0.5355   -1.5791 H   0  0  0  0  0  0  0  0  0  0  0  0
    4.6662    1.6669    1.5827 H   0  0  0  0  0  0  0  0  0  0  0  0
    5.2556    0.1077    2.2157 H   0  0  0  0  0  0  0  0  0  0  0  0
    6.4634    1.8305    0.0036 H   0  0  0  0  0  0  0  0  0  0  0  0
    7.3226    1.0255    1.3320 H   0  0  0  0  0  0  0  0  0  0  0  0
    6.9366   -1.1631    0.3341 H   0  0  0  0  0  0  0  0  0  0  0  0
    7.3152   -0.1729   -1.0899 H   0  0  0  0  0  0  0  0  0  0  0  0
    4.9607    0.0933   -1.6260 H   0  0  0  0  0  0  0  0  0  0  0  0
    4.9579   -1.5623   -0.9603 H   0  0  0  0  0  0  0  0  0  0  0  0
   -2.1546   -2.6077    2.1254 H   0  0  0  0  0  0  0  0  0  0  0  0
   -2.4940   -3.4338    0.5578 H   0  0  0  0  0  0  0  0  0  0  0  0
   -0.9961   -3.7459    1.4364 H   0  0  0  0  0  0  0  0  0  0  0  0
  1  2  1  0
  2  3  1  0
  3  4  2  0
  4  5  1  0
  5  6  2  0
  6  7  1  0
  7  8  2  0
  8  9  1  0
  9 10  2  0
 10 11  1  0
 11 12  2  0
 11 13  1  0
 13 14  1  0
 14 15  1  0
 15 16  2  0
 15 17  1  0
 17 18  1  0
 18 19  1  0
 19 20  1  0
 20 21  1  0
 13 22  1  0
 22 23  2  0
 23 24  1  0
 23 25  1  0
  8  3  1  0
 25 10  1  0
 25  7  1  0
 21 17  1  0
  1 26  1  0
  1 27  1  0
  1 28  1  0
  4 29  1  0
  5 30  1  0
  6 31  1  0
  9 32  1  0
 14 33  1  0
 14 34  1  0
 18 35  1  0
 18 36  1  0
 19 37  1  0
 19 38  1  0
 20 39  1  0
 20 40  1  0
 21 41  1  0
 21 42  1  0
 24 43  1  0
 24 44  1  0
 24 45  1  0
M  END
$$$$
