
     RDKit          3D

 67 68  0  0  0  0  0  0  0  0999 V2000
    5.1620    0.7432    4.1228 C   0  0  0  0  0  0  0  0  0  0  0  0
    5.7278    1.1207    2.8848 O   0  0  0  0  0  0  0  0  0  0  0  0
    4.9749    0.8492    1.7355 C   0  0  0  0  0  0  0  0  0  0  0  0
    3.7397    0.2439    1.8116 C   0  0  0  0  0  0  0  0  0  0  0  0
    2.9737   -0.0346    0.6637 C   0  0  0  0  0  0  0  0  0  0  0  0
    1.6806   -0.6081    0.8664 C   0  0  0  0  0  0  0  0  0  0  0  0
    1.2065   -0.5765    2.0909 O   0  0  0  0  0  0  0  0  0  0  0  0
    0.7959   -1.2230   -0.0460 N   0  0  0  0  0  0  0  0  0  0  0  0
    1.1304   -1.4433   -1.4078 C   0  0  0  0  0  0  0  0  0  0  0  0
    0.2707   -2.5736   -1.9845 C   0  0  0  0  0  0  0  0  0  0  0  0
    0.1006   -3.5952   -0.8927 C   0  0  0  0  0  0  0  0  0  0  0  0
   -0.7462   -3.0507    0.2332 C   0  0  0  0  0  0  0  0  0  0  0  0
   -0.5423   -1.6006    0.4362 C   0  0  0  0  0  0  0  0  0  0  0  0
   -1.5917   -0.6734   -0.0726 C   0  0  0  0  0  0  0  0  0  0  0  0
   -2.9764   -1.0432    0.4135 C   0  0  0  0  0  0  0  0  0  0  0  0
   -3.9831   -0.1376   -0.0805 N   0  0  0  0  0  0  0  0  0  0  0  0
   -3.9130    1.1912    0.4481 C   0  0  0  0  0  0  0  0  0  0  0  0
   -4.9676    2.0792   -0.1984 C   0  0  0  0  0  0  0  0  0  0  0  0
   -6.3083    1.8845    0.4350 C   0  0  0  0  0  0  0  0  0  0  0  0
   -7.0954    0.8882   -0.3763 C   0  0  0  0  0  0  0  0  0  0  0  0
   -6.3007   -0.2803   -0.8612 C   0  0  0  0  0  0  0  0  0  0  0  0
   -5.2747   -0.7577    0.1233 C   0  0  0  0  0  0  0  0  0  0  0  0
    3.5427    0.3398   -0.5279 C   0  0  0  0  0  0  0  0  0  0  0  0
    4.7971    0.9533   -0.5966 C   0  0  0  0  0  0  0  0  0  0  0  0
    5.3486    1.3200   -1.8211 O   0  0  0  0  0  0  0  0  0  0  0  0
    4.6005    1.0522   -2.9927 C   0  0  0  0  0  0  0  0  0  0  0  0
    5.5308    1.2168    0.5329 C   0  0  0  0  0  0  0  0  0  0  0  0
    6.7757    1.8227    0.4989 O   0  0  0  0  0  0  0  0  0  0  0  0
    6.8891    3.2191    0.5600 C   0  0  0  0  0  0  0  0  0  0  0  0
    0.6882    0.0000    0.0000 Cl  0  0  0  0  0  0  0  0  0  0  0  0
    4.8756   -0.3389    4.0777 H   0  0  0  0  0  0  0  0  0  0  0  0
    4.2365    1.3077    4.3021 H   0  0  0  0  0  0  0  0  0  0  0  0
    5.8733    0.8844    4.9623 H   0  0  0  0  0  0  0  0  0  0  0  0
    3.3346   -0.0355    2.7802 H   0  0  0  0  0  0  0  0  0  0  0  0
    2.2082   -1.7733   -1.5272 H   0  0  0  0  0  0  0  0  0  0  0  0
    0.9470   -0.5665   -2.0558 H   0  0  0  0  0  0  0  0  0  0  0  0
   -0.6585   -2.1677   -2.3582 H   0  0  0  0  0  0  0  0  0  0  0  0
    0.8832   -3.0395   -2.8227 H   0  0  0  0  0  0  0  0  0  0  0  0
    1.0779   -3.9179   -0.4739 H   0  0  0  0  0  0  0  0  0  0  0  0
   -0.3902   -4.5352   -1.2685 H   0  0  0  0  0  0  0  0  0  0  0  0
   -1.7957   -3.3674    0.0720 H   0  0  0  0  0  0  0  0  0  0  0  0
   -0.4060   -3.6105    1.1477 H   0  0  0  0  0  0  0  0  0  0  0  0
   -0.5212   -1.4522    1.5806 H   0  0  0  0  0  0  0  0  0  0  0  0
   -1.5658   -0.4468   -1.1406 H   0  0  0  0  0  0  0  0  0  0  0  0
   -1.3753    0.3324    0.4289 H   0  0  0  0  0  0  0  0  0  0  0  0
   -3.0149   -1.1344    1.5138 H   0  0  0  0  0  0  0  0  0  0  0  0
   -3.2322   -2.0369   -0.0605 H   0  0  0  0  0  0  0  0  0  0  0  0
   -4.1085    1.1739    1.5392 H   0  0  0  0  0  0  0  0  0  0  0  0
   -2.9204    1.6145    0.2067 H   0  0  0  0  0  0  0  0  0  0  0  0
   -5.0522    1.8048   -1.2886 H   0  0  0  0  0  0  0  0  0  0  0  0
   -4.6421    3.1446   -0.2048 H   0  0  0  0  0  0  0  0  0  0  0  0
   -6.8681    2.8615    0.3475 H   0  0  0  0  0  0  0  0  0  0  0  0
   -6.2426    1.5999    1.5084 H   0  0  0  0  0  0  0  0  0  0  0  0
   -7.4618    1.4331   -1.2959 H   0  0  0  0  0  0  0  0  0  0  0  0
   -7.9544    0.5215    0.2243 H   0  0  0  0  0  0  0  0  0  0  0  0
   -5.8774   -0.0916   -1.8715 H   0  0  0  0  0  0  0  0  0  0  0  0
   -7.0329   -1.1257   -1.0091 H   0  0  0  0  0  0  0  0  0  0  0  0
   -5.1801   -1.8535    0.0460 H   0  0  0  0  0  0  0  0  0  0  0  0
   -5.6398   -0.5307    1.1356 H   0  0  0  0  0  0  0  0  0  0  0  0
    3.0274    0.2045   -1.4441 H   0  0  0  0  0  0  0  0  0  0  0  0
    4.4486   -0.0352   -3.0693 H   0  0  0  0  0  0  0  0  0  0  0  0
    5.1384    1.3643   -3.9082 H   0  0  0  0  0  0  0  0  0  0  0  0
    3.6374    1.6097   -2.9979 H   0  0  0  0  0  0  0  0  0  0  0  0
    7.8902    3.5762    0.2124 H   0  0  0  0  0  0  0  0  0  0  0  0
    6.7032    3.6661    1.5350 H   0  0  0  0  0  0  0  0  0  0  0  0
    6.1107    3.6343   -0.1454 H   0  0  0  0  0  0  0  0  0  0  0  0
   -0.6882    0.0000    0.0000 H   0  0  0  0  0  0  0  0  0  0  0  0
  1  2  1  0
  2  3  1  0
  3  4  2  0
  4  5  1  0
  5  6  1  0
  6  7  2  0
  6  8  1  0
  8  9  1  0
  9 10  1  0
 10 11  1  0
 11 12  1  0
 12 13  1  0
 13 14  1  0
 14 15  1  0
 15 16  1  0
 16 17  1  0
 17 18  1  0
 18 19  1  0
 19 20  1  0
 20 21  1  0
 21 22  1  0
  5 23  2  0
 23 24  1  0
 24 25  1  0
 25 26  1  0
 24 27  2  0
 27 28  1  0
 28 29  1  0
 27  3  1  0
 13  8  1  0
 22 16  1  0
  1 31  1  0
  1 32  1  0
  1 33  1  0
  4 34  1  0
  9 35  1  0
  9 36  1  0
 10 37  1  0
 10 38  1  0
 11 39  1  0
 11 40  1  0
 12 41  1  0
 12 42  1  0
 13 43  1  0
 14 44  1  0
 14 45  1  0
 15 46  1  0
 15 47  1  0
 17 48  1  0
 17 49  1  0
 18 50  1  0
 18 51  1  0
 19 52  1  0
 19 53  1  0
 20 54  1  0
 20 55  1  0
 21 56  1  0
 21 57  1  0
 22 58  1  0
 22 59  1  0
 23 60  1  0
 26 61  1  0
 26 62  1  0
 26 63  1  0
 29 64  1  0
 29 65  1  0
 29 66  1  0
 30 67  1  0
M  END
$$$$
