
     RDKit          3D

 59 62  0  0  0  0  0  0  0  0999 V2000
    7.2983   -1.7153   -0.0604 C   0  0  0  0  0  0  0  0  0  0  0  0
    6.0229   -2.5394   -0.1346 C   0  0  0  0  0  0  0  0  0  0  0  0
    4.9606   -1.9633    0.6817 N   0  0  0  0  0  0  0  0  0  0  0  0
    4.2030   -0.9862    0.0753 N   0  0  0  0  0  0  0  0  0  0  0  0
    3.2446   -0.4052    0.7509 C   0  0  0  0  0  0  0  0  0  0  0  0
    2.4692    0.5808    0.1385 N   0  0  0  0  0  0  0  0  0  0  0  0
    3.0037    1.2128   -1.0799 C   0  0  0  0  0  0  0  0  0  0  0  0
    2.3434    2.5730   -1.2868 C   0  0  0  0  0  0  0  0  0  0  0  0
    0.8279    2.4396   -1.3793 C   0  0  0  0  0  0  0  0  0  0  0  0
    0.2639    1.7166   -0.1513 C   0  0  0  0  0  0  0  0  0  0  0  0
   -1.1727    1.5154   -0.3183 N   0  0  0  0  0  0  0  0  0  0  0  0
   -1.9909    1.2480    0.7657 C   0  0  0  0  0  0  0  0  0  0  0  0
   -1.5737    1.2512    1.9215 O   0  0  0  0  0  0  0  0  0  0  0  0
   -3.4505    0.9029    0.3848 C   0  0  0  0  0  0  0  0  0  0  0  0
   -3.4849   -0.4703   -0.3068 C   0  0  0  0  0  0  0  0  0  0  0  0
   -2.9962   -1.5995    0.3873 C   0  0  0  0  0  0  0  0  0  0  0  0
   -2.9840   -2.8670   -0.2008 C   0  0  0  0  0  0  0  0  0  0  0  0
   -3.4570   -3.0333   -1.4986 C   0  0  0  0  0  0  0  0  0  0  0  0
   -3.9426   -1.9345   -2.2014 C   0  0  0  0  0  0  0  0  0  0  0  0
   -3.9572   -0.6645   -1.6132 C   0  0  0  0  0  0  0  0  0  0  0  0
   -4.0569    2.0908   -0.3995 C   0  0  0  0  0  0  0  0  0  0  0  0
   -5.5659    2.0222   -0.1743 C   0  0  0  0  0  0  0  0  0  0  0  0
   -5.7675    1.1948    1.0907 C   0  0  0  0  0  0  0  0  0  0  0  0
   -4.3679    0.9156    1.6307 C   0  0  0  0  0  0  0  0  0  0  0  0
    1.0060    0.3849    0.0962 C   0  0  0  0  0  0  0  0  0  0  0  0
    2.9775   -0.7569    2.1723 C   0  0  0  0  0  0  0  0  0  0  0  0
    3.7368   -1.6846    2.7534 C   0  0  0  0  0  0  0  0  0  0  0  0
    4.8175   -2.3507    2.0037 C   0  0  0  0  0  0  0  0  0  0  0  0
    5.5119   -3.1878    2.5778 O   0  0  0  0  0  0  0  0  0  0  0  0
    7.6717   -1.6559    0.9644 H   0  0  0  0  0  0  0  0  0  0  0  0
    7.1259   -0.6945   -0.4070 H   0  0  0  0  0  0  0  0  0  0  0  0
    8.0776   -2.1617   -0.6830 H   0  0  0  0  0  0  0  0  0  0  0  0
    5.6709   -2.6023   -1.1720 H   0  0  0  0  0  0  0  0  0  0  0  0
    6.2257   -3.5622    0.2034 H   0  0  0  0  0  0  0  0  0  0  0  0
    4.0852    1.3725   -0.9870 H   0  0  0  0  0  0  0  0  0  0  0  0
    2.8330    0.5647   -1.9489 H   0  0  0  0  0  0  0  0  0  0  0  0
    2.6016    3.2366   -0.4515 H   0  0  0  0  0  0  0  0  0  0  0  0
    2.7298    3.0402   -2.1999 H   0  0  0  0  0  0  0  0  0  0  0  0
    0.3733    3.4349   -1.4694 H   0  0  0  0  0  0  0  0  0  0  0  0
    0.5641    1.8920   -2.2942 H   0  0  0  0  0  0  0  0  0  0  0  0
    0.4113    2.3593    0.7274 H   0  0  0  0  0  0  0  0  0  0  0  0
   -1.5010    1.1962   -1.2237 H   0  0  0  0  0  0  0  0  0  0  0  0
   -2.6201   -1.5005    1.4032 H   0  0  0  0  0  0  0  0  0  0  0  0
   -2.6100   -3.7223    0.3586 H   0  0  0  0  0  0  0  0  0  0  0  0
   -3.4529   -4.0202   -1.9569 H   0  0  0  0  0  0  0  0  0  0  0  0
   -4.3195   -2.0644   -3.2134 H   0  0  0  0  0  0  0  0  0  0  0  0
   -4.3597    0.1550   -2.2052 H   0  0  0  0  0  0  0  0  0  0  0  0
   -3.8002    2.1133   -1.4629 H   0  0  0  0  0  0  0  0  0  0  0  0
   -3.6898    3.0393    0.0183 H   0  0  0  0  0  0  0  0  0  0  0  0
   -6.0697    1.5472   -1.0232 H   0  0  0  0  0  0  0  0  0  0  0  0
   -5.9873    3.0284   -0.0677 H   0  0  0  0  0  0  0  0  0  0  0  0
   -6.3836    1.7235    1.8252 H   0  0  0  0  0  0  0  0  0  0  0  0
   -6.2771    0.2549    0.8467 H   0  0  0  0  0  0  0  0  0  0  0  0
   -4.0851    1.7345    2.3094 H   0  0  0  0  0  0  0  0  0  0  0  0
   -4.3457   -0.0079    2.2206 H   0  0  0  0  0  0  0  0  0  0  0  0
    0.6418   -0.0544    1.0305 H   0  0  0  0  0  0  0  0  0  0  0  0
    0.7624   -0.3345   -0.6972 H   0  0  0  0  0  0  0  0  0  0  0  0
    2.2009   -0.2272    2.7103 H   0  0  0  0  0  0  0  0  0  0  0  0
    3.6069   -1.9744    3.7872 H   0  0  0  0  0  0  0  0  0  0  0  0
  1  2  1  0
  2  3  1  0
  3  4  1  0
  4  5  2  0
  5  6  1  0
  6  7  1  0
  7  8  1  0
  8  9  1  0
  9 10  1  0
 10 11  1  0
 11 12  1  0
 12 13  2  0
 12 14  1  0
 14 15  1  0
 15 16  2  0
 16 17  1  0
 17 18  2  0
 18 19  1  0
 19 20  2  0
 14 21  1  0
 21 22  1  0
 22 23  1  0
 23 24  1  0
 10 25  1  0
  5 26  1  0
 26 27  2  0
 27 28  1  0
 28 29  2  0
 28  3  1  0
 25  6  1  0
 24 14  1  0
 20 15  1  0
  1 30  1  0
  1 31  1  0
  1 32  1  0
  2 33  1  0
  2 34  1  0
  7 35  1  0
  7 36  1  0
  8 37  1  0
  8 38  1  0
  9 39  1  0
  9 40  1  0
 10 41  1  0
 11 42  1  0
 16 43  1  0
 17 44  1  0
 18 45  1  0
 19 46  1  0
 20 47  1  0
 21 48  1  0
 21 49  1  0
 22 50  1  0
 22 51  1  0
 23 52  1  0
 23 53  1  0
 24 54  1  0
 24 55  1  0
 25 56  1  0
 25 57  1  0
 26 58  1  0
 27 59  1  0
M  END
$$$$
