
     RDKit          3D

 63 66  0  0  0  0  0  0  0  0999 V2000
   -3.3836   -0.5594    3.5069 C   0  0  0  0  0  0  0  0  0  0  0  0
   -2.9194   -1.7820    2.7314 C   0  0  0  0  0  0  0  0  0  0  0  0
   -2.2174   -1.5030    1.3886 C   0  0  0  0  0  0  0  0  0  0  0  0
   -0.8215   -0.8834    1.5096 C   0  0  0  0  0  0  0  0  0  0  0  0
   -0.2260   -0.8108    2.5839 O   0  0  0  0  0  0  0  0  0  0  0  0
   -0.2124   -0.5577    0.3054 N   0  0  0  0  0  0  0  0  0  0  0  0
    1.0627    0.1395    0.3046 C   0  0  0  0  0  0  0  0  0  0  0  0
    1.6540    0.1982   -1.1006 C   0  0  0  0  0  0  0  0  0  0  0  0
    2.9412    1.0309   -1.1733 C   0  0  0  0  0  0  0  0  0  0  0  0
    4.0090    0.5730   -0.2723 N   0  0  0  0  0  0  0  0  0  0  0  0
    5.0977    1.5717   -0.1859 C   0  0  0  0  0  0  0  0  0  0  0  0
    6.0201    1.6360   -1.4283 C   0  0  0  0  0  0  0  0  0  0  0  0
    6.5862    0.3402   -1.8535 N   0  0  0  0  0  0  0  0  0  0  0  0
    7.6711   -0.0814   -0.9673 C   0  0  0  0  0  0  0  0  0  0  0  0
    5.5160   -0.6757   -1.9113 C   0  0  0  0  0  0  0  0  0  0  0  0
    4.5918   -0.7264   -0.6693 C   0  0  0  0  0  0  0  0  0  0  0  0
   -3.1164   -0.9214    0.3737 N   0  0  0  0  0  0  0  0  0  0  0  0
   -3.8710   -1.7078   -0.5030 C   0  0  0  0  0  0  0  0  0  0  0  0
   -3.9940   -3.1049   -0.6244 C   0  0  0  0  0  0  0  0  0  0  0  0
   -4.8334   -3.6188   -1.6174 C   0  0  0  0  0  0  0  0  0  0  0  0
   -5.5361   -2.7735   -2.4669 C   0  0  0  0  0  0  0  0  0  0  0  0
   -5.4196   -1.3869   -2.3403 C   0  0  0  0  0  0  0  0  0  0  0  0
   -4.5796   -0.8447   -1.3454 C   0  0  0  0  0  0  0  0  0  0  0  0
   -4.2529    0.4695   -0.9454 C   0  0  0  0  0  0  0  0  0  0  0  0
   -4.6926    1.7446   -1.4395 C   0  0  0  0  0  0  0  0  0  0  0  0
   -4.2562    2.8527   -0.9207 N   0  0  0  0  0  0  0  0  0  0  0  0
   -3.3420    2.7996    0.1347 N   0  0  0  0  0  0  0  0  0  0  0  0
   -2.9550    4.0827    0.6898 C   0  0  0  0  0  0  0  0  0  0  0  0
   -2.8730    1.6144    0.7363 C   0  0  0  0  0  0  0  0  0  0  0  0
   -2.1105    1.6125    1.6955 O   0  0  0  0  0  0  0  0  0  0  0  0
   -3.3681    0.4093    0.1092 C   0  0  0  0  0  0  0  0  0  0  0  0
   -4.1276    0.0143    2.9478 H   0  0  0  0  0  0  0  0  0  0  0  0
   -2.5465    0.0951    3.7634 H   0  0  0  0  0  0  0  0  0  0  0  0
   -3.8527   -0.8732    4.4456 H   0  0  0  0  0  0  0  0  0  0  0  0
   -2.2424   -2.3563    3.3764 H   0  0  0  0  0  0  0  0  0  0  0  0
   -3.7921   -2.4236    2.5552 H   0  0  0  0  0  0  0  0  0  0  0  0
   -1.9660   -2.4973    0.9911 H   0  0  0  0  0  0  0  0  0  0  0  0
   -0.8112   -0.4202   -0.4981 H   0  0  0  0  0  0  0  0  0  0  0  0
    1.7379   -0.3741    0.9974 H   0  0  0  0  0  0  0  0  0  0  0  0
    0.8832    1.1483    0.6935 H   0  0  0  0  0  0  0  0  0  0  0  0
    0.9189    0.6489   -1.7805 H   0  0  0  0  0  0  0  0  0  0  0  0
    1.8211   -0.8168   -1.4790 H   0  0  0  0  0  0  0  0  0  0  0  0
    2.6661    2.0595   -0.9042 H   0  0  0  0  0  0  0  0  0  0  0  0
    3.2785    1.0682   -2.2156 H   0  0  0  0  0  0  0  0  0  0  0  0
    5.7039    1.3345    0.6977 H   0  0  0  0  0  0  0  0  0  0  0  0
    4.6832    2.5681    0.0124 H   0  0  0  0  0  0  0  0  0  0  0  0
    5.4507    2.0466   -2.2719 H   0  0  0  0  0  0  0  0  0  0  0  0
    6.8260    2.3581   -1.2464 H   0  0  0  0  0  0  0  0  0  0  0  0
    7.3533   -0.2291    0.0697 H   0  0  0  0  0  0  0  0  0  0  0  0
    8.1117   -1.0190   -1.3247 H   0  0  0  0  0  0  0  0  0  0  0  0
    8.4776    0.6605   -0.9735 H   0  0  0  0  0  0  0  0  0  0  0  0
    5.9491   -1.6692   -2.0831 H   0  0  0  0  0  0  0  0  0  0  0  0
    4.9061   -0.4711   -2.8003 H   0  0  0  0  0  0  0  0  0  0  0  0
    5.1683   -1.1068    0.1840 H   0  0  0  0  0  0  0  0  0  0  0  0
    3.8093   -1.4755   -0.8298 H   0  0  0  0  0  0  0  0  0  0  0  0
   -3.4635   -3.7887    0.0311 H   0  0  0  0  0  0  0  0  0  0  0  0
   -4.9390   -4.6965   -1.7229 H   0  0  0  0  0  0  0  0  0  0  0  0
   -6.1856   -3.1924   -3.2318 H   0  0  0  0  0  0  0  0  0  0  0  0
   -5.9816   -0.7385   -3.0066 H   0  0  0  0  0  0  0  0  0  0  0  0
   -5.4121    1.7774   -2.2726 H   0  0  0  0  0  0  0  0  0  0  0  0
   -3.7375    4.4098    1.3804 H   0  0  0  0  0  0  0  0  0  0  0  0
   -2.0079    4.0097    1.2311 H   0  0  0  0  0  0  0  0  0  0  0  0
   -2.8480    4.8122   -0.1183 H   0  0  0  0  0  0  0  0  0  0  0  0
  1  2  1  0
  2  3  1  0
  3  4  1  0
  4  5  2  0
  4  6  1  0
  6  7  1  0
  7  8  1  0
  8  9  1  0
  9 10  1  0
 10 11  1  0
 11 12  1  0
 12 13  1  0
 13 14  1  0
 13 15  1  0
 15 16  1  0
  3 17  1  0
 17 18  1  0
 18 19  2  0
 19 20  1  0
 20 21  2  0
 21 22  1  0
 22 23  2  0
 23 24  1  0
 24 25  1  0
 25 26  2  0
 26 27  1  0
 27 28  1  0
 27 29  1  0
 29 30  2  0
 29 31  1  0
 16 10  1  0
 31 17  1  0
 23 18  1  0
 31 24  2  0
  1 32  1  0
  1 33  1  0
  1 34  1  0
  2 35  1  0
  2 36  1  0
  3 37  1  0
  6 38  1  0
  7 39  1  0
  7 40  1  0
  8 41  1  0
  8 42  1  0
  9 43  1  0
  9 44  1  0
 11 45  1  0
 11 46  1  0
 12 47  1  0
 12 48  1  0
 14 49  1  0
 14 50  1  0
 14 51  1  0
 15 52  1  0
 15 53  1  0
 16 54  1  0
 16 55  1  0
 19 56  1  0
 20 57  1  0
 21 58  1  0
 22 59  1  0
 25 60  1  0
 28 61  1  0
 28 62  1  0
 28 63  1  0
M  END
$$$$
