
     RDKit          3D

 49 52  0  0  0  0  0  0  0  0999 V2000
    7.8745   -1.8714   -0.1647 C   0  0  0  0  0  0  0  0  0  0  0  0
    6.8218   -0.8087   -0.0528 C   0  0  0  0  0  0  0  0  0  0  0  0
    7.1633    0.5482   -0.1310 C   0  0  0  0  0  0  0  0  0  0  0  0
    6.1797    1.5406   -0.0487 C   0  0  0  0  0  0  0  0  0  0  0  0
    4.8373    1.1919    0.1060 C   0  0  0  0  0  0  0  0  0  0  0  0
    3.8399    2.1705    0.1900 N   0  0  0  0  0  0  0  0  0  0  0  0
    2.5241    1.8285    0.3736 C   0  0  0  0  0  0  0  0  0  0  0  0
    2.0601    0.5722    0.4627 C   0  0  0  0  0  0  0  0  0  0  0  0
    0.7550    0.1731    0.6494 N   0  0  0  0  0  0  0  0  0  0  0  0
   -0.3289    0.9391    0.9959 C   0  0  0  0  0  0  0  0  0  0  0  0
   -0.2713    2.1325    1.2781 O   0  0  0  0  0  0  0  0  0  0  0  0
   -1.5288    0.2290    1.0308 N   0  0  0  0  0  0  0  0  0  0  0  0
   -2.7153    0.9613    1.4923 C   0  0  0  0  0  0  0  0  0  0  0  0
   -3.4538    1.6156    0.3066 C   0  0  0  0  0  0  0  0  0  0  0  0
   -3.7843    0.6079   -0.7364 N   0  0  0  0  0  0  0  0  0  0  0  0
   -4.9874   -0.1044   -0.6817 C   0  0  0  0  0  0  0  0  0  0  0  0
   -5.4083   -0.8677   -1.7891 C   0  0  0  0  0  0  0  0  0  0  0  0
   -6.6047   -1.5959   -1.7860 C   0  0  0  0  0  0  0  0  0  0  0  0
   -7.4281   -1.5684   -0.6676 C   0  0  0  0  0  0  0  0  0  0  0  0
   -7.0531   -0.7996    0.4283 C   0  0  0  0  0  0  0  0  0  0  0  0
   -8.0708   -0.7473    1.8196 Cl  0  0  0  0  0  0  0  0  0  0  0  0
   -5.8572   -0.0716    0.4191 C   0  0  0  0  0  0  0  0  0  0  0  0
   -2.5793   -0.1420   -1.1884 C   0  0  0  0  0  0  0  0  0  0  0  0
   -1.8542   -0.7887    0.0152 C   0  0  0  0  0  0  0  0  0  0  0  0
    3.0658   -0.5383    0.3350 C   0  0  0  0  0  0  0  0  0  0  0  0
    2.6982   -1.7135    0.3696 O   0  0  0  0  0  0  0  0  0  0  0  0
    4.4954   -0.1688    0.1705 C   0  0  0  0  0  0  0  0  0  0  0  0
    5.4754   -1.1644    0.0858 C   0  0  0  0  0  0  0  0  0  0  0  0
    8.8631   -1.4786    0.1040 H   0  0  0  0  0  0  0  0  0  0  0  0
    7.6562   -2.7033    0.5175 H   0  0  0  0  0  0  0  0  0  0  0  0
    7.9151   -2.2502   -1.1920 H   0  0  0  0  0  0  0  0  0  0  0  0
    8.2035    0.8438   -0.2522 H   0  0  0  0  0  0  0  0  0  0  0  0
    6.4757    2.5836   -0.1016 H   0  0  0  0  0  0  0  0  0  0  0  0
    4.0873    3.1516    0.1550 H   0  0  0  0  0  0  0  0  0  0  0  0
    1.8717    2.6950    0.4414 H   0  0  0  0  0  0  0  0  0  0  0  0
    0.6545   -0.8289    0.7693 H   0  0  0  0  0  0  0  0  0  0  0  0
   -3.3597    0.2360    2.0015 H   0  0  0  0  0  0  0  0  0  0  0  0
   -2.4353    1.7204    2.2290 H   0  0  0  0  0  0  0  0  0  0  0  0
   -4.3399    2.1652    0.6425 H   0  0  0  0  0  0  0  0  0  0  0  0
   -2.7965    2.3643   -0.1555 H   0  0  0  0  0  0  0  0  0  0  0  0
   -4.8152   -0.8777   -2.7015 H   0  0  0  0  0  0  0  0  0  0  0  0
   -6.8919   -2.1726   -2.6619 H   0  0  0  0  0  0  0  0  0  0  0  0
   -8.3565   -2.1314   -0.6590 H   0  0  0  0  0  0  0  0  0  0  0  0
   -5.6196    0.5087    1.3047 H   0  0  0  0  0  0  0  0  0  0  0  0
   -2.8011   -0.9090   -1.9338 H   0  0  0  0  0  0  0  0  0  0  0  0
   -1.9023    0.5721   -1.6739 H   0  0  0  0  0  0  0  0  0  0  0  0
   -0.9597   -1.3039   -0.3439 H   0  0  0  0  0  0  0  0  0  0  0  0
   -2.4999   -1.5325    0.4969 H   0  0  0  0  0  0  0  0  0  0  0  0
    5.1856   -2.2123    0.1328 H   0  0  0  0  0  0  0  0  0  0  0  0
  1  2  1  0
  2  3  2  0
  3  4  1  0
  4  5  2  0
  5  6  1  0
  6  7  1  0
  7  8  2  0
  8  9  1  0
  9 10  1  0
 10 11  2  0
 10 12  1  0
 12 13  1  0
 13 14  1  0
 14 15  1  0
 15 16  1  0
 16 17  2  0
 17 18  1  0
 18 19  2  0
 19 20  1  0
 20 21  1  0
 20 22  2  0
 15 23  1  0
 23 24  1  0
  8 25  1  0
 25 26  2  0
 25 27  1  0
 27 28  2  0
 28  2  1  0
 27  5  1  0
 24 12  1  0
 22 16  1  0
  1 29  1  0
  1 30  1  0
  1 31  1  0
  3 32  1  0
  4 33  1  0
  6 34  1  0
  7 35  1  0
  9 36  1  0
 13 37  1  0
 13 38  1  0
 14 39  1  0
 14 40  1  0
 17 41  1  0
 18 42  1  0
 19 43  1  0
 22 44  1  0
 23 45  1  0
 23 46  1  0
 24 47  1  0
 24 48  1  0
 28 49  1  0
M  END
$$$$
