
     RDKit          3D

 47 50  0  0  0  0  0  0  0  0999 V2000
   -0.1429   -0.1900    1.5157 O   0  0  0  0  0  0  0  0  0  0  0  0
    0.4297   -0.3897    0.4472 C   0  0  0  0  0  0  0  0  0  0  0  0
   -0.2655   -0.4288   -0.9155 C   0  0  0  0  0  0  0  0  0  0  0  0
   -1.6932   -0.1881   -0.7829 N   0  0  0  0  0  0  0  0  0  0  0  0
   -2.1208    1.1338   -0.9229 N   0  0  0  0  0  0  0  0  0  0  0  0
   -3.3757    1.4012   -0.7136 C   0  0  0  0  0  0  0  0  0  0  0  0
   -4.2843    0.4089   -0.3714 N   0  0  0  0  0  0  0  0  0  0  0  0
   -3.9001   -0.8962   -0.2402 C   0  0  0  0  0  0  0  0  0  0  0  0
   -5.0096   -1.6419    0.0927 C   0  0  0  0  0  0  0  0  0  0  0  0
   -6.1160   -0.7529    0.1663 C   0  0  0  0  0  0  0  0  0  0  0  0
   -7.4817   -0.9274    0.4586 C   0  0  0  0  0  0  0  0  0  0  0  0
   -8.3196    0.1859    0.4452 C   0  0  0  0  0  0  0  0  0  0  0  0
   -9.6210    0.0269    0.7219 F   0  0  0  0  0  0  0  0  0  0  0  0
   -7.8403    1.4553    0.1523 C   0  0  0  0  0  0  0  0  0  0  0  0
   -6.4882    1.6552   -0.1409 C   0  0  0  0  0  0  0  0  0  0  0  0
   -5.6411    0.5325   -0.1281 C   0  0  0  0  0  0  0  0  0  0  0  0
   -2.5265   -1.2673   -0.4435 C   0  0  0  0  0  0  0  0  0  0  0  0
   -2.1262   -2.4245   -0.3473 O   0  0  0  0  0  0  0  0  0  0  0  0
    1.7916   -0.6096    0.3686 N   0  0  0  0  0  0  0  0  0  0  0  0
    2.6407   -0.4931    1.5391 C   0  0  0  0  0  0  0  0  0  0  0  0
    4.0772   -0.9487    1.2287 C   0  0  0  0  0  0  0  0  0  0  0  0
    4.6410   -0.3085    0.0182 N   0  0  0  0  0  0  0  0  0  0  0  0
    5.9362   -0.9202   -0.3617 C   0  0  0  0  0  0  0  0  0  0  0  0
    7.1584   -0.1204    0.1153 C   0  0  0  0  0  0  0  0  0  0  0  0
    7.1936    1.2160   -0.4026 O   0  0  0  0  0  0  0  0  0  0  0  0
    5.8928    1.7387   -0.7033 C   0  0  0  0  0  0  0  0  0  0  0  0
    4.7987    1.1551    0.2038 C   0  0  0  0  0  0  0  0  0  0  0  0
   -0.0958   -1.4113   -1.3688 H   0  0  0  0  0  0  0  0  0  0  0  0
    0.1673    0.3409   -1.5639 H   0  0  0  0  0  0  0  0  0  0  0  0
   -3.7359    2.4367   -0.8109 H   0  0  0  0  0  0  0  0  0  0  0  0
   -5.0166   -2.7113    0.2663 H   0  0  0  0  0  0  0  0  0  0  0  0
   -7.8875   -1.9062    0.6926 H   0  0  0  0  0  0  0  0  0  0  0  0
   -8.5300    2.2948    0.1547 H   0  0  0  0  0  0  0  0  0  0  0  0
   -6.1198    2.6511   -0.3670 H   0  0  0  0  0  0  0  0  0  0  0  0
    2.2644   -0.5282   -0.5256 H   0  0  0  0  0  0  0  0  0  0  0  0
    2.2148   -1.1024    2.3440 H   0  0  0  0  0  0  0  0  0  0  0  0
    2.6174    0.5518    1.8678 H   0  0  0  0  0  0  0  0  0  0  0  0
    4.0375   -2.0327    1.0586 H   0  0  0  0  0  0  0  0  0  0  0  0
    4.7178   -0.7828    2.1036 H   0  0  0  0  0  0  0  0  0  0  0  0
    6.0092   -1.9596   -0.0209 H   0  0  0  0  0  0  0  0  0  0  0  0
    5.9575   -0.9578   -1.4584 H   0  0  0  0  0  0  0  0  0  0  0  0
    7.1815   -0.0630    1.2098 H   0  0  0  0  0  0  0  0  0  0  0  0
    8.0802   -0.6178   -0.2030 H   0  0  0  0  0  0  0  0  0  0  0  0
    5.6754    1.5386   -1.7591 H   0  0  0  0  0  0  0  0  0  0  0  0
    5.9414    2.8258   -0.5825 H   0  0  0  0  0  0  0  0  0  0  0  0
    3.8465    1.6501   -0.0151 H   0  0  0  0  0  0  0  0  0  0  0  0
    5.0679    1.3811    1.2440 H   0  0  0  0  0  0  0  0  0  0  0  0
  1  2  2  0
  2  3  1  0
  3  4  1  0
  4  5  1  0
  5  6  2  0
  6  7  1  0
  7  8  1  0
  8  9  2  0
  9 10  1  0
 10 11  2  0
 11 12  1  0
 12 13  1  0
 12 14  2  0
 14 15  1  0
 15 16  2  0
  8 17  1  0
 17 18  2  0
  2 19  1  0
 19 20  1  0
 20 21  1  0
 21 22  1  0
 22 23  1  0
 23 24  1  0
 24 25  1  0
 25 26  1  0
 26 27  1  0
 17  4  1  0
 27 22  1  0
 16  7  1  0
 16 10  1  0
  3 28  1  0
  3 29  1  0
  6 30  1  0
  9 31  1  0
 11 32  1  0
 14 33  1  0
 15 34  1  0
 19 35  1  0
 20 36  1  0
 20 37  1  0
 21 38  1  0
 21 39  1  0
 23 40  1  0
 23 41  1  0
 24 42  1  0
 24 43  1  0
 26 44  1  0
 26 45  1  0
 27 46  1  0
 27 47  1  0
M  END
$$$$
