
     RDKit          3D

 56 59  0  0  0  0  0  0  0  0999 V2000
   -9.2297    1.2796    2.3569 C   0  0  0  0  0  0  0  0  0  0  0  0
   -7.9500    0.6762    2.2194 O   0  0  0  0  0  0  0  0  0  0  0  0
   -7.8165    0.0038    0.9640 C   0  0  0  0  0  0  0  0  0  0  0  0
   -6.4440   -0.6868    0.9179 C   0  0  0  0  0  0  0  0  0  0  0  0
   -6.2055   -1.4591   -0.3170 N   0  0  0  0  0  0  0  0  0  0  0  0
   -6.0796   -0.6269   -1.5305 C   0  0  0  0  0  0  0  0  0  0  0  0
   -4.8522    0.2974   -1.5536 C   0  0  0  0  0  0  0  0  0  0  0  0
   -3.6707   -0.3725   -1.0517 N   0  0  0  0  0  0  0  0  0  0  0  0
   -3.7098   -1.5656   -0.3744 C   0  0  0  0  0  0  0  0  0  0  0  0
   -2.5018   -1.9247    0.0068 N   0  0  0  0  0  0  0  0  0  0  0  0
   -1.6632   -0.9246   -0.4301 C   0  0  0  0  0  0  0  0  0  0  0  0
   -0.2700   -0.8009   -0.2857 C   0  0  0  0  0  0  0  0  0  0  0  0
    0.3748    0.3231   -0.8158 C   0  0  0  0  0  0  0  0  0  0  0  0
    1.7674    0.5467   -0.7258 N   0  0  0  0  0  0  0  0  0  0  0  0
    2.7222   -0.2733   -0.1307 C   0  0  0  0  0  0  0  0  0  0  0  0
    2.5077   -1.3473    0.4199 O   0  0  0  0  0  0  0  0  0  0  0  0
    4.1297    0.3323   -0.2413 C   0  0  0  0  0  0  0  0  0  0  0  0
    5.1102   -0.5009    0.3562 O   0  0  0  0  0  0  0  0  0  0  0  0
    6.4056   -0.0687    0.3222 C   0  0  0  0  0  0  0  0  0  0  0  0
    6.8646    1.1180   -0.2452 C   0  0  0  0  0  0  0  0  0  0  0  0
    8.2285    1.4298   -0.2041 C   0  0  0  0  0  0  0  0  0  0  0  0
    9.1454    0.5664    0.4001 C   0  0  0  0  0  0  0  0  0  0  0  0
   10.4430    0.9958    0.3678 O   0  0  0  0  0  0  0  0  0  0  0  0
   11.4130    0.1496    0.9727 C   0  0  0  0  0  0  0  0  0  0  0  0
    8.6859   -0.6201    0.9673 C   0  0  0  0  0  0  0  0  0  0  0  0
    7.3224   -0.9319    0.9263 C   0  0  0  0  0  0  0  0  0  0  0  0
   -0.3782    1.3054   -1.4799 C   0  0  0  0  0  0  0  0  0  0  0  0
   -1.7674    1.2020   -1.6369 C   0  0  0  0  0  0  0  0  0  0  0  0
   -2.3756    0.0672   -1.0987 C   0  0  0  0  0  0  0  0  0  0  0  0
   -4.9951   -2.3093   -0.1791 C   0  0  0  0  0  0  0  0  0  0  0  0
  -10.0167    0.5201    2.3234 H   0  0  0  0  0  0  0  0  0  0  0  0
   -9.3892    2.0233    1.5703 H   0  0  0  0  0  0  0  0  0  0  0  0
   -9.2709    1.7824    3.3268 H   0  0  0  0  0  0  0  0  0  0  0  0
   -7.9098    0.7442    0.1630 H   0  0  0  0  0  0  0  0  0  0  0  0
   -8.6141   -0.7412    0.8599 H   0  0  0  0  0  0  0  0  0  0  0  0
   -5.6566    0.0541    1.1043 H   0  0  0  0  0  0  0  0  0  0  0  0
   -6.4089   -1.3663    1.7805 H   0  0  0  0  0  0  0  0  0  0  0  0
   -6.9882   -0.0393   -1.7006 H   0  0  0  0  0  0  0  0  0  0  0  0
   -6.0217   -1.3050   -2.3935 H   0  0  0  0  0  0  0  0  0  0  0  0
   -5.0116    1.1774   -0.9209 H   0  0  0  0  0  0  0  0  0  0  0  0
   -4.6453    0.6277   -2.5768 H   0  0  0  0  0  0  0  0  0  0  0  0
    0.2531   -1.5898    0.2391 H   0  0  0  0  0  0  0  0  0  0  0  0
    2.1013    1.4034   -1.1477 H   0  0  0  0  0  0  0  0  0  0  0  0
    4.3463    0.4586   -1.3093 H   0  0  0  0  0  0  0  0  0  0  0  0
    4.1054    1.3050    0.2653 H   0  0  0  0  0  0  0  0  0  0  0  0
    6.1983    1.8244   -0.7264 H   0  0  0  0  0  0  0  0  0  0  0  0
    8.5814    2.3576   -0.6485 H   0  0  0  0  0  0  0  0  0  0  0  0
   11.4614   -0.8203    0.4667 H   0  0  0  0  0  0  0  0  0  0  0  0
   11.2185    0.0286    2.0436 H   0  0  0  0  0  0  0  0  0  0  0  0
   12.3899    0.6305    0.8644 H   0  0  0  0  0  0  0  0  0  0  0  0
    9.3543   -1.3255    1.4486 H   0  0  0  0  0  0  0  0  0  0  0  0
    6.9699   -1.8602    1.3713 H   0  0  0  0  0  0  0  0  0  0  0  0
    0.1111    2.1845   -1.8946 H   0  0  0  0  0  0  0  0  0  0  0  0
   -2.3331    1.9702   -2.1518 H   0  0  0  0  0  0  0  0  0  0  0  0
   -5.0462   -3.1000   -0.9386 H   0  0  0  0  0  0  0  0  0  0  0  0
   -4.9897   -2.8254    0.7883 H   0  0  0  0  0  0  0  0  0  0  0  0
  1  2  1  0
  2  3  1  0
  3  4  1  0
  4  5  1  0
  5  6  1  0
  6  7  1  0
  7  8  1  0
  8  9  1  0
  9 10  2  0
 10 11  1  0
 11 12  2  0
 12 13  1  0
 13 14  1  0
 14 15  1  0
 15 16  2  0
 15 17  1  0
 17 18  1  0
 18 19  1  0
 19 20  2  0
 20 21  1  0
 21 22  2  0
 22 23  1  0
 23 24  1  0
 22 25  1  0
 25 26  2  0
 13 27  2  0
 27 28  1  0
 28 29  2  0
  9 30  1  0
 30  5  1  0
 29  8  1  0
 29 11  1  0
 26 19  1  0
  1 31  1  0
  1 32  1  0
  1 33  1  0
  3 34  1  0
  3 35  1  0
  4 36  1  0
  4 37  1  0
  6 38  1  0
  6 39  1  0
  7 40  1  0
  7 41  1  0
 12 42  1  0
 14 43  1  0
 17 44  1  0
 17 45  1  0
 20 46  1  0
 21 47  1  0
 24 48  1  0
 24 49  1  0
 24 50  1  0
 25 51  1  0
 26 52  1  0
 27 53  1  0
 28 54  1  0
 30 55  1  0
 30 56  1  0
M  END
$$$$
