
     RDKit          3D

 38 40  0  0  0  0  0  0  0  0999 V2000
   -6.9948    0.4026   -0.1369 C   0  0  0  0  0  0  0  0  0  0  0  0
   -5.5109    0.2444    0.0109 C   0  0  0  0  0  0  0  0  0  0  0  0
   -4.9673   -0.2147    1.2102 C   0  0  0  0  0  0  0  0  0  0  0  0
   -3.5865   -0.3928    1.3441 C   0  0  0  0  0  0  0  0  0  0  0  0
   -2.7176   -0.1240    0.2815 C   0  0  0  0  0  0  0  0  0  0  0  0
   -1.3176   -0.2966    0.3846 N   0  0  0  0  0  0  0  0  0  0  0  0
   -0.5774   -0.6803    1.4951 C   0  0  0  0  0  0  0  0  0  0  0  0
   -1.0098   -0.9264    2.6175 O   0  0  0  0  0  0  0  0  0  0  0  0
    0.9065   -0.8022    1.1891 C   0  0  0  0  0  0  0  0  0  0  0  0
    1.6291    0.8563    1.0059 S   0  0  0  0  0  0  0  0  0  0  0  0
    3.2360    0.4312    0.5544 C   0  0  0  0  0  0  0  0  0  0  0  0
    3.6622   -0.7466    0.1597 N   0  0  0  0  0  0  0  0  0  0  0  0
    5.0017   -0.5578   -0.0843 C   0  0  0  0  0  0  0  0  0  0  0  0
    5.9982   -1.4370   -0.5202 C   0  0  0  0  0  0  0  0  0  0  0  0
    7.2864   -0.9140   -0.6696 C   0  0  0  0  0  0  0  0  0  0  0  0
    7.5145    0.4314   -0.3848 C   0  0  0  0  0  0  0  0  0  0  0  0
    6.5840    1.3231    0.0386 N   0  0  0  0  0  0  0  0  0  0  0  0
    5.3697    0.7601    0.1644 C   0  0  0  0  0  0  0  0  0  0  0  0
    4.2215    1.3741    0.5688 N   0  0  0  0  0  0  0  0  0  0  0  0
   -3.2594    0.3249   -0.9429 C   0  0  0  0  0  0  0  0  0  0  0  0
   -2.4009    0.6307   -2.1420 C   0  0  0  0  0  0  0  0  0  0  0  0
   -4.6520    0.4999   -1.0626 C   0  0  0  0  0  0  0  0  0  0  0  0
   -7.4359    0.7941    0.7862 H   0  0  0  0  0  0  0  0  0  0  0  0
   -7.4528   -0.5645   -0.3688 H   0  0  0  0  0  0  0  0  0  0  0  0
   -7.2393    1.1071   -0.9392 H   0  0  0  0  0  0  0  0  0  0  0  0
   -5.6118   -0.4395    2.0575 H   0  0  0  0  0  0  0  0  0  0  0  0
   -3.2239   -0.7499    2.3030 H   0  0  0  0  0  0  0  0  0  0  0  0
   -0.7765   -0.0622   -0.4373 H   0  0  0  0  0  0  0  0  0  0  0  0
    1.3959   -1.3372    2.0099 H   0  0  0  0  0  0  0  0  0  0  0  0
    1.0319   -1.3876    0.2717 H   0  0  0  0  0  0  0  0  0  0  0  0
    5.7741   -2.4763   -0.7279 H   0  0  0  0  0  0  0  0  0  0  0  0
    8.1015   -1.5480   -1.0036 H   0  0  0  0  0  0  0  0  0  0  0  0
    8.5139    0.8470   -0.4989 H   0  0  0  0  0  0  0  0  0  0  0  0
    4.1282    2.3413    0.8344 H   0  0  0  0  0  0  0  0  0  0  0  0
   -1.7077    1.4473   -1.9144 H   0  0  0  0  0  0  0  0  0  0  0  0
   -3.0027    0.9421   -3.0034 H   0  0  0  0  0  0  0  0  0  0  0  0
   -1.8377   -0.2589   -2.4436 H   0  0  0  0  0  0  0  0  0  0  0  0
   -5.0730    0.8409   -2.0073 H   0  0  0  0  0  0  0  0  0  0  0  0
  1  2  1  0
  2  3  2  0
  3  4  1  0
  4  5  2  0
  5  6  1  0
  6  7  1  0
  7  8  2  0
  7  9  1  0
  9 10  1  0
 10 11  1  0
 11 12  2  0
 12 13  1  0
 13 14  2  0
 14 15  1  0
 15 16  2  0
 16 17  1  0
 17 18  2  0
 18 19  1  0
  5 20  1  0
 20 21  1  0
 20 22  2  0
 22  2  1  0
 19 11  1  0
 18 13  1  0
  1 23  1  0
  1 24  1  0
  1 25  1  0
  3 26  1  0
  4 27  1  0
  6 28  1  0
  9 29  1  0
  9 30  1  0
 14 31  1  0
 15 32  1  0
 16 33  1  0
 19 34  1  0
 21 35  1  0
 21 36  1  0
 21 37  1  0
 22 38  1  0
M  END
$$$$
