
     RDKit          3D

 41 43  0  0  0  0  0  0  0  0999 V2000
   -4.8847   -2.1511   -0.2238 C   0  0  0  0  0  0  0  0  0  0  0  0
   -4.5932   -0.8366   -0.9321 C   0  0  0  0  0  0  0  0  0  0  0  0
   -3.6540   -0.0157   -0.1445 N   0  0  0  0  0  0  0  0  0  0  0  0
   -4.2969    0.9368    0.7714 C   0  0  0  0  0  0  0  0  0  0  0  0
   -4.4374    2.3028    0.1169 C   0  0  0  0  0  0  0  0  0  0  0  0
   -2.2647   -0.1935   -0.2866 C   0  0  0  0  0  0  0  0  0  0  0  0
   -1.3849    0.5732    0.3868 C   0  0  0  0  0  0  0  0  0  0  0  0
    0.0749    0.3930    0.2445 C   0  0  0  0  0  0  0  0  0  0  0  0
    0.8160    1.1341    0.8840 O   0  0  0  0  0  0  0  0  0  0  0  0
    0.4467   -0.6099   -0.6114 N   0  0  0  0  0  0  0  0  0  0  0  0
    1.7346   -1.0046   -0.9385 C   0  0  0  0  0  0  0  0  0  0  0  0
    2.9499   -0.4058   -0.3900 C   0  0  0  0  0  0  0  0  0  0  0  0
    3.6465    0.5686   -1.1141 C   0  0  0  0  0  0  0  0  0  0  0  0
    4.8299    1.1123   -0.6076 C   0  0  0  0  0  0  0  0  0  0  0  0
    5.3298    0.6944    0.6312 C   0  0  0  0  0  0  0  0  0  0  0  0
    6.6137    1.2598    1.1622 C   0  0  0  0  0  0  0  0  0  0  0  0
    4.6419   -0.2938    1.3449 C   0  0  0  0  0  0  0  0  0  0  0  0
    3.4585   -0.8387    0.8398 C   0  0  0  0  0  0  0  0  0  0  0  0
    1.7845   -2.0159   -1.8202 C   0  0  0  0  0  0  0  0  0  0  0  0
    0.1970   -2.5355   -2.2965 S   0  0  0  0  0  0  0  0  0  0  0  0
   -0.5345   -1.3264   -1.2512 C   0  0  0  0  0  0  0  0  0  0  0  0
   -1.8059   -1.1756   -1.1387 N   0  0  0  0  0  0  0  0  0  0  0  0
   -5.5961   -2.7450   -0.8061 H   0  0  0  0  0  0  0  0  0  0  0  0
   -3.9749   -2.7453   -0.0919 H   0  0  0  0  0  0  0  0  0  0  0  0
   -5.3165   -1.9782    0.7674 H   0  0  0  0  0  0  0  0  0  0  0  0
   -5.5342   -0.2936   -1.0846 H   0  0  0  0  0  0  0  0  0  0  0  0
   -4.1997   -1.0284   -1.9375 H   0  0  0  0  0  0  0  0  0  0  0  0
   -5.2934    0.5759    1.0556 H   0  0  0  0  0  0  0  0  0  0  0  0
   -3.7419    1.0172    1.7126 H   0  0  0  0  0  0  0  0  0  0  0  0
   -5.0351    2.2411   -0.7985 H   0  0  0  0  0  0  0  0  0  0  0  0
   -3.4628    2.7231   -0.1501 H   0  0  0  0  0  0  0  0  0  0  0  0
   -4.9322    3.0004    0.7997 H   0  0  0  0  0  0  0  0  0  0  0  0
   -1.6732    1.3649    1.0620 H   0  0  0  0  0  0  0  0  0  0  0  0
    3.2718    0.9170   -2.0737 H   0  0  0  0  0  0  0  0  0  0  0  0
    5.3556    1.8703   -1.1840 H   0  0  0  0  0  0  0  0  0  0  0  0
    6.7519    2.2942    0.8304 H   0  0  0  0  0  0  0  0  0  0  0  0
    7.4595    0.6599    0.8125 H   0  0  0  0  0  0  0  0  0  0  0  0
    6.6138    1.2679    2.2573 H   0  0  0  0  0  0  0  0  0  0  0  0
    5.0190   -0.6409    2.3043 H   0  0  0  0  0  0  0  0  0  0  0  0
    2.9352   -1.5968    1.4176 H   0  0  0  0  0  0  0  0  0  0  0  0
    2.6855   -2.4758   -2.2045 H   0  0  0  0  0  0  0  0  0  0  0  0
  1  2  1  0
  2  3  1  0
  3  4  1  0
  4  5  1  0
  3  6  1  0
  6  7  2  0
  7  8  1  0
  8  9  2  0
  8 10  1  0
 10 11  1  0
 11 12  1  0
 12 13  2  0
 13 14  1  0
 14 15  2  0
 15 16  1  0
 15 17  1  0
 17 18  2  0
 11 19  2  0
 19 20  1  0
 20 21  1  0
 21 22  2  0
 22  6  1  0
 21 10  1  0
 18 12  1  0
  1 23  1  0
  1 24  1  0
  1 25  1  0
  2 26  1  0
  2 27  1  0
  4 28  1  0
  4 29  1  0
  5 30  1  0
  5 31  1  0
  5 32  1  0
  7 33  1  0
 13 34  1  0
 14 35  1  0
 16 36  1  0
 16 37  1  0
 16 38  1  0
 17 39  1  0
 18 40  1  0
 19 41  1  0
M  END
$$$$
