
     RDKit          3D

 46 48  0  0  0  0  0  0  0  0999 V2000
    4.5860    3.1537   -2.4897 C   0  0  0  0  0  0  0  0  0  0  0  0
    4.3466    1.7519   -2.4186 O   0  0  0  0  0  0  0  0  0  0  0  0
    3.3879    1.4607   -1.4883 C   0  0  0  0  0  0  0  0  0  0  0  0
    2.1415    1.0492   -1.9592 C   0  0  0  0  0  0  0  0  0  0  0  0
    1.1217    0.7153   -1.0621 C   0  0  0  0  0  0  0  0  0  0  0  0
   -0.1292    0.3554   -1.6137 N   0  0  0  0  0  0  0  0  0  0  0  0
   -1.2848    0.0012   -0.9338 C   0  0  0  0  0  0  0  0  0  0  0  0
   -1.3893   -0.1560    0.2802 O   0  0  0  0  0  0  0  0  0  0  0  0
   -2.4870   -0.1761   -1.8325 C   0  0  0  0  0  0  0  0  0  0  0  0
   -2.8320   -1.5690   -1.9598 N   0  0  0  0  0  0  0  0  0  0  0  0
   -2.3936   -2.2462   -3.0415 N   0  0  0  0  0  0  0  0  0  0  0  0
   -2.7555   -3.5030   -2.8378 N   0  0  0  0  0  0  0  0  0  0  0  0
   -3.4163   -3.6331   -1.6434 N   0  0  0  0  0  0  0  0  0  0  0  0
   -3.4838   -2.4254   -1.1031 C   0  0  0  0  0  0  0  0  0  0  0  0
   -4.0957   -2.1065    0.1834 C   0  0  0  0  0  0  0  0  0  0  0  0
   -3.8234   -2.9158    1.2962 C   0  0  0  0  0  0  0  0  0  0  0  0
   -4.3911   -2.6305    2.5443 C   0  0  0  0  0  0  0  0  0  0  0  0
   -5.2411   -1.5386    2.6922 C   0  0  0  0  0  0  0  0  0  0  0  0
   -5.5440   -0.7454    1.5901 C   0  0  0  0  0  0  0  0  0  0  0  0
   -4.9815   -1.0390    0.3480 C   0  0  0  0  0  0  0  0  0  0  0  0
   -5.3201   -0.2716   -0.6969 F   0  0  0  0  0  0  0  0  0  0  0  0
    1.3760    0.7882    0.3103 C   0  0  0  0  0  0  0  0  0  0  0  0
    2.6355    1.1706    0.7951 C   0  0  0  0  0  0  0  0  0  0  0  0
    2.9660    1.2783    2.1245 O   0  0  0  0  0  0  0  0  0  0  0  0
    1.9954    0.8503    3.0752 C   0  0  0  0  0  0  0  0  0  0  0  0
    3.6506    1.4802   -0.1190 C   0  0  0  0  0  0  0  0  0  0  0  0
    4.8913    1.8601    0.3349 O   0  0  0  0  0  0  0  0  0  0  0  0
    5.7299    0.7082    0.4588 C   0  0  0  0  0  0  0  0  0  0  0  0
    4.8506    3.5899   -1.5170 H   0  0  0  0  0  0  0  0  0  0  0  0
    5.4257    3.3113   -3.1721 H   0  0  0  0  0  0  0  0  0  0  0  0
    3.7078    3.6648   -2.9104 H   0  0  0  0  0  0  0  0  0  0  0  0
    1.9784    1.0100   -3.0299 H   0  0  0  0  0  0  0  0  0  0  0  0
   -0.1614    0.3357   -2.6264 H   0  0  0  0  0  0  0  0  0  0  0  0
   -2.3005    0.2290   -2.8349 H   0  0  0  0  0  0  0  0  0  0  0  0
   -3.3265    0.3887   -1.4214 H   0  0  0  0  0  0  0  0  0  0  0  0
   -3.1655   -3.7788    1.1953 H   0  0  0  0  0  0  0  0  0  0  0  0
   -4.1514   -3.2494    3.4077 H   0  0  0  0  0  0  0  0  0  0  0  0
   -5.6754   -1.3130    3.6687 H   0  0  0  0  0  0  0  0  0  0  0  0
   -6.2189    0.0987    1.6873 H   0  0  0  0  0  0  0  0  0  0  0  0
    0.5905    0.5470    1.0127 H   0  0  0  0  0  0  0  0  0  0  0  0
    2.4168    1.0014    4.0730 H   0  0  0  0  0  0  0  0  0  0  0  0
    1.0857    1.4564    3.0123 H   0  0  0  0  0  0  0  0  0  0  0  0
    1.7745   -0.2164    2.9543 H   0  0  0  0  0  0  0  0  0  0  0  0
    6.0246    0.3377   -0.5288 H   0  0  0  0  0  0  0  0  0  0  0  0
    5.2456   -0.0899    1.0417 H   0  0  0  0  0  0  0  0  0  0  0  0
    6.6395    1.0098    0.9900 H   0  0  0  0  0  0  0  0  0  0  0  0
  1  2  1  0
  2  3  1  0
  3  4  2  0
  4  5  1  0
  5  6  1  0
  6  7  1  0
  7  8  2  0
  7  9  1  0
  9 10  1  0
 10 11  1  0
 11 12  2  0
 12 13  1  0
 13 14  2  0
 14 15  1  0
 15 16  2  0
 16 17  1  0
 17 18  2  0
 18 19  1  0
 19 20  2  0
 20 21  1  0
  5 22  2  0
 22 23  1  0
 23 24  1  0
 24 25  1  0
 23 26  2  0
 26 27  1  0
 27 28  1  0
 26  3  1  0
 14 10  1  0
 20 15  1  0
  1 29  1  0
  1 30  1  0
  1 31  1  0
  4 32  1  0
  6 33  1  0
  9 34  1  0
  9 35  1  0
 16 36  1  0
 17 37  1  0
 18 38  1  0
 19 39  1  0
 22 40  1  0
 25 41  1  0
 25 42  1  0
 25 43  1  0
 28 44  1  0
 28 45  1  0
 28 46  1  0
M  END
$$$$
