
     RDKit          3D

 52 54  0  0  0  0  0  0  0  0999 V2000
   -5.2703    2.6895   -2.0833 C   0  0  0  0  0  0  0  0  0  0  0  0
   -5.7037    1.4291   -2.8175 C   0  0  0  0  0  0  0  0  0  0  0  0
   -4.5686    0.4275   -3.0559 C   0  0  0  0  0  0  0  0  0  0  0  0
   -4.0378   -0.2131   -1.7919 C   0  0  0  0  0  0  0  0  0  0  0  0
   -4.4621   -1.4292   -1.4097 C   0  0  0  0  0  0  0  0  0  0  0  0
   -3.9106   -2.0456   -0.1807 C   0  0  0  0  0  0  0  0  0  0  0  0
   -4.3079   -3.1522    0.1708 O   0  0  0  0  0  0  0  0  0  0  0  0
   -2.9702   -1.2639    0.4520 N   0  0  0  0  0  0  0  0  0  0  0  0
   -2.3408   -1.6701    1.6013 N   0  0  0  0  0  0  0  0  0  0  0  0
   -1.5034   -0.7589    2.0002 C   0  0  0  0  0  0  0  0  0  0  0  0
   -0.6970   -0.8754    3.1174 N   0  0  0  0  0  0  0  0  0  0  0  0
   -0.8446   -2.0457    3.9805 C   0  0  0  0  0  0  0  0  0  0  0  0
    0.0221    0.2642    3.7264 C   0  0  0  0  0  0  0  0  0  0  0  0
    1.3925    0.5039    3.0794 C   0  0  0  0  0  0  0  0  0  0  0  0
    2.0394    1.5267    3.2876 O   0  0  0  0  0  0  0  0  0  0  0  0
    1.8526   -0.5310    2.2927 N   0  0  0  0  0  0  0  0  0  0  0  0
    3.0567   -0.4123    1.4913 C   0  0  0  0  0  0  0  0  0  0  0  0
    2.8242    0.4190    0.2139 C   0  0  0  0  0  0  0  0  0  0  0  0
    3.9219    0.5196   -0.7476 N   0  0  0  0  0  0  0  0  0  0  0  0
    4.3060   -0.7279   -1.3952 C   0  0  0  0  0  0  0  0  0  0  0  0
    5.5714   -0.3285   -2.1403 C   0  0  0  0  0  0  0  0  0  0  0  0
    6.1461    0.8466   -1.3530 C   0  0  0  0  0  0  0  0  0  0  0  0
    5.1558    1.0948   -0.2230 C   0  0  0  0  0  0  0  0  0  0  0  0
   -1.4160    0.6725    0.9770 S   0  0  0  0  0  0  0  0  0  0  0  0
   -2.6124   -0.0435   -0.0448 C   0  0  0  0  0  0  0  0  0  0  0  0
   -3.0824    0.5105   -1.1110 N   0  0  0  0  0  0  0  0  0  0  0  0
   -6.0936    3.4108   -2.0599 H   0  0  0  0  0  0  0  0  0  0  0  0
   -4.9902    2.4761   -1.0469 H   0  0  0  0  0  0  0  0  0  0  0  0
   -4.4202    3.1636   -2.5834 H   0  0  0  0  0  0  0  0  0  0  0  0
   -6.5209    0.9509   -2.2651 H   0  0  0  0  0  0  0  0  0  0  0  0
   -6.1127    1.7221   -3.7923 H   0  0  0  0  0  0  0  0  0  0  0  0
   -4.9405   -0.3534   -3.7326 H   0  0  0  0  0  0  0  0  0  0  0  0
   -3.7450    0.9151   -3.5932 H   0  0  0  0  0  0  0  0  0  0  0  0
   -5.2027   -2.0030   -1.9520 H   0  0  0  0  0  0  0  0  0  0  0  0
   -0.9452   -2.9635    3.3909 H   0  0  0  0  0  0  0  0  0  0  0  0
   -1.7265   -1.9371    4.6197 H   0  0  0  0  0  0  0  0  0  0  0  0
    0.0349   -2.1771    4.6201 H   0  0  0  0  0  0  0  0  0  0  0  0
   -0.5723    1.1824    3.6573 H   0  0  0  0  0  0  0  0  0  0  0  0
    0.2021    0.0827    4.7938 H   0  0  0  0  0  0  0  0  0  0  0  0
    1.1792   -1.2543    2.0650 H   0  0  0  0  0  0  0  0  0  0  0  0
    3.8331    0.0441    2.1117 H   0  0  0  0  0  0  0  0  0  0  0  0
    3.3647   -1.4320    1.2480 H   0  0  0  0  0  0  0  0  0  0  0  0
    1.9471    0.0173   -0.3101 H   0  0  0  0  0  0  0  0  0  0  0  0
    2.5320    1.4363    0.5034 H   0  0  0  0  0  0  0  0  0  0  0  0
    3.5376   -1.0912   -2.0855 H   0  0  0  0  0  0  0  0  0  0  0  0
    4.5354   -1.5232   -0.6755 H   0  0  0  0  0  0  0  0  0  0  0  0
    5.3300   -0.0041   -3.1593 H   0  0  0  0  0  0  0  0  0  0  0  0
    6.2799   -1.1600   -2.2103 H   0  0  0  0  0  0  0  0  0  0  0  0
    7.1451    0.6230   -0.9667 H   0  0  0  0  0  0  0  0  0  0  0  0
    6.2261    1.7257   -2.0031 H   0  0  0  0  0  0  0  0  0  0  0  0
    5.5049    0.5801    0.6796 H   0  0  0  0  0  0  0  0  0  0  0  0
    5.0567    2.1621   -0.0022 H   0  0  0  0  0  0  0  0  0  0  0  0
  1  2  1  0
  2  3  1  0
  3  4  1  0
  4  5  2  0
  5  6  1  0
  6  7  2  0
  6  8  1  0
  8  9  1  0
  9 10  2  0
 10 11  1  0
 11 12  1  0
 11 13  1  0
 13 14  1  0
 14 15  2  0
 14 16  1  0
 16 17  1  0
 17 18  1  0
 18 19  1  0
 19 20  1  0
 20 21  1  0
 21 22  1  0
 22 23  1  0
 10 24  1  0
 24 25  1  0
 25 26  2  0
 26  4  1  0
 25  8  1  0
 23 19  1  0
  1 27  1  0
  1 28  1  0
  1 29  1  0
  2 30  1  0
  2 31  1  0
  3 32  1  0
  3 33  1  0
  5 34  1  0
 12 35  1  0
 12 36  1  0
 12 37  1  0
 13 38  1  0
 13 39  1  0
 16 40  1  0
 17 41  1  0
 17 42  1  0
 18 43  1  0
 18 44  1  0
 20 45  1  0
 20 46  1  0
 21 47  1  0
 21 48  1  0
 22 49  1  0
 22 50  1  0
 23 51  1  0
 23 52  1  0
M  END
$$$$
