
     RDKit          3D

 45 48  0  0  0  0  0  0  0  0999 V2000
   -6.0549    0.5592    2.4573 C   0  0  0  0  0  0  0  0  0  0  0  0
   -4.8614   -0.1826    2.2429 O   0  0  0  0  0  0  0  0  0  0  0  0
   -4.1460    0.0986    1.1110 C   0  0  0  0  0  0  0  0  0  0  0  0
   -4.4880    1.0421    0.1438 C   0  0  0  0  0  0  0  0  0  0  0  0
   -3.6694    1.2350   -0.9744 C   0  0  0  0  0  0  0  0  0  0  0  0
   -2.5023    0.4842   -1.1309 C   0  0  0  0  0  0  0  0  0  0  0  0
   -1.6308    0.5965   -2.1879 O   0  0  0  0  0  0  0  0  0  0  0  0
   -1.9494    1.5429   -3.1993 C   0  0  0  0  0  0  0  0  0  0  0  0
   -2.1505   -0.4713   -0.1552 C   0  0  0  0  0  0  0  0  0  0  0  0
   -0.9582   -1.1976   -0.3741 N   0  0  0  0  0  0  0  0  0  0  0  0
   -0.3707   -2.1494    0.4360 C   0  0  0  0  0  0  0  0  0  0  0  0
   -0.7794   -2.5418    1.5258 O   0  0  0  0  0  0  0  0  0  0  0  0
    0.9300   -2.7021   -0.1432 C   0  0  0  0  0  0  0  0  0  0  0  0
    2.0007   -1.7145   -0.0199 N   0  0  0  0  0  0  0  0  0  0  0  0
    2.1852   -0.7977   -1.0637 C   0  0  0  0  0  0  0  0  0  0  0  0
    1.4697   -0.7866   -2.0632 O   0  0  0  0  0  0  0  0  0  0  0  0
    3.2821    0.2115   -0.9338 C   0  0  0  0  0  0  0  0  0  0  0  0
    3.5241    1.1182   -1.9715 C   0  0  0  0  0  0  0  0  0  0  0  0
    4.5480    2.0637   -1.8472 C   0  0  0  0  0  0  0  0  0  0  0  0
    5.3282    2.1058   -0.6883 C   0  0  0  0  0  0  0  0  0  0  0  0
    6.5824    3.2748   -0.5513 Cl  0  0  0  0  0  0  0  0  0  0  0  0
    5.0997    1.2116    0.3559 C   0  0  0  0  0  0  0  0  0  0  0  0
    4.0747    0.2710    0.2191 C   0  0  0  0  0  0  0  0  0  0  0  0
    3.7833   -0.6511    1.2246 N   0  0  0  0  0  0  0  0  0  0  0  0
    4.4203   -0.7461    2.4050 N   0  0  0  0  0  0  0  0  0  0  0  0
    3.8411   -1.7234    3.0940 N   0  0  0  0  0  0  0  0  0  0  0  0
    2.8353   -2.2496    2.3275 C   0  0  0  0  0  0  0  0  0  0  0  0
    2.7901   -1.5930    1.1199 C   0  0  0  0  0  0  0  0  0  0  0  0
   -2.9771   -0.6547    0.9559 C   0  0  0  0  0  0  0  0  0  0  0  0
   -6.7830    0.3740    1.6607 H   0  0  0  0  0  0  0  0  0  0  0  0
   -6.4969    0.2172    3.3981 H   0  0  0  0  0  0  0  0  0  0  0  0
   -5.8423    1.6286    2.5586 H   0  0  0  0  0  0  0  0  0  0  0  0
   -5.3860    1.6453    0.2277 H   0  0  0  0  0  0  0  0  0  0  0  0
   -3.9740    1.9795   -1.7020 H   0  0  0  0  0  0  0  0  0  0  0  0
   -1.9671    2.5606   -2.7959 H   0  0  0  0  0  0  0  0  0  0  0  0
   -2.8962    1.2935   -3.6895 H   0  0  0  0  0  0  0  0  0  0  0  0
   -1.1611    1.4996   -3.9571 H   0  0  0  0  0  0  0  0  0  0  0  0
   -0.4674   -0.9376   -1.2337 H   0  0  0  0  0  0  0  0  0  0  0  0
    0.7721   -2.9693   -1.1943 H   0  0  0  0  0  0  0  0  0  0  0  0
    1.2065   -3.6203    0.3863 H   0  0  0  0  0  0  0  0  0  0  0  0
    2.9207    1.0947   -2.8773 H   0  0  0  0  0  0  0  0  0  0  0  0
    4.7317    2.7658   -2.6577 H   0  0  0  0  0  0  0  0  0  0  0  0
    5.7107    1.2539    1.2552 H   0  0  0  0  0  0  0  0  0  0  0  0
    2.2139   -3.0563    2.6905 H   0  0  0  0  0  0  0  0  0  0  0  0
   -2.7387   -1.3829    1.7246 H   0  0  0  0  0  0  0  0  0  0  0  0
  1  2  1  0
  2  3  1  0
  3  4  2  0
  4  5  1  0
  5  6  2  0
  6  7  1  0
  7  8  1  0
  6  9  1  0
  9 10  1  0
 10 11  1  0
 11 12  2  0
 11 13  1  0
 13 14  1  0
 14 15  1  0
 15 16  2  0
 15 17  1  0
 17 18  2  0
 18 19  1  0
 19 20  2  0
 20 21  1  0
 20 22  1  0
 22 23  2  0
 23 24  1  0
 24 25  1  0
 25 26  2  0
 26 27  1  0
 27 28  2  0
  9 29  2  0
 29  3  1  0
 28 14  1  0
 23 17  1  0
 28 24  1  0
  1 30  1  0
  1 31  1  0
  1 32  1  0
  4 33  1  0
  5 34  1  0
  8 35  1  0
  8 36  1  0
  8 37  1  0
 10 38  1  0
 13 39  1  0
 13 40  1  0
 18 41  1  0
 19 42  1  0
 22 43  1  0
 27 44  1  0
 29 45  1  0
M  END
$$$$
