
     RDKit          3D

 48 50  0  0  0  0  0  0  0  0999 V2000
    7.0425    1.0838    0.9883 C   0  0  0  0  0  0  0  0  0  0  0  0
    6.4933   -0.1381    0.5084 O   0  0  0  0  0  0  0  0  0  0  0  0
    5.1531   -0.1486    0.2386 C   0  0  0  0  0  0  0  0  0  0  0  0
    4.6499   -1.3779   -0.1920 C   0  0  0  0  0  0  0  0  0  0  0  0
    3.2883   -1.5507   -0.5059 C   0  0  0  0  0  0  0  0  0  0  0  0
    2.7914   -2.7415   -0.9733 O   0  0  0  0  0  0  0  0  0  0  0  0
    3.6535   -3.8718   -1.0067 C   0  0  0  0  0  0  0  0  0  0  0  0
    2.3882   -0.4651   -0.3791 C   0  0  0  0  0  0  0  0  0  0  0  0
    0.9182   -0.5014   -0.6229 C   0  0  0  0  0  0  0  0  0  0  0  0
    0.2479   -1.8403   -0.8057 C   0  0  0  0  0  0  0  0  0  0  0  0
    0.2140    0.6539   -0.6153 C   0  0  0  0  0  0  0  0  0  0  0  0
   -1.2685    0.7842   -0.8911 C   0  0  0  0  0  0  0  0  0  0  0  0
   -2.0739    0.8094    0.4106 C   0  0  0  0  0  0  0  0  0  0  0  0
   -1.5253    0.7434    1.5123 O   0  0  0  0  0  0  0  0  0  0  0  0
   -3.4611    0.8744    0.2852 N   0  0  0  0  0  0  0  0  0  0  0  0
   -4.2753    0.8226    1.5001 C   0  0  0  0  0  0  0  0  0  0  0  0
   -5.5911    0.0927    1.2580 C   0  0  0  0  0  0  0  0  0  0  0  0
   -6.4179    0.7415    0.1479 C   0  0  0  0  0  0  0  0  0  0  0  0
   -5.5736    1.5626   -0.8249 C   0  0  0  0  0  0  0  0  0  0  0  0
   -4.1692    0.9931   -0.9911 C   0  0  0  0  0  0  0  0  0  0  0  0
    0.8520    1.9590   -0.3058 C   0  0  0  0  0  0  0  0  0  0  0  0
    0.2450    3.0209   -0.4048 O   0  0  0  0  0  0  0  0  0  0  0  0
    2.1676    1.9294    0.1063 O   0  0  0  0  0  0  0  0  0  0  0  0
    2.9383    0.7568    0.0222 C   0  0  0  0  0  0  0  0  0  0  0  0
    4.2903    0.9293    0.3386 C   0  0  0  0  0  0  0  0  0  0  0  0
    6.9559    1.8761    0.2374 H   0  0  0  0  0  0  0  0  0  0  0  0
    8.1076    0.9196    1.1779 H   0  0  0  0  0  0  0  0  0  0  0  0
    6.5774    1.3817    1.9339 H   0  0  0  0  0  0  0  0  0  0  0  0
    5.3604   -2.1941   -0.2808 H   0  0  0  0  0  0  0  0  0  0  0  0
    3.0633   -4.7303   -1.3418 H   0  0  0  0  0  0  0  0  0  0  0  0
    4.0415   -4.1053   -0.0097 H   0  0  0  0  0  0  0  0  0  0  0  0
    4.4644   -3.7264   -1.7276 H   0  0  0  0  0  0  0  0  0  0  0  0
    0.5545   -2.5420   -0.0221 H   0  0  0  0  0  0  0  0  0  0  0  0
   -0.8411   -1.7949   -0.7222 H   0  0  0  0  0  0  0  0  0  0  0  0
    0.4768   -2.2591   -1.7908 H   0  0  0  0  0  0  0  0  0  0  0  0
   -1.6304   -0.0338   -1.5217 H   0  0  0  0  0  0  0  0  0  0  0  0
   -1.4633    1.7034   -1.4542 H   0  0  0  0  0  0  0  0  0  0  0  0
   -4.4592    1.8566    1.8147 H   0  0  0  0  0  0  0  0  0  0  0  0
   -3.7257    0.3275    2.3077 H   0  0  0  0  0  0  0  0  0  0  0  0
   -5.3733   -0.9454    0.9749 H   0  0  0  0  0  0  0  0  0  0  0  0
   -6.1791    0.0488    2.1816 H   0  0  0  0  0  0  0  0  0  0  0  0
   -6.9575   -0.0432   -0.3964 H   0  0  0  0  0  0  0  0  0  0  0  0
   -7.1852    1.3914    0.5855 H   0  0  0  0  0  0  0  0  0  0  0  0
   -5.4974    2.5906   -0.4470 H   0  0  0  0  0  0  0  0  0  0  0  0
   -6.0781    1.6234   -1.7957 H   0  0  0  0  0  0  0  0  0  0  0  0
   -4.2133   -0.0101   -1.4309 H   0  0  0  0  0  0  0  0  0  0  0  0
   -3.6020    1.6304   -1.6745 H   0  0  0  0  0  0  0  0  0  0  0  0
    4.6262    1.9135    0.6461 H   0  0  0  0  0  0  0  0  0  0  0  0
  1  2  1  0
  2  3  1  0
  3  4  2  0
  4  5  1  0
  5  6  1  0
  6  7  1  0
  5  8  2  0
  8  9  1  0
  9 10  1  0
  9 11  2  0
 11 12  1  0
 12 13  1  0
 13 14  2  0
 13 15  1  0
 15 16  1  0
 16 17  1  0
 17 18  1  0
 18 19  1  0
 19 20  1  0
 11 21  1  0
 21 22  2  0
 21 23  1  0
 23 24  1  0
 24 25  2  0
 25  3  1  0
 24  8  1  0
 20 15  1  0
  1 26  1  0
  1 27  1  0
  1 28  1  0
  4 29  1  0
  7 30  1  0
  7 31  1  0
  7 32  1  0
 10 33  1  0
 10 34  1  0
 10 35  1  0
 12 36  1  0
 12 37  1  0
 16 38  1  0
 16 39  1  0
 17 40  1  0
 17 41  1  0
 18 42  1  0
 18 43  1  0
 19 44  1  0
 19 45  1  0
 20 46  1  0
 20 47  1  0
 25 48  1  0
M  END
$$$$
