
     RDKit          3D

 56 60  0  0  0  0  0  0  0  0999 V2000
   -6.8403    0.2839   -1.1460 C   0  0  0  0  0  0  0  0  0  0  0  0
   -6.5191    1.0385    0.0871 C   0  0  0  0  0  0  0  0  0  0  0  0
   -7.3596    1.9780    0.5429 N   0  0  0  0  0  0  0  0  0  0  0  0
   -6.7794    2.4618    1.7083 O   0  0  0  0  0  0  0  0  0  0  0  0
   -5.5987    1.8198    1.9363 C   0  0  0  0  0  0  0  0  0  0  0  0
   -4.8060    2.0665    2.9895 N   0  0  0  0  0  0  0  0  0  0  0  0
   -3.7187    1.2882    2.9633 C   0  0  0  0  0  0  0  0  0  0  0  0
   -3.3791    0.3694    2.0376 N   0  0  0  0  0  0  0  0  0  0  0  0
   -4.2068    0.1530    0.9814 C   0  0  0  0  0  0  0  0  0  0  0  0
   -3.8687   -0.7769   -0.0129 N   0  0  0  0  0  0  0  0  0  0  0  0
   -3.1651   -0.1375   -1.1357 C   0  0  0  0  0  0  0  0  0  0  0  0
   -1.6776    0.0474   -0.8354 C   0  0  0  0  0  0  0  0  0  0  0  0
   -1.0120   -1.2366   -0.3087 C   0  0  0  0  0  0  0  0  0  0  0  0
    0.1965   -1.5956   -1.1742 C   0  0  0  0  0  0  0  0  0  0  0  0
    0.0997   -2.4392   -2.0665 O   0  0  0  0  0  0  0  0  0  0  0  0
    1.3782   -0.9059   -0.9507 N   0  0  0  0  0  0  0  0  0  0  0  0
    1.5918    0.0766    0.1194 C   0  0  0  0  0  0  0  0  0  0  0  0
    2.8873    0.8947   -0.0432 C   0  0  0  0  0  0  0  0  0  0  0  0
    4.0576    0.0157   -0.1825 N   0  0  0  0  0  0  0  0  0  0  0  0
    5.3393    0.4550    0.1174 C   0  0  0  0  0  0  0  0  0  0  0  0
    5.6519    1.8197    0.2399 C   0  0  0  0  0  0  0  0  0  0  0  0
    6.9457    2.2623    0.5463 C   0  0  0  0  0  0  0  0  0  0  0  0
    7.9671    1.3419    0.7458 C   0  0  0  0  0  0  0  0  0  0  0  0
    7.6845   -0.0135    0.6387 C   0  0  0  0  0  0  0  0  0  0  0  0
    8.9373   -1.1676    0.8941 Cl  0  0  0  0  0  0  0  0  0  0  0  0
    6.3922   -0.4504    0.3302 C   0  0  0  0  0  0  0  0  0  0  0  0
    3.8553   -1.2669   -0.8865 C   0  0  0  0  0  0  0  0  0  0  0  0
    2.5682   -1.2622   -1.7324 C   0  0  0  0  0  0  0  0  0  0  0  0
   -2.0045   -2.4074   -0.2606 C   0  0  0  0  0  0  0  0  0  0  0  0
   -3.2635   -2.0164    0.5066 C   0  0  0  0  0  0  0  0  0  0  0  0
   -5.3826    0.9098    0.9215 C   0  0  0  0  0  0  0  0  0  0  0  0
   -6.1361    0.5374   -1.9447 H   0  0  0  0  0  0  0  0  0  0  0  0
   -7.8499    0.5104   -1.5040 H   0  0  0  0  0  0  0  0  0  0  0  0
   -6.7863   -0.7936   -0.9626 H   0  0  0  0  0  0  0  0  0  0  0  0
   -3.0199    1.4142    3.7854 H   0  0  0  0  0  0  0  0  0  0  0  0
   -3.6133    0.8294   -1.3971 H   0  0  0  0  0  0  0  0  0  0  0  0
   -3.2877   -0.7653   -2.0278 H   0  0  0  0  0  0  0  0  0  0  0  0
   -1.1793    0.4182   -1.7393 H   0  0  0  0  0  0  0  0  0  0  0  0
   -1.5608    0.8383   -0.0840 H   0  0  0  0  0  0  0  0  0  0  0  0
   -0.6666   -1.0689    0.7186 H   0  0  0  0  0  0  0  0  0  0  0  0
    0.7397    0.7582    0.1683 H   0  0  0  0  0  0  0  0  0  0  0  0
    1.6257   -0.4864    1.0603 H   0  0  0  0  0  0  0  0  0  0  0  0
    2.8101    1.5374   -0.9286 H   0  0  0  0  0  0  0  0  0  0  0  0
    2.9826    1.5374    0.8395 H   0  0  0  0  0  0  0  0  0  0  0  0
    4.8928    2.5779    0.0717 H   0  0  0  0  0  0  0  0  0  0  0  0
    7.1495    3.3271    0.6248 H   0  0  0  0  0  0  0  0  0  0  0  0
    8.9704    1.6835    0.9826 H   0  0  0  0  0  0  0  0  0  0  0  0
    6.2108   -1.5199    0.2870 H   0  0  0  0  0  0  0  0  0  0  0  0
    4.6935   -1.4817   -1.5605 H   0  0  0  0  0  0  0  0  0  0  0  0
    3.7980   -2.0698   -0.1417 H   0  0  0  0  0  0  0  0  0  0  0  0
    2.4436   -2.2386   -2.2119 H   0  0  0  0  0  0  0  0  0  0  0  0
    2.6513   -0.5133   -2.5302 H   0  0  0  0  0  0  0  0  0  0  0  0
   -2.2785   -2.7298   -1.2740 H   0  0  0  0  0  0  0  0  0  0  0  0
   -1.5363   -3.2772    0.2164 H   0  0  0  0  0  0  0  0  0  0  0  0
   -4.0032   -2.8198    0.4056 H   0  0  0  0  0  0  0  0  0  0  0  0
   -3.0207   -1.9643    1.5753 H   0  0  0  0  0  0  0  0  0  0  0  0
  1  2  1  0
  2  3  2  0
  3  4  1  0
  4  5  1  0
  5  6  2  0
  6  7  1  0
  7  8  2  0
  8  9  1  0
  9 10  1  0
 10 11  1  0
 11 12  1  0
 12 13  1  0
 13 14  1  0
 14 15  2  0
 14 16  1  0
 16 17  1  0
 17 18  1  0
 18 19  1  0
 19 20  1  0
 20 21  2  0
 21 22  1  0
 22 23  2  0
 23 24  1  0
 24 25  1  0
 24 26  2  0
 19 27  1  0
 27 28  1  0
 13 29  1  0
 29 30  1  0
  9 31  2  0
 31  2  1  0
 31  5  1  0
 30 10  1  0
 28 16  1  0
 26 20  1  0
  1 32  1  0
  1 33  1  0
  1 34  1  0
  7 35  1  0
 11 36  1  0
 11 37  1  0
 12 38  1  0
 12 39  1  0
 13 40  1  0
 17 41  1  0
 17 42  1  0
 18 43  1  0
 18 44  1  0
 21 45  1  0
 22 46  1  0
 23 47  1  0
 26 48  1  0
 27 49  1  0
 27 50  1  0
 28 51  1  0
 28 52  1  0
 29 53  1  0
 29 54  1  0
 30 55  1  0
 30 56  1  0
M  END
$$$$
