
     RDKit          3D

 40 41  0  0  0  0  0  0  0  0999 V2000
    6.6412   -2.1256    1.2324 C   0  0  0  0  0  0  0  0  0  0  0  0
    6.7748   -0.9387    0.3633 C   0  0  0  0  0  0  0  0  0  0  0  0
    7.9784   -0.5193   -0.0315 N   0  0  0  0  0  0  0  0  0  0  0  0
    7.7216    0.5968   -0.8198 O   0  0  0  0  0  0  0  0  0  0  0  0
    6.3618    0.8499   -0.8999 N   0  0  0  0  0  0  0  0  0  0  0  0
    5.7707   -0.0951   -0.1712 C   0  0  0  0  0  0  0  0  0  0  0  0
    4.4079   -0.2381    0.0356 N   0  0  0  0  0  0  0  0  0  0  0  0
    3.4430    0.6042   -0.5008 C   0  0  0  0  0  0  0  0  0  0  0  0
    3.6536    1.5745   -1.2191 O   0  0  0  0  0  0  0  0  0  0  0  0
    2.0295    0.1740   -0.0824 C   0  0  0  0  0  0  0  0  0  0  0  0
    1.0359    1.0271   -0.6245 O   0  0  0  0  0  0  0  0  0  0  0  0
   -0.2660    0.7459   -0.3223 C   0  0  0  0  0  0  0  0  0  0  0  0
   -1.1954    1.6179   -0.8829 C   0  0  0  0  0  0  0  0  0  0  0  0
   -2.5645    1.4465   -0.6551 C   0  0  0  0  0  0  0  0  0  0  0  0
   -3.0489    0.3944    0.1430 C   0  0  0  0  0  0  0  0  0  0  0  0
   -4.5614    0.2333    0.3742 C   0  0  0  0  0  0  0  0  0  0  0  0
   -4.9313   -0.9689    1.2722 C   0  0  0  0  0  0  0  0  0  0  0  0
   -5.2747    0.0280   -0.9797 C   0  0  0  0  0  0  0  0  0  0  0  0
   -5.1205    1.5010    1.0557 C   0  0  0  0  0  0  0  0  0  0  0  0
   -2.0963   -0.4743    0.6995 C   0  0  0  0  0  0  0  0  0  0  0  0
   -0.7222   -0.3025    0.4710 C   0  0  0  0  0  0  0  0  0  0  0  0
    6.0406   -2.8957    0.7378 H   0  0  0  0  0  0  0  0  0  0  0  0
    7.6154   -2.5628    1.4750 H   0  0  0  0  0  0  0  0  0  0  0  0
    6.1494   -1.8571    2.1728 H   0  0  0  0  0  0  0  0  0  0  0  0
    4.1189   -1.0105    0.6165 H   0  0  0  0  0  0  0  0  0  0  0  0
    1.9922    0.2042    1.0136 H   0  0  0  0  0  0  0  0  0  0  0  0
    1.8817   -0.8510   -0.4445 H   0  0  0  0  0  0  0  0  0  0  0  0
   -0.8531    2.4420   -1.5052 H   0  0  0  0  0  0  0  0  0  0  0  0
   -3.2489    2.1554   -1.1162 H   0  0  0  0  0  0  0  0  0  0  0  0
   -6.0172   -1.0418    1.4073 H   0  0  0  0  0  0  0  0  0  0  0  0
   -4.4883   -0.8779    2.2709 H   0  0  0  0  0  0  0  0  0  0  0  0
   -4.5971   -1.9170    0.8351 H   0  0  0  0  0  0  0  0  0  0  0  0
   -6.3514   -0.1244   -0.8401 H   0  0  0  0  0  0  0  0  0  0  0  0
   -4.8789   -0.8493   -1.5050 H   0  0  0  0  0  0  0  0  0  0  0  0
   -5.1573    0.8903   -1.6451 H   0  0  0  0  0  0  0  0  0  0  0  0
   -6.1919    1.3981    1.2638 H   0  0  0  0  0  0  0  0  0  0  0  0
   -4.9998    2.3940    0.4328 H   0  0  0  0  0  0  0  0  0  0  0  0
   -4.6126    1.6932    2.0083 H   0  0  0  0  0  0  0  0  0  0  0  0
   -2.3952   -1.3098    1.3268 H   0  0  0  0  0  0  0  0  0  0  0  0
   -0.0439   -1.0111    0.9324 H   0  0  0  0  0  0  0  0  0  0  0  0
  1  2  1  0
  2  3  2  0
  3  4  1  0
  4  5  1  0
  5  6  2  0
  6  7  1  0
  7  8  1  0
  8  9  2  0
  8 10  1  0
 10 11  1  0
 11 12  1  0
 12 13  2  0
 13 14  1  0
 14 15  2  0
 15 16  1  0
 16 17  1  0
 16 18  1  0
 16 19  1  0
 15 20  1  0
 20 21  2  0
  6  2  1  0
 21 12  1  0
  1 22  1  0
  1 23  1  0
  1 24  1  0
  7 25  1  0
 10 26  1  0
 10 27  1  0
 13 28  1  0
 14 29  1  0
 17 30  1  0
 17 31  1  0
 17 32  1  0
 18 33  1  0
 18 34  1  0
 18 35  1  0
 19 36  1  0
 19 37  1  0
 19 38  1  0
 20 39  1  0
 21 40  1  0
M  END
$$$$
