
     RDKit          3D

 58 61  0  0  0  0  0  0  0  0999 V2000
    6.7548    1.1722    0.9474 C   0  0  0  0  0  0  0  0  0  0  0  0
    6.1161   -0.1408    1.0089 N   0  0  0  0  0  0  0  0  0  0  0  0
    5.1069   -0.2146    2.0857 C   0  0  0  0  0  0  0  0  0  0  0  0
    3.7010    0.2803    1.6696 C   0  0  0  0  0  0  0  0  0  0  0  0
    3.1294   -0.3993    0.4828 N   0  0  0  0  0  0  0  0  0  0  0  0
    2.4115    0.5722   -0.3655 C   0  0  0  0  0  0  0  0  0  0  0  0
    1.5695   -0.0147   -1.5295 C   0  0  0  0  0  0  0  0  0  0  0  0
    0.7646    1.0654   -2.2411 C   0  0  0  0  0  0  0  0  0  0  0  0
   -0.5242    1.0872   -1.4524 C   0  0  0  0  0  0  0  0  0  0  0  0
   -0.7221   -0.3850   -1.0750 C   0  0  0  0  0  0  0  0  0  0  0  0
   -1.3579   -0.5245    0.3174 C   0  0  0  0  0  0  0  0  0  0  0  0
   -2.1480   -1.8231    0.4342 C   0  0  0  0  0  0  0  0  0  0  0  0
   -3.2588   -1.8404   -0.5482 N   0  0  0  0  0  0  0  0  0  0  0  0
   -4.8566   -1.8979    0.0111 S   0  0  0  0  0  6  0  0  0  0  0  0
   -5.7061   -2.1184   -1.1440 O   0  0  0  0  0  0  0  0  0  0  0  0
   -4.9343   -2.7785    1.1555 O   0  0  0  0  0  0  0  0  0  0  0  0
   -5.1749   -0.2439    0.5598 C   0  0  0  0  0  0  0  0  0  0  0  0
   -5.8936    0.6342   -0.2640 C   0  0  0  0  0  0  0  0  0  0  0  0
   -6.1840    1.9233    0.1891 C   0  0  0  0  0  0  0  0  0  0  0  0
   -5.7708    2.3144    1.4595 C   0  0  0  0  0  0  0  0  0  0  0  0
   -6.0530    3.5495    1.8923 F   0  0  0  0  0  0  0  0  0  0  0  0
   -5.0726    1.4439    2.2858 C   0  0  0  0  0  0  0  0  0  0  0  0
   -4.7810    0.1610    1.8319 C   0  0  0  0  0  0  0  0  0  0  0  0
   -4.0923   -0.6483    2.6450 F   0  0  0  0  0  0  0  0  0  0  0  0
   -3.0035   -1.1584   -1.8353 C   0  0  0  0  0  0  0  0  0  0  0  0
   -1.5128   -1.1593   -2.1465 C   0  0  0  0  0  0  0  0  0  0  0  0
    0.6027   -0.9563   -1.0310 O   0  0  0  0  0  0  0  0  0  0  0  0
    4.1536   -1.1882   -0.2255 C   0  0  0  0  0  0  0  0  0  0  0  0
    5.5340   -0.4953   -0.3035 C   0  0  0  0  0  0  0  0  0  0  0  0
    7.2457    1.4103    1.8981 H   0  0  0  0  0  0  0  0  0  0  0  0
    7.5429    1.1787    0.1844 H   0  0  0  0  0  0  0  0  0  0  0  0
    6.0437    1.9735    0.7137 H   0  0  0  0  0  0  0  0  0  0  0  0
    5.4464    0.3319    2.9746 H   0  0  0  0  0  0  0  0  0  0  0  0
    5.0319   -1.2629    2.4073 H   0  0  0  0  0  0  0  0  0  0  0  0
    3.7668    1.3668    1.5051 H   0  0  0  0  0  0  0  0  0  0  0  0
    3.0085    0.1353    2.5101 H   0  0  0  0  0  0  0  0  0  0  0  0
    1.7240    1.1204    0.2917 H   0  0  0  0  0  0  0  0  0  0  0  0
    3.1149    1.3075   -0.7763 H   0  0  0  0  0  0  0  0  0  0  0  0
    2.2142   -0.5264   -2.2489 H   0  0  0  0  0  0  0  0  0  0  0  0
    0.5586    0.7562   -3.2738 H   0  0  0  0  0  0  0  0  0  0  0  0
    1.2663    2.0371   -2.2777 H   0  0  0  0  0  0  0  0  0  0  0  0
   -1.3612    1.5108   -2.0164 H   0  0  0  0  0  0  0  0  0  0  0  0
   -0.3880    1.7073   -0.5570 H   0  0  0  0  0  0  0  0  0  0  0  0
   -2.0341    0.3179    0.5102 H   0  0  0  0  0  0  0  0  0  0  0  0
   -0.5833   -0.5069    1.0938 H   0  0  0  0  0  0  0  0  0  0  0  0
   -2.5150   -1.9396    1.4566 H   0  0  0  0  0  0  0  0  0  0  0  0
   -1.5031   -2.6892    0.2437 H   0  0  0  0  0  0  0  0  0  0  0  0
   -6.2390    0.3218   -1.2489 H   0  0  0  0  0  0  0  0  0  0  0  0
   -6.7375    2.6189   -0.4343 H   0  0  0  0  0  0  0  0  0  0  0  0
   -4.7622    1.7589    3.2764 H   0  0  0  0  0  0  0  0  0  0  0  0
   -3.5300   -1.6920   -2.6335 H   0  0  0  0  0  0  0  0  0  0  0  0
   -3.3778   -0.1303   -1.8045 H   0  0  0  0  0  0  0  0  0  0  0  0
   -1.3400   -0.7350   -3.1427 H   0  0  0  0  0  0  0  0  0  0  0  0
   -1.1524   -2.1955   -2.2024 H   0  0  0  0  0  0  0  0  0  0  0  0
    3.8304   -1.4732   -1.2326 H   0  0  0  0  0  0  0  0  0  0  0  0
    4.2690   -2.1419    0.3080 H   0  0  0  0  0  0  0  0  0  0  0  0
    6.2377   -1.1644   -0.8121 H   0  0  0  0  0  0  0  0  0  0  0  0
    5.4248    0.3871   -0.9470 H   0  0  0  0  0  0  0  0  0  0  0  0
  1  2  1  0
  2  3  1  0
  3  4  1  0
  4  5  1  0
  5  6  1  0
  6  7  1  0
  7  8  1  0
  8  9  1  0
  9 10  1  0
 10 11  1  0
 11 12  1  0
 12 13  1  0
 13 14  1  0
 14 15  2  0
 14 16  2  0
 14 17  1  0
 17 18  2  0
 18 19  1  0
 19 20  2  0
 20 21  1  0
 20 22  1  0
 22 23  2  0
 23 24  1  0
 13 25  1  0
 25 26  1  0
 10 27  1  0
  5 28  1  0
 28 29  1  0
 29  2  1  0
 27  7  1  0
 26 10  1  0
 23 17  1  0
  1 30  1  0
  1 31  1  0
  1 32  1  0
  3 33  1  0
  3 34  1  0
  4 35  1  0
  4 36  1  0
  6 37  1  0
  6 38  1  0
  7 39  1  0
  8 40  1  0
  8 41  1  0
  9 42  1  0
  9 43  1  0
 11 44  1  0
 11 45  1  0
 12 46  1  0
 12 47  1  0
 18 48  1  0
 19 49  1  0
 22 50  1  0
 25 51  1  0
 25 52  1  0
 26 53  1  0
 26 54  1  0
 28 55  1  0
 28 56  1  0
 29 57  1  0
 29 58  1  0
M  END
$$$$
