
     RDKit          3D

 67 70  0  0  0  0  0  0  0  0999 V2000
   -9.2524    1.8423   -3.2872 C   0  0  0  0  0  0  0  0  0  0  0  0
   -9.2333    1.2678   -1.9879 O   0  0  0  0  0  0  0  0  0  0  0  0
   -8.0726    0.6577   -1.5791 C   0  0  0  0  0  0  0  0  0  0  0  0
   -6.9285    0.5222   -2.3766 C   0  0  0  0  0  0  0  0  0  0  0  0
   -5.7861   -0.1141   -1.8860 C   0  0  0  0  0  0  0  0  0  0  0  0
   -4.6630   -0.2216   -2.7203 N   0  0  0  0  0  0  0  0  0  0  0  0
   -3.6199   -0.8161   -2.2470 C   0  0  0  0  0  0  0  0  0  0  0  0
   -3.5351   -1.3729   -0.9939 N   0  0  0  0  0  0  0  0  0  0  0  0
   -2.3070   -2.0220   -0.5665 C   0  0  0  0  0  0  0  0  0  0  0  0
   -1.3650   -0.9884    0.0513 C   0  0  0  0  0  0  0  0  0  0  0  0
   -1.1684    0.1136   -0.4575 O   0  0  0  0  0  0  0  0  0  0  0  0
   -0.7365   -1.4061    1.2052 N   0  0  0  0  0  0  0  0  0  0  0  0
    0.3992   -0.6611    1.7486 C   0  0  1  0  0  0  0  0  0  0  0  0
    0.3830   -0.7371    3.2703 C   0  0  0  0  0  0  0  0  0  0  0  0
    1.6813   -1.3299    1.2030 C   0  0  0  0  0  0  0  0  0  0  0  0
    1.6613   -2.5286    0.8961 O   0  0  0  0  0  0  0  0  0  0  0  0
    2.8433   -0.5797    1.1297 N   0  0  0  0  0  0  0  0  0  0  0  0
    4.0570   -1.2104    0.6015 C   0  0  0  0  0  0  0  0  0  0  0  0
    4.9912   -0.2069   -0.1014 C   0  0  0  0  0  0  0  0  0  0  0  0
    5.3619    0.9807    0.6979 N   0  0  0  0  0  0  0  0  0  0  0  0
    6.7208    0.8957    1.2555 C   0  0  0  0  0  0  0  0  0  0  0  0
    7.8119    0.9798    0.2081 C   0  0  0  0  0  0  0  0  0  0  0  0
    8.8335    0.0195    0.1658 C   0  0  0  0  0  0  0  0  0  0  0  0
    9.8544    0.1109   -0.7830 C   0  0  0  0  0  0  0  0  0  0  0  0
    9.8685    1.1647   -1.6951 C   0  0  0  0  0  0  0  0  0  0  0  0
    8.8632    2.1294   -1.6594 C   0  0  0  0  0  0  0  0  0  0  0  0
    7.8427    2.0395   -0.7113 C   0  0  0  0  0  0  0  0  0  0  0  0
    4.3839    1.2641    1.7656 C   0  0  0  0  0  0  0  0  0  0  0  0
    2.9431    0.8579    1.4059 C   0  0  0  0  0  0  0  0  0  0  0  0
   -4.5837   -1.2861   -0.0932 C   0  0  0  0  0  0  0  0  0  0  0  0
   -4.5437   -1.7348    1.0492 O   0  0  0  0  0  0  0  0  0  0  0  0
   -5.8012   -0.6135   -0.5853 C   0  0  0  0  0  0  0  0  0  0  0  0
   -6.9324   -0.4907    0.2294 C   0  0  0  0  0  0  0  0  0  0  0  0
   -8.0743    0.1445   -0.2640 C   0  0  0  0  0  0  0  0  0  0  0  0
   -9.2349    0.3152    0.4494 O   0  0  0  0  0  0  0  0  0  0  0  0
   -9.2700   -0.1780    1.7816 C   0  0  0  0  0  0  0  0  0  0  0  0
   -9.1285    1.0757   -4.0590 H   0  0  0  0  0  0  0  0  0  0  0  0
   -8.4968    2.6291   -3.3838 H   0  0  0  0  0  0  0  0  0  0  0  0
  -10.2333    2.3051   -3.4333 H   0  0  0  0  0  0  0  0  0  0  0  0
   -6.8906    0.9024   -3.3922 H   0  0  0  0  0  0  0  0  0  0  0  0
   -2.7095   -0.9134   -2.8610 H   0  0  0  0  0  0  0  0  0  0  0  0
   -2.5310   -2.8184    0.1507 H   0  0  0  0  0  0  0  0  0  0  0  0
   -1.7965   -2.4630   -1.4297 H   0  0  0  0  0  0  0  0  0  0  0  0
   -0.6999   -2.4066    1.3715 H   0  0  0  0  0  0  0  0  0  0  0  0
    0.3386    0.3771    1.4116 H   0  0  0  0  0  0  0  0  0  0  0  0
    0.4194   -1.7770    3.6151 H   0  0  0  0  0  0  0  0  0  0  0  0
   -0.5332   -0.2891    3.6693 H   0  0  0  0  0  0  0  0  0  0  0  0
    1.2380   -0.2183    3.7134 H   0  0  0  0  0  0  0  0  0  0  0  0
    3.7902   -2.0102   -0.0990 H   0  0  0  0  0  0  0  0  0  0  0  0
    4.5722   -1.6746    1.4516 H   0  0  0  0  0  0  0  0  0  0  0  0
    5.8681   -0.7423   -0.4826 H   0  0  0  0  0  0  0  0  0  0  0  0
    4.4687    0.1691   -0.9913 H   0  0  0  0  0  0  0  0  0  0  0  0
    6.8935    1.7345    1.9432 H   0  0  0  0  0  0  0  0  0  0  0  0
    6.8290   -0.0214    1.8493 H   0  0  0  0  0  0  0  0  0  0  0  0
    8.8416   -0.8079    0.8715 H   0  0  0  0  0  0  0  0  0  0  0  0
   10.6404   -0.6398   -0.8091 H   0  0  0  0  0  0  0  0  0  0  0  0
   10.6636    1.2355   -2.4329 H   0  0  0  0  0  0  0  0  0  0  0  0
    8.8721    2.9528   -2.3688 H   0  0  0  0  0  0  0  0  0  0  0  0
    7.0617    2.7971   -0.6924 H   0  0  0  0  0  0  0  0  0  0  0  0
    4.6589    0.7293    2.6858 H   0  0  0  0  0  0  0  0  0  0  0  0
    4.4091    2.3362    1.9923 H   0  0  0  0  0  0  0  0  0  0  0  0
    2.6030    1.3891    0.5086 H   0  0  0  0  0  0  0  0  0  0  0  0
    2.2755    1.1338    2.2252 H   0  0  0  0  0  0  0  0  0  0  0  0
   -6.8925   -0.8972    1.2347 H   0  0  0  0  0  0  0  0  0  0  0  0
   -9.1387   -1.2648    1.8039 H   0  0  0  0  0  0  0  0  0  0  0  0
   -8.5264    0.3250    2.4087 H   0  0  0  0  0  0  0  0  0  0  0  0
  -10.2586    0.0452    2.1948 H   0  0  0  0  0  0  0  0  0  0  0  0
  1  2  1  0
  2  3  1  0
  3  4  2  0
  4  5  1  0
  5  6  1  0
  6  7  2  0
  7  8  1  0
  8  9  1  0
  9 10  1  0
 10 11  2  0
 10 12  1  0
 12 13  1  0
 13 14  1  0
 13 15  1  0
 15 16  2  0
 15 17  1  0
 17 18  1  0
 18 19  1  0
 19 20  1  0
 20 21  1  0
 21 22  1  0
 22 23  2  0
 23 24  1  0
 24 25  2  0
 25 26  1  0
 26 27  2  0
 20 28  1  0
 28 29  1  0
  8 30  1  0
 30 31  2  0
 30 32  1  0
 32 33  1  0
 33 34  2  0
 34 35  1  0
 35 36  1  0
 34  3  1  0
 32  5  2  0
 29 17  1  0
 27 22  1  0
  1 37  1  0
  1 38  1  0
  1 39  1  0
  4 40  1  0
  7 41  1  0
  9 42  1  0
  9 43  1  0
 12 44  1  0
 13 45  1  1
 14 46  1  0
 14 47  1  0
 14 48  1  0
 18 49  1  0
 18 50  1  0
 19 51  1  0
 19 52  1  0
 21 53  1  0
 21 54  1  0
 23 55  1  0
 24 56  1  0
 25 57  1  0
 26 58  1  0
 27 59  1  0
 28 60  1  0
 28 61  1  0
 29 62  1  0
 29 63  1  0
 33 64  1  0
 36 65  1  0
 36 66  1  0
 36 67  1  0
M  END
$$$$
