
     RDKit          3D

 47 49  0  0  0  0  0  0  0  0999 V2000
    7.5611    0.4874   -1.4381 C   0  0  0  0  0  0  0  0  0  0  0  0
    7.1602   -0.7758   -0.6963 C   0  0  0  0  0  0  0  0  0  0  0  0
    5.8979   -1.2550   -1.1570 O   0  0  0  0  0  0  0  0  0  0  0  0
    4.7588   -0.8093   -0.5489 C   0  0  0  0  0  0  0  0  0  0  0  0
    3.5885   -1.4384   -0.9843 C   0  0  0  0  0  0  0  0  0  0  0  0
    2.3433   -1.0858   -0.4561 C   0  0  0  0  0  0  0  0  0  0  0  0
    2.2610   -0.0866    0.5204 C   0  0  0  0  0  0  0  0  0  0  0  0
    1.0019    0.2800    1.0637 N   0  0  0  0  0  0  0  0  0  0  0  0
    0.8808    1.2493    2.0121 N   0  0  0  0  0  0  0  0  0  0  0  0
   -0.4440    1.2709    2.2313 C   0  0  0  0  0  0  0  0  0  0  0  0
   -1.0497    2.2102    3.2184 C   0  0  0  0  0  0  0  0  0  0  0  0
   -0.0635    3.0154    3.8729 O   0  0  0  0  0  0  0  0  0  0  0  0
   -1.0822    0.3153    1.4139 C   0  0  0  0  0  0  0  0  0  0  0  0
   -2.5114    0.0161    1.3344 C   0  0  0  0  0  0  0  0  0  0  0  0
   -3.3513    0.6267    1.9878 O   0  0  0  0  0  0  0  0  0  0  0  0
   -2.8190   -0.9939    0.4516 N   0  0  0  0  0  0  0  0  0  0  0  0
   -4.1833   -1.2900    0.0625 C   0  0  0  0  0  0  0  0  0  0  0  0
   -4.6931   -0.3226   -1.0080 C   0  0  0  0  0  0  0  0  0  0  0  0
   -6.1519   -0.5463   -1.3681 C   0  0  0  0  0  0  0  0  0  0  0  0
   -6.2072    0.0213   -2.7642 C   0  0  0  0  0  0  0  0  0  0  0  0
   -4.8738   -0.4130   -3.3349 C   0  0  0  0  0  0  0  0  0  0  0  0
   -3.9550   -0.5071   -2.2356 O   0  0  0  0  0  0  0  0  0  0  0  0
   -0.1550   -0.3159    0.6684 N   0  0  0  0  0  0  0  0  0  0  0  0
    3.4303    0.5513    0.9563 C   0  0  0  0  0  0  0  0  0  0  0  0
    4.6732    0.1899    0.4205 C   0  0  0  0  0  0  0  0  0  0  0  0
    7.5606    0.3129   -2.5193 H   0  0  0  0  0  0  0  0  0  0  0  0
    6.8576    1.3036   -1.2492 H   0  0  0  0  0  0  0  0  0  0  0  0
    8.5606    0.8125   -1.1354 H   0  0  0  0  0  0  0  0  0  0  0  0
    7.1921   -0.6510    0.3916 H   0  0  0  0  0  0  0  0  0  0  0  0
    7.8912   -1.5587   -0.9290 H   0  0  0  0  0  0  0  0  0  0  0  0
    3.6481   -2.2145   -1.7444 H   0  0  0  0  0  0  0  0  0  0  0  0
    1.4550   -1.5984   -0.8187 H   0  0  0  0  0  0  0  0  0  0  0  0
   -1.5892    1.6547    3.9915 H   0  0  0  0  0  0  0  0  0  0  0  0
   -1.7505    2.8861    2.7191 H   0  0  0  0  0  0  0  0  0  0  0  0
    0.7881    2.7452    3.4737 H   0  0  0  0  0  0  0  0  0  0  0  0
   -2.0628   -1.2888   -0.1611 H   0  0  0  0  0  0  0  0  0  0  0  0
   -4.8202   -1.2439    0.9524 H   0  0  0  0  0  0  0  0  0  0  0  0
   -4.1772   -2.3172   -0.3172 H   0  0  0  0  0  0  0  0  0  0  0  0
   -4.5375    0.7178   -0.6962 H   0  0  0  0  0  0  0  0  0  0  0  0
   -6.8407   -0.0580   -0.6733 H   0  0  0  0  0  0  0  0  0  0  0  0
   -6.3904   -1.6164   -1.3960 H   0  0  0  0  0  0  0  0  0  0  0  0
   -7.0583   -0.3340   -3.3509 H   0  0  0  0  0  0  0  0  0  0  0  0
   -6.2560    1.1158   -2.7190 H   0  0  0  0  0  0  0  0  0  0  0  0
   -4.9436   -1.4046   -3.7943 H   0  0  0  0  0  0  0  0  0  0  0  0
   -4.4874    0.2895   -4.0787 H   0  0  0  0  0  0  0  0  0  0  0  0
    3.3942    1.3349    1.7110 H   0  0  0  0  0  0  0  0  0  0  0  0
    5.5500    0.7180    0.7794 H   0  0  0  0  0  0  0  0  0  0  0  0
  1  2  1  0
  2  3  1  0
  3  4  1  0
  4  5  2  0
  5  6  1  0
  6  7  2  0
  7  8  1  0
  8  9  1  0
  9 10  2  0
 10 11  1  0
 11 12  1  0
 10 13  1  0
 13 14  1  0
 14 15  2  0
 14 16  1  0
 16 17  1  0
 17 18  1  0
 18 19  1  0
 19 20  1  0
 20 21  1  0
 21 22  1  0
 13 23  2  0
  7 24  1  0
 24 25  2  0
 25  4  1  0
 23  8  1  0
 22 18  1  0
  1 26  1  0
  1 27  1  0
  1 28  1  0
  2 29  1  0
  2 30  1  0
  5 31  1  0
  6 32  1  0
 11 33  1  0
 11 34  1  0
 12 35  1  0
 16 36  1  0
 17 37  1  0
 17 38  1  0
 18 39  1  0
 19 40  1  0
 19 41  1  0
 20 42  1  0
 20 43  1  0
 21 44  1  0
 21 45  1  0
 24 46  1  0
 25 47  1  0
M  END
$$$$
