
     RDKit          3D

 54 57  0  0  0  0  0  0  0  0999 V2000
   -8.1194    0.9067   -0.8153 C   0  0  0  0  0  0  0  0  0  0  0  0
   -6.6621    0.6719   -0.6887 C   0  0  0  0  0  0  0  0  0  0  0  0
   -5.6449    0.7991   -1.6078 C   0  0  0  0  0  0  0  0  0  0  0  0
   -4.4436    0.4451   -0.9288 C   0  0  0  0  0  0  0  0  0  0  0  0
   -3.0909    0.4749   -1.5383 C   0  0  0  0  0  0  0  0  0  0  0  0
   -2.9370    1.0152   -2.6375 O   0  0  0  0  0  0  0  0  0  0  0  0
   -1.9987   -0.1031   -0.8700 N   0  0  0  0  0  0  0  0  0  0  0  0
   -0.6660    0.0655   -1.4417 C   0  0  0  0  0  0  0  0  0  0  0  0
    0.3995    0.1964   -0.3584 C   0  0  0  0  0  0  0  0  0  0  0  0
    0.3717   -0.9652    0.6443 C   0  0  0  0  0  0  0  0  0  0  0  0
    1.5116   -1.8132    0.4409 O   0  0  0  0  0  0  0  0  0  0  0  0
    2.5792   -1.5615    1.3455 C   0  0  0  0  0  0  0  0  0  0  0  0
    3.7143   -2.5156    1.0040 C   0  0  0  0  0  0  0  0  0  0  0  0
    4.5036   -1.7418   -0.0335 C   0  0  0  0  0  0  0  0  0  0  0  0
    4.3957   -0.3642    0.3869 N   0  0  0  0  0  0  0  0  0  0  0  0
    5.2447    0.6623   -0.1096 C   0  0  0  0  0  0  0  0  0  0  0  0
    6.2044    0.3826   -1.0964 C   0  0  0  0  0  0  0  0  0  0  0  0
    7.0494    1.3814   -1.5949 C   0  0  0  0  0  0  0  0  0  0  0  0
    6.9513    2.6820   -1.1150 C   0  0  0  0  0  0  0  0  0  0  0  0
    6.0076    2.9813   -0.1390 C   0  0  0  0  0  0  0  0  0  0  0  0
    5.1638    1.9804    0.3576 C   0  0  0  0  0  0  0  0  0  0  0  0
    3.2735   -0.1958    1.2166 C   0  0  0  0  0  0  0  0  0  0  0  0
    2.8369    0.8228    1.7341 O   0  0  0  0  0  0  0  0  0  0  0  0
   -0.8709   -1.8419    0.4889 C   0  0  0  0  0  0  0  0  0  0  0  0
   -2.1196   -0.9963    0.2811 C   0  0  0  0  0  0  0  0  0  0  0  0
   -4.7172    0.1304    0.3523 N   0  0  0  0  0  0  0  0  0  0  0  0
   -6.0501    0.2663    0.4655 N   0  0  0  0  0  0  0  0  0  0  0  0
   -6.6790    0.0039    1.7391 C   0  0  0  0  0  0  0  0  0  0  0  0
   -8.6728   -0.0300   -0.6972 H   0  0  0  0  0  0  0  0  0  0  0  0
   -8.4675    1.6157   -0.0576 H   0  0  0  0  0  0  0  0  0  0  0  0
   -8.3643    1.3209   -1.7984 H   0  0  0  0  0  0  0  0  0  0  0  0
   -5.7305    1.1120   -2.6399 H   0  0  0  0  0  0  0  0  0  0  0  0
   -0.6352    0.9519   -2.0845 H   0  0  0  0  0  0  0  0  0  0  0  0
   -0.4668   -0.8033   -2.0805 H   0  0  0  0  0  0  0  0  0  0  0  0
    1.3825    0.2954   -0.8316 H   0  0  0  0  0  0  0  0  0  0  0  0
    0.2113    1.1283    0.1904 H   0  0  0  0  0  0  0  0  0  0  0  0
    0.3820   -0.5611    1.6653 H   0  0  0  0  0  0  0  0  0  0  0  0
    2.2500   -1.7293    2.3768 H   0  0  0  0  0  0  0  0  0  0  0  0
    4.3393   -2.6815    1.8904 H   0  0  0  0  0  0  0  0  0  0  0  0
    3.3805   -3.4852    0.6225 H   0  0  0  0  0  0  0  0  0  0  0  0
    4.0610   -1.8422   -1.0308 H   0  0  0  0  0  0  0  0  0  0  0  0
    5.5433   -2.0823   -0.0453 H   0  0  0  0  0  0  0  0  0  0  0  0
    6.3134   -0.6121   -1.5169 H   0  0  0  0  0  0  0  0  0  0  0  0
    7.7807    1.1398   -2.3619 H   0  0  0  0  0  0  0  0  0  0  0  0
    7.6049    3.4599   -1.5002 H   0  0  0  0  0  0  0  0  0  0  0  0
    5.9217    3.9953    0.2437 H   0  0  0  0  0  0  0  0  0  0  0  0
    4.4535    2.2706    1.1251 H   0  0  0  0  0  0  0  0  0  0  0  0
   -0.9851   -2.4786    1.3745 H   0  0  0  0  0  0  0  0  0  0  0  0
   -0.7412   -2.5328   -0.3550 H   0  0  0  0  0  0  0  0  0  0  0  0
   -2.2973   -0.3763    1.1670 H   0  0  0  0  0  0  0  0  0  0  0  0
   -2.9742   -1.6641    0.1339 H   0  0  0  0  0  0  0  0  0  0  0  0
   -6.9954    0.9583    2.1661 H   0  0  0  0  0  0  0  0  0  0  0  0
   -7.5378   -0.6522    1.5781 H   0  0  0  0  0  0  0  0  0  0  0  0
   -5.9639   -0.4865    2.4047 H   0  0  0  0  0  0  0  0  0  0  0  0
  1  2  1  0
  2  3  2  0
  3  4  1  0
  4  5  1  0
  5  6  2  0
  5  7  1  0
  7  8  1  0
  8  9  1  0
  9 10  1  0
 10 11  1  0
 11 12  1  0
 12 13  1  0
 13 14  1  0
 14 15  1  0
 15 16  1  0
 16 17  2  0
 17 18  1  0
 18 19  2  0
 19 20  1  0
 20 21  2  0
 15 22  1  0
 22 23  2  0
 10 24  1  0
 24 25  1  0
  4 26  2  0
 26 27  1  0
 27 28  1  0
 27  2  1  0
 25  7  1  0
 22 12  1  0
 21 16  1  0
  1 29  1  0
  1 30  1  0
  1 31  1  0
  3 32  1  0
  8 33  1  0
  8 34  1  0
  9 35  1  0
  9 36  1  0
 10 37  1  0
 12 38  1  0
 13 39  1  0
 13 40  1  0
 14 41  1  0
 14 42  1  0
 17 43  1  0
 18 44  1  0
 19 45  1  0
 20 46  1  0
 21 47  1  0
 24 48  1  0
 24 49  1  0
 25 50  1  0
 25 51  1  0
 28 52  1  0
 28 53  1  0
 28 54  1  0
M  END
$$$$
