
     RDKit          3D

 46 48  0  0  0  0  0  0  0  0999 V2000
    4.4207   -3.2018   -0.7225 C   0  0  0  0  0  0  0  0  0  0  0  0
    4.0927   -1.7740   -0.3992 C   0  0  0  0  0  0  0  0  0  0  0  0
    4.9278   -0.7401   -0.8327 C   0  0  0  0  0  0  0  0  0  0  0  0
    4.6398    0.5823   -0.5008 C   0  0  0  0  0  0  0  0  0  0  0  0
    3.5176    0.8831    0.2715 C   0  0  0  0  0  0  0  0  0  0  0  0
    2.6679   -0.1356    0.7242 C   0  0  0  0  0  0  0  0  0  0  0  0
    1.4499    0.1850    1.5573 C   0  0  0  0  0  0  0  0  0  0  0  0
    0.3423    0.6704    0.7455 N   0  0  0  0  0  0  0  0  0  0  0  0
   -0.6170   -0.0768    0.0922 C   0  0  0  0  0  0  0  0  0  0  0  0
   -0.6852   -1.8074    0.1376 S   0  0  0  0  0  0  0  0  0  0  0  0
   -2.1034   -2.1430   -0.9534 C   0  0  0  0  0  0  0  0  0  0  0  0
   -3.4821   -1.8520   -0.3456 C   0  0  0  0  0  0  0  0  0  0  0  0
   -4.5103   -2.1880   -1.3035 O   0  0  0  0  0  0  0  0  0  0  0  0
   -3.7799   -2.6430    0.9347 C   0  0  0  0  0  0  0  0  0  0  0  0
   -5.1186   -2.3807    1.3614 O   0  0  0  0  0  0  0  0  0  0  0  0
   -1.4831    0.6782   -0.5488 N   0  0  0  0  0  0  0  0  0  0  0  0
   -1.0933    1.9488   -0.2782 C   0  0  0  0  0  0  0  0  0  0  0  0
    0.0096    1.9871    0.5275 C   0  0  0  0  0  0  0  0  0  0  0  0
    0.5796    3.2140    0.9678 C   0  0  0  0  0  0  0  0  0  0  0  0
    1.5467    3.3224    1.7123 O   0  0  0  0  0  0  0  0  0  0  0  0
   -0.0824    4.3145    0.4713 N   0  0  0  0  0  0  0  0  0  0  0  0
   -1.2002    4.3271   -0.3419 C   0  0  0  0  0  0  0  0  0  0  0  0
   -1.6775    5.4106   -0.6783 O   0  0  0  0  0  0  0  0  0  0  0  0
   -1.7161    3.0947   -0.7248 N   0  0  0  0  0  0  0  0  0  0  0  0
   -2.8914    3.0137   -1.5708 C   0  0  0  0  0  0  0  0  0  0  0  0
    2.9763   -1.4646    0.3904 C   0  0  0  0  0  0  0  0  0  0  0  0
    3.5080   -3.7995   -0.8172 H   0  0  0  0  0  0  0  0  0  0  0  0
    4.9560   -3.2744   -1.6751 H   0  0  0  0  0  0  0  0  0  0  0  0
    5.0451   -3.6303    0.0674 H   0  0  0  0  0  0  0  0  0  0  0  0
    5.8102   -0.9588   -1.4298 H   0  0  0  0  0  0  0  0  0  0  0  0
    5.2942    1.3816   -0.8397 H   0  0  0  0  0  0  0  0  0  0  0  0
    3.3240    1.9225    0.5263 H   0  0  0  0  0  0  0  0  0  0  0  0
    1.1070   -0.6921    2.1174 H   0  0  0  0  0  0  0  0  0  0  0  0
    1.6917    0.9374    2.3144 H   0  0  0  0  0  0  0  0  0  0  0  0
   -1.9861   -1.5997   -1.8986 H   0  0  0  0  0  0  0  0  0  0  0  0
   -2.0528   -3.2037   -1.2276 H   0  0  0  0  0  0  0  0  0  0  0  0
   -3.6099   -0.7831   -0.1472 H   0  0  0  0  0  0  0  0  0  0  0  0
   -4.4031   -3.1254   -1.5443 H   0  0  0  0  0  0  0  0  0  0  0  0
   -3.7076   -3.7201    0.7520 H   0  0  0  0  0  0  0  0  0  0  0  0
   -3.1083   -2.3761    1.7545 H   0  0  0  0  0  0  0  0  0  0  0  0
   -5.6312   -2.2009    0.5480 H   0  0  0  0  0  0  0  0  0  0  0  0
    0.2689    5.2176    0.7485 H   0  0  0  0  0  0  0  0  0  0  0  0
   -3.2611    4.0056   -1.8441 H   0  0  0  0  0  0  0  0  0  0  0  0
   -2.6369    2.4694   -2.4856 H   0  0  0  0  0  0  0  0  0  0  0  0
   -3.6819    2.4799   -1.0338 H   0  0  0  0  0  0  0  0  0  0  0  0
    2.3435   -2.2750    0.7479 H   0  0  0  0  0  0  0  0  0  0  0  0
  1  2  1  0
  2  3  2  0
  3  4  1  0
  4  5  2  0
  5  6  1  0
  6  7  1  0
  7  8  1  0
  8  9  1  0
  9 10  1  0
 10 11  1  0
 11 12  1  0
 12 13  1  0
 12 14  1  0
 14 15  1  0
  9 16  2  0
 16 17  1  0
 17 18  2  0
 18 19  1  0
 19 20  2  0
 19 21  1  0
 21 22  1  0
 22 23  2  0
 22 24  1  0
 24 25  1  0
  6 26  2  0
 26  2  1  0
 18  8  1  0
 24 17  1  0
  1 27  1  0
  1 28  1  0
  1 29  1  0
  3 30  1  0
  4 31  1  0
  5 32  1  0
  7 33  1  0
  7 34  1  0
 11 35  1  0
 11 36  1  0
 12 37  1  0
 13 38  1  0
 14 39  1  0
 14 40  1  0
 15 41  1  0
 21 42  1  0
 25 43  1  0
 25 44  1  0
 25 45  1  0
 26 46  1  0
M  END
$$$$
