
     RDKit          3D

 48 51  0  0  0  0  0  0  0  0999 V2000
   -4.8412    0.6515   -2.6583 C   0  0  0  0  0  0  0  0  0  0  0  0
   -4.1703    0.7406   -1.4081 O   0  0  0  0  0  0  0  0  0  0  0  0
   -4.9027    0.4852   -0.2775 C   0  0  0  0  0  0  0  0  0  0  0  0
   -6.2447    0.0907   -0.2694 C   0  0  0  0  0  0  0  0  0  0  0  0
   -6.8966   -0.1756    0.9377 C   0  0  0  0  0  0  0  0  0  0  0  0
   -6.2127   -0.0578    2.1437 C   0  0  0  0  0  0  0  0  0  0  0  0
   -4.8758    0.3352    2.1465 C   0  0  0  0  0  0  0  0  0  0  0  0
   -4.2112    0.6223    0.9420 C   0  0  0  0  0  0  0  0  0  0  0  0
   -2.7630    1.0443    0.9807 C   0  0  0  0  0  0  0  0  0  0  0  0
   -1.8980   -0.0352    0.5596 N   0  0  0  0  0  0  0  0  0  0  0  0
   -0.5305    0.0672    0.7310 C   0  0  0  0  0  0  0  0  0  0  0  0
   -0.0339    0.9717    1.4039 O   0  0  0  0  0  0  0  0  0  0  0  0
    0.3004   -1.1000    0.1421 C   0  0  0  0  0  0  0  0  0  0  0  0
   -0.1745   -1.6129   -1.2168 C   0  0  0  0  0  0  0  0  0  0  0  0
    1.7220   -0.7233    0.1253 N   0  0  0  0  0  0  0  0  0  0  0  0
    2.5479   -1.4248    1.0093 N   0  0  0  0  0  0  0  0  0  0  0  0
    3.8026   -1.0978    1.0842 C   0  0  0  0  0  0  0  0  0  0  0  0
    4.7446   -1.7893    2.0166 C   0  0  0  0  0  0  0  0  0  0  0  0
    4.3427   -0.0927    0.2942 N   0  0  0  0  0  0  0  0  0  0  0  0
    3.5705    0.6017   -0.6176 C   0  0  0  0  0  0  0  0  0  0  0  0
    4.3413    1.5284   -1.3039 C   0  0  0  0  0  0  0  0  0  0  0  0
    5.6173    1.3595   -0.7521 C   0  0  0  0  0  0  0  0  0  0  0  0
    6.8520    1.8977   -0.9146 O   0  0  0  0  0  0  0  0  0  0  0  0
    7.6330    1.2423   -0.0099 C   0  0  0  0  0  0  0  0  0  0  0  0
    6.9398    0.3029    0.7206 C   0  0  0  0  0  0  0  0  0  0  0  0
    5.6261    0.4032    0.2053 C   0  0  0  0  0  0  0  0  0  0  0  0
    2.1647    0.2995   -0.7350 C   0  0  0  0  0  0  0  0  0  0  0  0
    1.4320    0.8798   -1.5319 O   0  0  0  0  0  0  0  0  0  0  0  0
   -5.1973   -0.3677   -2.8424 H   0  0  0  0  0  0  0  0  0  0  0  0
   -5.6593    1.3766   -2.7226 H   0  0  0  0  0  0  0  0  0  0  0  0
   -4.1182    0.8964   -3.4426 H   0  0  0  0  0  0  0  0  0  0  0  0
   -6.8141   -0.0229   -1.1859 H   0  0  0  0  0  0  0  0  0  0  0  0
   -7.9400   -0.4814    0.9343 H   0  0  0  0  0  0  0  0  0  0  0  0
   -6.7189   -0.2714    3.0822 H   0  0  0  0  0  0  0  0  0  0  0  0
   -4.3497    0.4200    3.0957 H   0  0  0  0  0  0  0  0  0  0  0  0
   -2.5930    1.9054    0.3233 H   0  0  0  0  0  0  0  0  0  0  0  0
   -2.4750    1.3613    1.9899 H   0  0  0  0  0  0  0  0  0  0  0  0
   -2.2457   -0.5719   -0.2229 H   0  0  0  0  0  0  0  0  0  0  0  0
    0.1970   -1.9252    0.8607 H   0  0  0  0  0  0  0  0  0  0  0  0
   -0.3663   -0.7990   -1.9231 H   0  0  0  0  0  0  0  0  0  0  0  0
    0.5650   -2.2874   -1.6629 H   0  0  0  0  0  0  0  0  0  0  0  0
   -1.1092   -2.1742   -1.1134 H   0  0  0  0  0  0  0  0  0  0  0  0
    4.2098   -2.5573    2.5837 H   0  0  0  0  0  0  0  0  0  0  0  0
    5.5454   -2.2762    1.4532 H   0  0  0  0  0  0  0  0  0  0  0  0
    5.1690   -1.0731    2.7265 H   0  0  0  0  0  0  0  0  0  0  0  0
    4.0147    2.2117   -2.0747 H   0  0  0  0  0  0  0  0  0  0  0  0
    8.6680    1.5584   -0.0022 H   0  0  0  0  0  0  0  0  0  0  0  0
    7.3362   -0.3365    1.4953 H   0  0  0  0  0  0  0  0  0  0  0  0
  1  2  1  0
  2  3  1  0
  3  4  2  0
  4  5  1  0
  5  6  2  0
  6  7  1  0
  7  8  2  0
  8  9  1  0
  9 10  1  0
 10 11  1  0
 11 12  2  0
 11 13  1  0
 13 14  1  0
 13 15  1  0
 15 16  1  0
 16 17  2  0
 17 18  1  0
 17 19  1  0
 19 20  1  0
 20 21  2  0
 21 22  1  0
 22 23  1  0
 23 24  1  0
 24 25  2  0
 25 26  1  0
 20 27  1  0
 27 28  2  0
  8  3  1  0
 27 15  1  0
 26 19  1  0
 26 22  2  0
  1 29  1  0
  1 30  1  0
  1 31  1  0
  4 32  1  0
  5 33  1  0
  6 34  1  0
  7 35  1  0
  9 36  1  0
  9 37  1  0
 10 38  1  0
 13 39  1  0
 14 40  1  0
 14 41  1  0
 14 42  1  0
 18 43  1  0
 18 44  1  0
 18 45  1  0
 21 46  1  0
 24 47  1  0
 25 48  1  0
M  END
$$$$
