
     RDKit          3D

 49 52  0  0  0  0  0  0  0  0999 V2000
    8.6712    0.9343   -1.0805 C   0  0  0  0  0  0  0  0  0  0  0  0
    7.7828    1.4331   -0.0878 O   0  0  0  0  0  0  0  0  0  0  0  0
    7.7637    0.6276    1.0985 C   0  0  0  0  0  0  0  0  0  0  0  0
    6.8673   -0.5999    0.9291 C   0  0  0  0  0  0  0  0  0  0  0  0
    5.5353   -0.2192    0.4929 N   0  0  0  0  0  0  0  0  0  0  0  0
    4.4799   -1.0974    0.5576 C   0  0  0  0  0  0  0  0  0  0  0  0
    4.5566   -2.2068    1.0726 O   0  0  0  0  0  0  0  0  0  0  0  0
    3.1854   -0.6370   -0.0164 C   0  0  0  0  0  0  0  0  0  0  0  0
    3.1255    0.2891   -1.0856 C   0  0  0  0  0  0  0  0  0  0  0  0
    1.8927    0.6954   -1.6121 C   0  0  0  0  0  0  0  0  0  0  0  0
    0.7498    0.1535   -1.0531 C   0  0  0  0  0  0  0  0  0  0  0  0
    0.8043   -0.7555   -0.0231 C   0  0  0  0  0  0  0  0  0  0  0  0
    2.0048   -1.1780    0.5177 C   0  0  0  0  0  0  0  0  0  0  0  0
   -0.5666   -1.1216    0.3172 C   0  0  0  0  0  0  0  0  0  0  0  0
   -0.7889   -1.9134    1.2155 O   0  0  0  0  0  0  0  0  0  0  0  0
   -1.4037   -0.4176   -0.5291 N   0  0  0  0  0  0  0  0  0  0  0  0
   -2.8336   -0.4928   -0.5214 C   0  0  0  0  0  0  0  0  0  0  0  0
   -3.6185    0.2875   -1.3849 C   0  0  0  0  0  0  0  0  0  0  0  0
   -5.0191    0.2167   -1.3776 C   0  0  0  0  0  0  0  0  0  0  0  0
   -5.6877   -0.6405   -0.5003 C   0  0  0  0  0  0  0  0  0  0  0  0
   -7.1934   -0.7144   -0.4907 C   0  0  0  0  0  0  0  0  0  0  0  0
   -7.7899    0.5159   -0.0048 N   0  0  0  0  0  0  0  0  0  0  0  0
   -7.7948    0.9915    1.2704 C   0  0  0  0  0  0  0  0  0  0  0  0
   -8.4799    2.1107    1.3190 N   0  0  0  0  0  0  0  0  0  0  0  0
   -8.8807    2.2807    0.0242 C   0  0  0  0  0  0  0  0  0  0  0  0
   -8.4915    1.3254   -0.8245 N   0  0  0  0  0  0  0  0  0  0  0  0
   -4.9238   -1.4269    0.3637 C   0  0  0  0  0  0  0  0  0  0  0  0
   -3.5230   -1.3509    0.3508 C   0  0  0  0  0  0  0  0  0  0  0  0
   -0.6547    0.3707   -1.3822 C   0  0  0  0  0  0  0  0  0  0  0  0
   -0.9630    1.1357   -2.2785 O   0  0  0  0  0  0  0  0  0  0  0  0
    8.3497   -0.0482   -1.4358 H   0  0  0  0  0  0  0  0  0  0  0  0
    9.6922    0.8808   -0.6907 H   0  0  0  0  0  0  0  0  0  0  0  0
    8.6594    1.6264   -1.9269 H   0  0  0  0  0  0  0  0  0  0  0  0
    7.3589    1.2604    1.8960 H   0  0  0  0  0  0  0  0  0  0  0  0
    8.7809    0.3413    1.3887 H   0  0  0  0  0  0  0  0  0  0  0  0
    6.7958   -1.1542    1.8709 H   0  0  0  0  0  0  0  0  0  0  0  0
    7.2660   -1.2781    0.1680 H   0  0  0  0  0  0  0  0  0  0  0  0
    5.4542    0.6818    0.0388 H   0  0  0  0  0  0  0  0  0  0  0  0
    4.0342    0.6805   -1.5371 H   0  0  0  0  0  0  0  0  0  0  0  0
    1.8319    1.4020   -2.4349 H   0  0  0  0  0  0  0  0  0  0  0  0
    2.0275   -1.9020    1.3282 H   0  0  0  0  0  0  0  0  0  0  0  0
   -3.1777    0.9841   -2.0920 H   0  0  0  0  0  0  0  0  0  0  0  0
   -5.5808    0.8487   -2.0658 H   0  0  0  0  0  0  0  0  0  0  0  0
   -7.5535   -1.5216    0.1576 H   0  0  0  0  0  0  0  0  0  0  0  0
   -7.5697   -0.9106   -1.5014 H   0  0  0  0  0  0  0  0  0  0  0  0
   -7.2988    0.5012    2.0962 H   0  0  0  0  0  0  0  0  0  0  0  0
   -9.4755    3.1223   -0.3073 H   0  0  0  0  0  0  0  0  0  0  0  0
   -5.4000   -2.1138    1.0612 H   0  0  0  0  0  0  0  0  0  0  0  0
   -3.0012   -1.9967    1.0511 H   0  0  0  0  0  0  0  0  0  0  0  0
  1  2  1  0
  2  3  1  0
  3  4  1  0
  4  5  1  0
  5  6  1  0
  6  7  2  0
  6  8  1  0
  8  9  2  0
  9 10  1  0
 10 11  2  0
 11 12  1  0
 12 13  2  0
 12 14  1  0
 14 15  2  0
 14 16  1  0
 16 17  1  0
 17 18  2  0
 18 19  1  0
 19 20  2  0
 20 21  1  0
 21 22  1  0
 22 23  1  0
 23 24  2  0
 24 25  1  0
 25 26  2  0
 20 27  1  0
 27 28  2  0
 16 29  1  0
 29 30  2  0
 13  8  1  0
 28 17  1  0
 29 11  1  0
 26 22  1  0
  1 31  1  0
  1 32  1  0
  1 33  1  0
  3 34  1  0
  3 35  1  0
  4 36  1  0
  4 37  1  0
  5 38  1  0
  9 39  1  0
 10 40  1  0
 13 41  1  0
 18 42  1  0
 19 43  1  0
 21 44  1  0
 21 45  1  0
 23 46  1  0
 25 47  1  0
 27 48  1  0
 28 49  1  0
M  END
$$$$
