
     RDKit          3D

 44 46  0  0  0  0  0  0  0  0999 V2000
   -2.2141   -2.4017    1.8673 C   0  0  0  0  0  0  0  0  0  0  0  0
   -2.0305   -1.4165    0.7395 C   0  0  0  0  0  0  0  0  0  0  0  0
   -0.9060   -1.3323   -0.0036 C   0  0  0  0  0  0  0  0  0  0  0  0
    0.2991   -2.2344    0.1137 C   0  0  0  0  0  0  0  0  0  0  0  0
    1.3720   -1.5320    0.9292 C   0  0  0  0  0  0  0  0  0  0  0  0
    1.3579   -1.5209    2.1570 O   0  0  0  0  0  0  0  0  0  0  0  0
    2.3320   -0.9014    0.1713 N   0  0  0  0  0  0  0  0  0  0  0  0
    3.3190   -0.0586    0.8019 C   0  0  0  0  0  0  0  0  0  0  0  0
    4.3653    0.3731   -0.1888 C   0  0  0  0  0  0  0  0  0  0  0  0
    4.1561    1.4982   -0.9995 C   0  0  0  0  0  0  0  0  0  0  0  0
    5.1164    1.8837   -1.9362 C   0  0  0  0  0  0  0  0  0  0  0  0
    6.2900    1.1452   -2.0775 C   0  0  0  0  0  0  0  0  0  0  0  0
    6.5027    0.0178   -1.2860 C   0  0  0  0  0  0  0  0  0  0  0  0
    5.5435   -0.3695   -0.3489 C   0  0  0  0  0  0  0  0  0  0  0  0
   -0.7455   -0.2940   -1.0568 C   0  0  0  0  0  0  0  0  0  0  0  0
    0.3007   -0.1860   -1.6927 O   0  0  0  0  0  0  0  0  0  0  0  0
   -1.8111    0.5500   -1.2889 O   0  0  0  0  0  0  0  0  0  0  0  0
   -3.0087    0.4656   -0.5528 C   0  0  0  0  0  0  0  0  0  0  0  0
   -4.0256    1.3783   -0.8903 C   0  0  0  0  0  0  0  0  0  0  0  0
   -3.8152    2.4028   -1.9692 C   0  0  0  0  0  0  0  0  0  0  0  0
   -5.2072    1.3369   -0.1493 C   0  0  0  0  0  0  0  0  0  0  0  0
   -6.1993    2.2331   -0.4283 O   0  0  0  0  0  0  0  0  0  0  0  0
   -5.3822    0.4000    0.8656 C   0  0  0  0  0  0  0  0  0  0  0  0
   -4.3592   -0.5068    1.1632 C   0  0  0  0  0  0  0  0  0  0  0  0
   -3.1457   -0.4861    0.4611 C   0  0  0  0  0  0  0  0  0  0  0  0
   -2.4686   -1.8809    2.7974 H   0  0  0  0  0  0  0  0  0  0  0  0
   -1.3187   -2.9846    2.0928 H   0  0  0  0  0  0  0  0  0  0  0  0
   -3.0117   -3.1139    1.6292 H   0  0  0  0  0  0  0  0  0  0  0  0
    0.6883   -2.5068   -0.8752 H   0  0  0  0  0  0  0  0  0  0  0  0
    0.0778   -3.1930    0.5911 H   0  0  0  0  0  0  0  0  0  0  0  0
    2.0683   -0.6593   -0.7835 H   0  0  0  0  0  0  0  0  0  0  0  0
    2.8069    0.8140    1.2249 H   0  0  0  0  0  0  0  0  0  0  0  0
    3.7729   -0.5977    1.6420 H   0  0  0  0  0  0  0  0  0  0  0  0
    3.2398    2.0779   -0.9079 H   0  0  0  0  0  0  0  0  0  0  0  0
    4.9459    2.7584   -2.5587 H   0  0  0  0  0  0  0  0  0  0  0  0
    7.0363    1.4452   -2.8083 H   0  0  0  0  0  0  0  0  0  0  0  0
    7.4143   -0.5626   -1.4005 H   0  0  0  0  0  0  0  0  0  0  0  0
    5.7170   -1.2572    0.2558 H   0  0  0  0  0  0  0  0  0  0  0  0
   -3.2527    1.9806   -2.8087 H   0  0  0  0  0  0  0  0  0  0  0  0
   -4.7635    2.7589   -2.3838 H   0  0  0  0  0  0  0  0  0  0  0  0
   -3.2664    3.2602   -1.5670 H   0  0  0  0  0  0  0  0  0  0  0  0
   -6.9471    2.0792    0.1716 H   0  0  0  0  0  0  0  0  0  0  0  0
   -6.3037    0.3597    1.4395 H   0  0  0  0  0  0  0  0  0  0  0  0
   -4.5395   -1.2227    1.9608 H   0  0  0  0  0  0  0  0  0  0  0  0
  1  2  1  0
  2  3  2  0
  3  4  1  0
  4  5  1  0
  5  6  2  0
  5  7  1  0
  7  8  1  0
  8  9  1  0
  9 10  2  0
 10 11  1  0
 11 12  2  0
 12 13  1  0
 13 14  2  0
  3 15  1  0
 15 16  2  0
 15 17  1  0
 17 18  1  0
 18 19  2  0
 19 20  1  0
 19 21  1  0
 21 22  1  0
 21 23  2  0
 23 24  1  0
 24 25  2  0
 25  2  1  0
 14  9  1  0
 25 18  1  0
  1 26  1  0
  1 27  1  0
  1 28  1  0
  4 29  1  0
  4 30  1  0
  7 31  1  0
  8 32  1  0
  8 33  1  0
 10 34  1  0
 11 35  1  0
 12 36  1  0
 13 37  1  0
 14 38  1  0
 20 39  1  0
 20 40  1  0
 20 41  1  0
 22 42  1  0
 23 43  1  0
 24 44  1  0
M  END
$$$$
