
     RDKit          3D

 42 45  0  0  0  0  0  0  0  0999 V2000
    3.6188    2.1897   -1.2153 O   0  0  0  0  0  0  0  0  0  0  0  0
    3.1756    1.0460   -1.1400 C   0  0  0  0  0  0  0  0  0  0  0  0
    1.8743    0.6686   -1.8523 C   0  0  0  0  0  0  0  0  0  0  0  0
    0.8552    0.1577   -0.9336 N   0  0  0  0  0  0  0  0  0  0  0  0
   -0.1247    1.0427   -0.5680 N   0  0  0  0  0  0  0  0  0  0  0  0
   -1.0850    0.6539    0.2165 C   0  0  0  0  0  0  0  0  0  0  0  0
   -2.1364    1.6940    0.5838 C   0  0  0  0  0  0  0  0  0  0  0  0
   -3.4165    1.5520   -0.1963 C   0  0  0  0  0  0  0  0  0  0  0  0
   -3.4254    1.4427   -1.5901 C   0  0  0  0  0  0  0  0  0  0  0  0
   -4.6354    1.3262   -2.2677 C   0  0  0  0  0  0  0  0  0  0  0  0
   -5.8050    1.3323   -1.5275 C   0  0  0  0  0  0  0  0  0  0  0  0
   -5.8402    1.4525   -0.1836 N   0  0  0  0  0  0  0  0  0  0  0  0
   -4.6509    1.5726    0.4466 C   0  0  0  0  0  0  0  0  0  0  0  0
   -1.1898   -0.7297    0.7359 C   0  0  0  0  0  0  0  0  0  0  0  0
   -2.2251   -1.1686    1.5700 C   0  0  0  0  0  0  0  0  0  0  0  0
   -2.2536   -2.4938    2.0151 C   0  0  0  0  0  0  0  0  0  0  0  0
   -1.2525   -3.3846    1.6336 C   0  0  0  0  0  0  0  0  0  0  0  0
   -0.2195   -2.9518    0.8043 C   0  0  0  0  0  0  0  0  0  0  0  0
   -0.1928   -1.6238    0.3569 C   0  0  0  0  0  0  0  0  0  0  0  0
    0.9012   -1.1646   -0.5147 C   0  0  0  0  0  0  0  0  0  0  0  0
    1.8207   -1.9275   -0.8104 O   0  0  0  0  0  0  0  0  0  0  0  0
    3.7859   -0.0295   -0.5298 N   0  0  0  0  0  0  0  0  0  0  0  0
    4.9584    0.0700    0.1593 C   0  0  0  0  0  0  0  0  0  0  0  0
    5.7075    1.1166    0.3893 N   0  0  0  0  0  0  0  0  0  0  0  0
    6.8045    0.7384    1.1366 C   0  0  0  0  0  0  0  0  0  0  0  0
    6.8668   -0.5992    1.4660 C   0  0  0  0  0  0  0  0  0  0  0  0
    5.5023   -1.4120    0.8161 S   0  0  0  0  0  0  0  0  0  0  0  0
    1.4803    1.5509   -2.3694 H   0  0  0  0  0  0  0  0  0  0  0  0
    2.0987   -0.0934   -2.6077 H   0  0  0  0  0  0  0  0  0  0  0  0
   -1.7277    2.6952    0.3952 H   0  0  0  0  0  0  0  0  0  0  0  0
   -2.3205    1.6446    1.6633 H   0  0  0  0  0  0  0  0  0  0  0  0
   -2.4959    1.4542   -2.1558 H   0  0  0  0  0  0  0  0  0  0  0  0
   -4.6647    1.2383   -3.3480 H   0  0  0  0  0  0  0  0  0  0  0  0
   -6.7738    1.2440   -2.0108 H   0  0  0  0  0  0  0  0  0  0  0  0
   -4.7273    1.6880    1.5248 H   0  0  0  0  0  0  0  0  0  0  0  0
   -3.0269   -0.5108    1.8889 H   0  0  0  0  0  0  0  0  0  0  0  0
   -3.0624   -2.8325    2.6600 H   0  0  0  0  0  0  0  0  0  0  0  0
   -1.2773   -4.4154    1.9806 H   0  0  0  0  0  0  0  0  0  0  0  0
    0.5607   -3.6502    0.5077 H   0  0  0  0  0  0  0  0  0  0  0  0
    3.3612   -0.9518   -0.5830 H   0  0  0  0  0  0  0  0  0  0  0  0
    7.5353    1.4873    1.4163 H   0  0  0  0  0  0  0  0  0  0  0  0
    7.6219   -1.1190    2.0370 H   0  0  0  0  0  0  0  0  0  0  0  0
  1  2  2  0
  2  3  1  0
  3  4  1  0
  4  5  1  0
  5  6  2  0
  6  7  1  0
  7  8  1  0
  8  9  2  0
  9 10  1  0
 10 11  2  0
 11 12  1  0
 12 13  2  0
  6 14  1  0
 14 15  2  0
 15 16  1  0
 16 17  2  0
 17 18  1  0
 18 19  2  0
 19 20  1  0
 20 21  2  0
  2 22  1  0
 22 23  1  0
 23 24  2  0
 24 25  1  0
 25 26  2  0
 26 27  1  0
 20  4  1  0
 27 23  1  0
 13  8  1  0
 19 14  1  0
  3 28  1  0
  3 29  1  0
  7 30  1  0
  7 31  1  0
  9 32  1  0
 10 33  1  0
 11 34  1  0
 13 35  1  0
 15 36  1  0
 16 37  1  0
 17 38  1  0
 18 39  1  0
 22 40  1  0
 25 41  1  0
 26 42  1  0
M  END
$$$$
