
     RDKit          3D

 52 55  0  0  0  0  0  0  0  0999 V2000
    5.2258   -2.1274    0.0533 O   0  0  0  0  0  0  0  0  0  0  0  0
    4.5706   -0.9136   -0.3827 S   0  0  0  0  0  6  0  0  0  0  0  0
    4.0345   -0.7899   -1.7230 O   0  0  0  0  0  0  0  0  0  0  0  0
    5.8002    0.3646   -0.2622 C   0  0  0  0  0  0  0  0  0  0  0  0
    6.3509    1.2128   -1.2045 C   0  0  0  0  0  0  0  0  0  0  0  0
    7.3168    2.0955   -0.6407 C   0  0  0  0  0  0  0  0  0  0  0  0
    7.4717    1.8903    0.7125 C   0  0  0  0  0  0  0  0  0  0  0  0
    6.4566    0.6409    1.2939 S   0  0  0  0  0  0  0  0  0  0  0  0
    3.3048   -0.5519    0.7048 N   0  0  0  0  0  0  0  0  0  0  0  0
    2.6597    0.7738    0.5118 C   0  0  0  0  0  0  0  0  0  0  0  0
    1.2841    0.8125    1.1653 C   0  0  0  0  0  0  0  0  0  0  0  0
    0.3522   -0.1981    0.4751 C   0  0  0  0  0  0  0  0  0  0  0  0
   -0.9286   -0.2940    1.1901 N   0  0  0  0  0  0  0  0  0  0  0  0
   -0.8961   -0.8974    2.5334 C   0  0  0  0  0  0  0  0  0  0  0  0
   -2.3202   -1.3749    2.7659 C   0  0  0  0  0  0  0  0  0  0  0  0
   -3.1165   -0.3572    3.1669 F   0  0  0  0  0  0  0  0  0  0  0  0
   -2.3889   -2.3440    3.6987 F   0  0  0  0  0  0  0  0  0  0  0  0
   -2.7446   -1.8767    1.4099 C   0  0  0  0  0  0  0  0  0  0  0  0
   -2.0221   -0.9402    0.4298 C   0  0  1  0  0  0  0  0  0  0  0  0
   -2.9733    0.1300   -0.1426 C   0  0  0  0  0  0  0  0  0  0  0  0
   -3.9508   -0.5234   -0.9581 O   0  0  0  0  0  0  0  0  0  0  0  0
   -4.8883    0.2695   -1.5532 C   0  0  0  0  0  0  0  0  0  0  0  0
   -5.0042    1.6512   -1.4341 C   0  0  0  0  0  0  0  0  0  0  0  0
   -6.0267    2.3170   -2.1117 C   0  0  0  0  0  0  0  0  0  0  0  0
   -6.9012    1.5747   -2.8888 C   0  0  0  0  0  0  0  0  0  0  0  0
   -6.8216    0.2361   -3.0297 N   0  0  0  0  0  0  0  0  0  0  0  0
   -5.8189   -0.3806   -2.3580 C   0  0  0  0  0  0  0  0  0  0  0  0
    1.0737   -1.5321    0.1902 C   0  0  0  0  0  0  0  0  0  0  0  0
    2.3720   -1.6771    0.9726 C   0  0  0  0  0  0  0  0  0  0  0  0
    6.0681    1.1893   -2.2507 H   0  0  0  0  0  0  0  0  0  0  0  0
    7.8731    2.8390   -1.1991 H   0  0  0  0  0  0  0  0  0  0  0  0
    8.1354    2.4102    1.3904 H   0  0  0  0  0  0  0  0  0  0  0  0
    3.2934    1.5389    0.9725 H   0  0  0  0  0  0  0  0  0  0  0  0
    2.5633    1.0107   -0.5536 H   0  0  0  0  0  0  0  0  0  0  0  0
    1.3877    0.5995    2.2364 H   0  0  0  0  0  0  0  0  0  0  0  0
    0.8632    1.8221    1.0825 H   0  0  0  0  0  0  0  0  0  0  0  0
    0.1173    0.2390   -0.5065 H   0  0  0  0  0  0  0  0  0  0  0  0
   -0.6029   -0.1612    3.2876 H   0  0  0  0  0  0  0  0  0  0  0  0
   -0.2155   -1.7531    2.5915 H   0  0  0  0  0  0  0  0  0  0  0  0
   -2.3913   -2.9060    1.2734 H   0  0  0  0  0  0  0  0  0  0  0  0
   -3.8329   -1.8713    1.2995 H   0  0  0  0  0  0  0  0  0  0  0  0
   -1.6512   -1.5537   -0.4014 H   0  0  0  0  0  0  0  0  0  0  0  0
   -3.4637    0.6720    0.6760 H   0  0  0  0  0  0  0  0  0  0  0  0
   -2.3985    0.8331   -0.7586 H   0  0  0  0  0  0  0  0  0  0  0  0
   -4.3239    2.2372   -0.8261 H   0  0  0  0  0  0  0  0  0  0  0  0
   -6.1385    3.3928   -2.0333 H   0  0  0  0  0  0  0  0  0  0  0  0
   -7.7115    2.0514   -3.4329 H   0  0  0  0  0  0  0  0  0  0  0  0
   -5.7788   -1.4586   -2.4880 H   0  0  0  0  0  0  0  0  0  0  0  0
    1.2969   -1.5824   -0.8840 H   0  0  0  0  0  0  0  0  0  0  0  0
    0.4288   -2.3945    0.3940 H   0  0  0  0  0  0  0  0  0  0  0  0
    2.8341   -2.6404    0.7330 H   0  0  0  0  0  0  0  0  0  0  0  0
    2.1755   -1.7046    2.0509 H   0  0  0  0  0  0  0  0  0  0  0  0
  1  2  2  0
  2  3  2  0
  2  4  1  0
  4  5  2  0
  5  6  1  0
  6  7  2  0
  7  8  1  0
  2  9  1  0
  9 10  1  0
 10 11  1  0
 11 12  1  0
 12 13  1  0
 13 14  1  0
 14 15  1  0
 15 16  1  0
 15 17  1  0
 15 18  1  0
 18 19  1  0
 19 20  1  0
 20 21  1  0
 21 22  1  0
 22 23  2  0
 23 24  1  0
 24 25  2  0
 25 26  1  0
 26 27  2  0
 12 28  1  0
 28 29  1  0
  8  4  1  0
 29  9  1  0
 19 13  1  0
 27 22  1  0
  5 30  1  0
  6 31  1  0
  7 32  1  0
 10 33  1  0
 10 34  1  0
 11 35  1  0
 11 36  1  0
 12 37  1  0
 14 38  1  0
 14 39  1  0
 18 40  1  0
 18 41  1  0
 19 42  1  6
 20 43  1  0
 20 44  1  0
 23 45  1  0
 24 46  1  0
 25 47  1  0
 27 48  1  0
 28 49  1  0
 28 50  1  0
 29 51  1  0
 29 52  1  0
M  END
$$$$
