
     RDKit          3D

 48 49  0  0  0  0  0  0  0  0999 V2000
   -7.1664   -0.0144    0.7089 C   0  0  0  0  0  0  0  0  0  0  0  0
   -5.9248    0.4922    1.4343 C   0  0  0  0  0  0  0  0  0  0  0  0
   -5.1117   -0.6127    2.1069 C   0  0  0  0  0  0  0  0  0  0  0  0
   -4.3968   -1.8457    0.9635 S   0  0  0  0  0  0  0  0  0  0  0  0
   -3.0735   -0.8444    0.1976 C   0  0  0  0  0  0  0  0  0  0  0  0
   -3.4660   -0.4158   -1.2154 C   0  0  0  0  0  0  0  0  0  0  0  0
   -2.4348    0.5123   -1.8573 C   0  0  0  0  0  0  0  0  0  0  0  0
   -1.1951   -0.1651   -2.1871 N   0  0  0  0  0  0  0  0  0  0  0  0
   -0.1159   -0.1950   -1.3168 C   0  0  0  0  0  0  0  0  0  0  0  0
   -0.1494    0.3543   -0.2179 O   0  0  0  0  0  0  0  0  0  0  0  0
    1.0655   -0.9839   -1.8550 C   0  0  0  0  0  0  0  0  0  0  0  0
    1.9814   -1.4261   -0.8103 N   0  0  0  0  0  0  0  0  0  0  0  0
    1.9128   -2.6742   -0.2341 C   0  0  0  0  0  0  0  0  0  0  0  0
    2.8975   -2.7607    0.7180 C   0  0  0  0  0  0  0  0  0  0  0  0
    3.5922   -1.5308    0.7066 C   0  0  0  0  0  0  0  0  0  0  0  0
    3.0392   -0.7105   -0.2720 C   0  0  0  0  0  0  0  0  0  0  0  0
    3.4135    0.6457   -0.6575 C   0  0  0  0  0  0  0  0  0  0  0  0
    2.8054    1.3221   -1.4856 O   0  0  0  0  0  0  0  0  0  0  0  0
    4.5990    1.2752   -0.0276 C   0  0  0  0  0  0  0  0  0  0  0  0
    4.4369    2.4852    0.6571 C   0  0  0  0  0  0  0  0  0  0  0  0
    5.5399    3.0912    1.2614 C   0  0  0  0  0  0  0  0  0  0  0  0
    6.8002    2.4974    1.1682 C   0  0  0  0  0  0  0  0  0  0  0  0
    6.9654    1.3031    0.4630 C   0  0  0  0  0  0  0  0  0  0  0  0
    5.8660    0.6911   -0.1423 C   0  0  0  0  0  0  0  0  0  0  0  0
   -6.9111   -0.6367   -0.1535 H   0  0  0  0  0  0  0  0  0  0  0  0
   -7.7999   -0.6013    1.3837 H   0  0  0  0  0  0  0  0  0  0  0  0
   -7.7571    0.8310    0.3410 H   0  0  0  0  0  0  0  0  0  0  0  0
   -5.3017    1.0721    0.7450 H   0  0  0  0  0  0  0  0  0  0  0  0
   -6.2482    1.1943    2.2148 H   0  0  0  0  0  0  0  0  0  0  0  0
   -5.7534   -1.1591    2.8081 H   0  0  0  0  0  0  0  0  0  0  0  0
   -4.3038   -0.1762    2.7015 H   0  0  0  0  0  0  0  0  0  0  0  0
   -2.1843   -1.4805    0.1629 H   0  0  0  0  0  0  0  0  0  0  0  0
   -2.8382    0.0185    0.8282 H   0  0  0  0  0  0  0  0  0  0  0  0
   -4.4249    0.1176   -1.1934 H   0  0  0  0  0  0  0  0  0  0  0  0
   -3.6048   -1.3005   -1.8499 H   0  0  0  0  0  0  0  0  0  0  0  0
   -2.8381    0.8953   -2.8026 H   0  0  0  0  0  0  0  0  0  0  0  0
   -2.2297    1.3732   -1.2123 H   0  0  0  0  0  0  0  0  0  0  0  0
   -1.1337   -0.6397   -3.0795 H   0  0  0  0  0  0  0  0  0  0  0  0
    0.6958   -1.8857   -2.3560 H   0  0  0  0  0  0  0  0  0  0  0  0
    1.6147   -0.4029   -2.5962 H   0  0  0  0  0  0  0  0  0  0  0  0
    1.1549   -3.3907   -0.5297 H   0  0  0  0  0  0  0  0  0  0  0  0
    3.0855   -3.6122    1.3602 H   0  0  0  0  0  0  0  0  0  0  0  0
    4.4153   -1.2742    1.3608 H   0  0  0  0  0  0  0  0  0  0  0  0
    3.4545    2.9477    0.7230 H   0  0  0  0  0  0  0  0  0  0  0  0
    5.4180    4.0259    1.8044 H   0  0  0  0  0  0  0  0  0  0  0  0
    7.6577    2.9722    1.6414 H   0  0  0  0  0  0  0  0  0  0  0  0
    7.9515    0.8521    0.3839 H   0  0  0  0  0  0  0  0  0  0  0  0
    6.0004   -0.2306   -0.7026 H   0  0  0  0  0  0  0  0  0  0  0  0
  1  2  1  0
  2  3  1  0
  3  4  1  0
  4  5  1  0
  5  6  1  0
  6  7  1  0
  7  8  1  0
  8  9  1  0
  9 10  2  0
  9 11  1  0
 11 12  1  0
 12 13  1  0
 13 14  2  0
 14 15  1  0
 15 16  2  0
 16 17  1  0
 17 18  2  0
 17 19  1  0
 19 20  2  0
 20 21  1  0
 21 22  2  0
 22 23  1  0
 23 24  2  0
 16 12  1  0
 24 19  1  0
  1 25  1  0
  1 26  1  0
  1 27  1  0
  2 28  1  0
  2 29  1  0
  3 30  1  0
  3 31  1  0
  5 32  1  0
  5 33  1  0
  6 34  1  0
  6 35  1  0
  7 36  1  0
  7 37  1  0
  8 38  1  0
 11 39  1  0
 11 40  1  0
 13 41  1  0
 14 42  1  0
 15 43  1  0
 20 44  1  0
 21 45  1  0
 22 46  1  0
 23 47  1  0
 24 48  1  0
M  END
$$$$
