
     RDKit          3D

 38 40  0  0  0  0  0  0  0  0999 V2000
   -5.3434   -2.4075    1.2213 C   0  0  0  0  0  0  0  0  0  0  0  0
   -3.8313   -2.3269    1.1106 C   0  0  0  0  0  0  0  0  0  0  0  0
   -3.4961   -1.0351    0.6126 O   0  0  0  0  0  0  0  0  0  0  0  0
   -2.1677   -0.7409    0.4323 C   0  0  0  0  0  0  0  0  0  0  0  0
   -1.1186   -1.6229    0.7043 C   0  0  0  0  0  0  0  0  0  0  0  0
    0.2065   -1.2322    0.4883 C   0  0  0  0  0  0  0  0  0  0  0  0
    0.5061    0.0444   -0.0022 C   0  0  0  0  0  0  0  0  0  0  0  0
    1.8951    0.4365   -0.2220 C   0  0  0  0  0  0  0  0  0  0  0  0
    2.2731    1.6374   -0.6884 N   0  0  0  0  0  0  0  0  0  0  0  0
    3.6616    1.5526   -0.7309 O   0  0  0  0  0  0  0  0  0  0  0  0
    4.0029    0.3027   -0.2845 C   0  0  0  0  0  0  0  0  0  0  0  0
    5.3568   -0.1551   -0.1865 C   0  0  0  0  0  0  0  0  0  0  0  0
    6.5225    0.5273   -0.5020 C   0  0  0  0  0  0  0  0  0  0  0  0
    7.6070   -0.3440   -0.2360 C   0  0  0  0  0  0  0  0  0  0  0  0
    7.0496   -1.5099    0.2267 C   0  0  0  0  0  0  0  0  0  0  0  0
    5.6978   -1.4086    0.2610 O   0  0  0  0  0  0  0  0  0  0  0  0
    2.9465   -0.4138    0.0380 N   0  0  0  0  0  0  0  0  0  0  0  0
   -0.5491    0.9292   -0.2748 C   0  0  0  0  0  0  0  0  0  0  0  0
   -1.8804    0.5475   -0.0619 C   0  0  0  0  0  0  0  0  0  0  0  0
   -2.9664    1.3531   -0.3035 O   0  0  0  0  0  0  0  0  0  0  0  0
   -2.7281    2.6655   -0.8039 C   0  0  0  0  0  0  0  0  0  0  0  0
   -4.0723    3.3476   -0.9857 C   0  0  0  0  0  0  0  0  0  0  0  0
   -5.7229   -1.6296    1.8922 H   0  0  0  0  0  0  0  0  0  0  0  0
   -5.6551   -3.3845    1.6011 H   0  0  0  0  0  0  0  0  0  0  0  0
   -5.8108   -2.2419    0.2448 H   0  0  0  0  0  0  0  0  0  0  0  0
   -3.3924   -2.4782    2.1035 H   0  0  0  0  0  0  0  0  0  0  0  0
   -3.4822   -3.1037    0.4207 H   0  0  0  0  0  0  0  0  0  0  0  0
   -1.2941   -2.6232    1.0855 H   0  0  0  0  0  0  0  0  0  0  0  0
    1.0063   -1.9382    0.7081 H   0  0  0  0  0  0  0  0  0  0  0  0
    6.5792    1.5391   -0.8809 H   0  0  0  0  0  0  0  0  0  0  0  0
    8.6621   -0.1468   -0.3654 H   0  0  0  0  0  0  0  0  0  0  0  0
    7.4552   -2.4566    0.5568 H   0  0  0  0  0  0  0  0  0  0  0  0
   -0.3110    1.9178   -0.6550 H   0  0  0  0  0  0  0  0  0  0  0  0
   -2.1291    3.2425   -0.0902 H   0  0  0  0  0  0  0  0  0  0  0  0
   -2.2189    2.6169   -1.7733 H   0  0  0  0  0  0  0  0  0  0  0  0
   -3.9452    4.3635   -1.3701 H   0  0  0  0  0  0  0  0  0  0  0  0
   -4.7006    2.7820   -1.6817 H   0  0  0  0  0  0  0  0  0  0  0  0
   -4.6127    3.3943   -0.0344 H   0  0  0  0  0  0  0  0  0  0  0  0
  1  2  1  0
  2  3  1  0
  3  4  1  0
  4  5  2  0
  5  6  1  0
  6  7  2  0
  7  8  1  0
  8  9  2  0
  9 10  1  0
 10 11  1  0
 11 12  1  0
 12 13  2  0
 13 14  1  0
 14 15  2  0
 15 16  1  0
 11 17  2  0
  7 18  1  0
 18 19  2  0
 19 20  1  0
 20 21  1  0
 21 22  1  0
 19  4  1  0
 17  8  1  0
 16 12  1  0
  1 23  1  0
  1 24  1  0
  1 25  1  0
  2 26  1  0
  2 27  1  0
  5 28  1  0
  6 29  1  0
 13 30  1  0
 14 31  1  0
 15 32  1  0
 18 33  1  0
 21 34  1  0
 21 35  1  0
 22 36  1  0
 22 37  1  0
 22 38  1  0
M  END
$$$$
