
     RDKit          3D

 47 50  0  0  0  0  0  0  0  0999 V2000
   -1.3414    3.6514   -0.4017 C   0  0  0  0  0  0  0  0  0  0  0  0
   -1.4968    2.4583    0.3669 O   0  0  0  0  0  0  0  0  0  0  0  0
   -2.5880    1.7179   -0.0193 C   0  0  0  0  0  0  0  0  0  0  0  0
   -3.8620    2.3036   -0.0305 C   0  0  0  0  0  0  0  0  0  0  0  0
   -4.9931    1.5277   -0.2762 C   0  0  0  0  0  0  0  0  0  0  0  0
   -4.8595    0.1600   -0.4871 C   0  0  0  0  0  0  0  0  0  0  0  0
   -3.5943   -0.4334   -0.4562 C   0  0  0  0  0  0  0  0  0  0  0  0
   -2.4392    0.3344   -0.2354 C   0  0  0  0  0  0  0  0  0  0  0  0
   -1.1716   -0.2943   -0.2081 N   0  0  0  0  0  0  0  0  0  0  0  0
    0.0006    0.2074   -0.8897 C   0  0  0  0  0  0  0  0  0  0  0  0
    0.1324    1.2516   -1.5101 O   0  0  0  0  0  0  0  0  0  0  0  0
    1.0073   -0.8415   -0.7939 N   0  0  0  0  0  0  0  0  0  0  0  0
    2.3735   -0.4823   -0.8533 C   0  0  0  0  0  0  0  0  0  0  0  0
    3.1478   -1.0622   -1.8618 C   0  0  0  0  0  0  0  0  0  0  0  0
    4.5074   -0.7613   -1.9605 C   0  0  0  0  0  0  0  0  0  0  0  0
    5.0990    0.1104   -1.0459 C   0  0  0  0  0  0  0  0  0  0  0  0
    4.3325    0.6896   -0.0332 C   0  0  0  0  0  0  0  0  0  0  0  0
    2.9671    0.4078    0.0556 C   0  0  0  0  0  0  0  0  0  0  0  0
    2.2142    0.9177    1.0823 O   0  0  0  0  0  0  0  0  0  0  0  0
    2.1550    2.3436    1.0313 C   0  0  0  0  0  0  0  0  0  0  0  0
    0.5607   -1.6878    0.2744 C   0  0  0  0  0  0  0  0  0  0  0  0
    0.9478   -3.1439    0.3508 C   0  0  0  0  0  0  0  0  0  0  0  0
   -0.3705   -3.7958    1.3968 S   0  0  0  0  0  6  0  0  0  0  0  0
   -0.9830   -4.9144    0.7109 O   0  0  0  0  0  0  0  0  0  0  0  0
    0.1131   -3.8958    2.7567 O   0  0  0  0  0  0  0  0  0  0  0  0
   -1.4886   -2.3820    1.2845 C   0  0  0  0  0  0  0  0  0  0  0  0
   -0.9472   -1.6811    0.0584 C   0  0  0  0  0  0  0  0  0  0  0  0
   -0.2962    3.9652   -0.3265 H   0  0  0  0  0  0  0  0  0  0  0  0
   -1.9598    4.4542    0.0117 H   0  0  0  0  0  0  0  0  0  0  0  0
   -1.5723    3.4956   -1.4619 H   0  0  0  0  0  0  0  0  0  0  0  0
   -3.9883    3.3598    0.1874 H   0  0  0  0  0  0  0  0  0  0  0  0
   -5.9775    1.9886   -0.2853 H   0  0  0  0  0  0  0  0  0  0  0  0
   -5.7406   -0.4482   -0.6774 H   0  0  0  0  0  0  0  0  0  0  0  0
   -3.5352   -1.4994   -0.6531 H   0  0  0  0  0  0  0  0  0  0  0  0
    2.6946   -1.7385   -2.5815 H   0  0  0  0  0  0  0  0  0  0  0  0
    5.1060   -1.2078   -2.7506 H   0  0  0  0  0  0  0  0  0  0  0  0
    6.1604    0.3348   -1.1183 H   0  0  0  0  0  0  0  0  0  0  0  0
    4.8095    1.3438    0.6903 H   0  0  0  0  0  0  0  0  0  0  0  0
    2.0169    2.7153    0.0097 H   0  0  0  0  0  0  0  0  0  0  0  0
    3.0547    2.7796    1.4767 H   0  0  0  0  0  0  0  0  0  0  0  0
    1.2956    2.6634    1.6279 H   0  0  0  0  0  0  0  0  0  0  0  0
    0.7987   -1.1958    1.2312 H   0  0  0  0  0  0  0  0  0  0  0  0
    1.9172   -3.3090    0.8246 H   0  0  0  0  0  0  0  0  0  0  0  0
    0.9047   -3.6449   -0.6201 H   0  0  0  0  0  0  0  0  0  0  0  0
   -2.5141   -2.7380    1.1738 H   0  0  0  0  0  0  0  0  0  0  0  0
   -1.3893   -1.7833    2.1943 H   0  0  0  0  0  0  0  0  0  0  0  0
   -1.2081   -2.2408   -0.8538 H   0  0  0  0  0  0  0  0  0  0  0  0
  1  2  1  0
  2  3  1  0
  3  4  2  0
  4  5  1  0
  5  6  2  0
  6  7  1  0
  7  8  2  0
  8  9  1  0
  9 10  1  0
 10 11  2  0
 10 12  1  0
 12 13  1  0
 13 14  2  0
 14 15  1  0
 15 16  2  0
 16 17  1  0
 17 18  2  0
 18 19  1  0
 19 20  1  0
 12 21  1  0
 21 22  1  0
 22 23  1  0
 23 24  2  0
 23 25  2  0
 23 26  1  0
 26 27  1  0
  8  3  1  0
 27  9  1  0
 18 13  1  0
 27 21  1  0
  1 28  1  0
  1 29  1  0
  1 30  1  0
  4 31  1  0
  5 32  1  0
  6 33  1  0
  7 34  1  0
 14 35  1  0
 15 36  1  0
 16 37  1  0
 17 38  1  0
 20 39  1  0
 20 40  1  0
 20 41  1  0
 21 42  1  0
 22 43  1  0
 22 44  1  0
 26 45  1  0
 26 46  1  0
 27 47  1  0
M  END
$$$$
