
     RDKit          3D

 59 63  0  0  0  0  0  0  0  0999 V2000
   -4.6955    3.1775   -1.4943 C   0  0  0  0  0  0  0  0  0  0  0  0
   -5.0447    2.8695   -0.1451 O   0  0  0  0  0  0  0  0  0  0  0  0
   -4.6351    1.6033    0.1805 C   0  0  0  0  0  0  0  0  0  0  0  0
   -3.5067    1.4752    0.9823 C   0  0  0  0  0  0  0  0  0  0  0  0
   -3.0779    0.1973    1.3457 C   0  0  0  0  0  0  0  0  0  0  0  0
   -1.8801    0.0345    2.1924 C   0  0  0  0  0  0  0  0  0  0  0  0
   -2.0411   -0.4138    3.3233 O   0  0  0  0  0  0  0  0  0  0  0  0
   -0.6439    0.3761    1.6573 N   0  0  0  0  0  0  0  0  0  0  0  0
   -0.4061    0.5887    0.2228 C   0  0  0  0  0  0  0  0  0  0  0  0
    1.0637    0.8838   -0.1138 C   0  0  0  0  0  0  0  0  0  0  0  0
    1.9666   -0.1476    0.4346 N   0  0  0  0  0  0  0  0  0  0  0  0
    3.2686   -0.2313   -0.0600 C   0  0  0  0  0  0  0  0  0  0  0  0
    3.6849    0.7462   -0.8294 N   0  0  0  0  0  0  0  0  0  0  0  0
    4.9932    0.7599   -1.3450 C   0  0  0  0  0  0  0  0  0  0  0  0
    5.3758    1.8328   -2.1521 C   0  0  0  0  0  0  0  0  0  0  0  0
    6.6662    1.9025   -2.6825 C   0  0  0  0  0  0  0  0  0  0  0  0
    7.5906    0.8956   -2.4070 C   0  0  0  0  0  0  0  0  0  0  0  0
    7.2294   -0.1855   -1.6023 C   0  0  0  0  0  0  0  0  0  0  0  0
    5.9335   -0.2419   -1.0802 C   0  0  0  0  0  0  0  0  0  0  0  0
    5.4801   -1.3005   -0.2761 N   0  0  0  0  0  0  0  0  0  0  0  0
    6.1522   -2.4269    0.1342 C   0  0  0  0  0  0  0  0  0  0  0  0
    5.2764   -3.2161    0.8448 C   0  0  0  0  0  0  0  0  0  0  0  0
    4.0354   -2.5384    0.8749 C   0  0  0  0  0  0  0  0  0  0  0  0
    4.1887   -1.3316    0.2119 C   0  0  0  0  0  0  0  0  0  0  0  0
    1.6142   -0.6594    1.7725 C   0  0  0  0  0  0  0  0  0  0  0  0
    0.5567    0.2055    2.4782 C   0  0  0  0  0  0  0  0  0  0  0  0
   -3.7885   -0.9476    0.9580 C   0  0  0  0  0  0  0  0  0  0  0  0
   -4.9353   -0.8199    0.1715 C   0  0  0  0  0  0  0  0  0  0  0  0
   -5.7011   -1.8654   -0.2745 O   0  0  0  0  0  0  0  0  0  0  0  0
   -5.2764   -3.1790    0.0597 C   0  0  0  0  0  0  0  0  0  0  0  0
   -5.3656    0.4677   -0.1985 C   0  0  0  0  0  0  0  0  0  0  0  0
   -6.4850    0.6168   -0.9833 O   0  0  0  0  0  0  0  0  0  0  0  0
   -7.6423    0.7292   -0.1552 C   0  0  0  0  0  0  0  0  0  0  0  0
   -5.1138    4.1599   -1.7313 H   0  0  0  0  0  0  0  0  0  0  0  0
   -3.6064    3.2385   -1.6012 H   0  0  0  0  0  0  0  0  0  0  0  0
   -5.1044    2.4550   -2.2081 H   0  0  0  0  0  0  0  0  0  0  0  0
   -2.9723    2.3580    1.3206 H   0  0  0  0  0  0  0  0  0  0  0  0
   -1.0315    1.4145   -0.1281 H   0  0  0  0  0  0  0  0  0  0  0  0
   -0.7291   -0.3231   -0.2961 H   0  0  0  0  0  0  0  0  0  0  0  0
    1.1553    0.9296   -1.2057 H   0  0  0  0  0  0  0  0  0  0  0  0
    1.3487    1.8639    0.2885 H   0  0  0  0  0  0  0  0  0  0  0  0
    4.6586    2.6207   -2.3660 H   0  0  0  0  0  0  0  0  0  0  0  0
    6.9475    2.7437   -3.3110 H   0  0  0  0  0  0  0  0  0  0  0  0
    8.5942    0.9535   -2.8215 H   0  0  0  0  0  0  0  0  0  0  0  0
    7.9656   -0.9570   -1.4035 H   0  0  0  0  0  0  0  0  0  0  0  0
    7.1888   -2.5959   -0.1179 H   0  0  0  0  0  0  0  0  0  0  0  0
    5.5044   -4.1793    1.2831 H   0  0  0  0  0  0  0  0  0  0  0  0
    3.1311   -2.9071    1.3369 H   0  0  0  0  0  0  0  0  0  0  0  0
    1.2221   -1.6770    1.6597 H   0  0  0  0  0  0  0  0  0  0  0  0
    2.4992   -0.6963    2.4182 H   0  0  0  0  0  0  0  0  0  0  0  0
    0.3131   -0.2317    3.4521 H   0  0  0  0  0  0  0  0  0  0  0  0
    0.9575    1.2095    2.6649 H   0  0  0  0  0  0  0  0  0  0  0  0
   -3.4251   -1.9143    1.2922 H   0  0  0  0  0  0  0  0  0  0  0  0
   -4.2889   -3.3930   -0.3633 H   0  0  0  0  0  0  0  0  0  0  0  0
   -5.2860   -3.3326    1.1425 H   0  0  0  0  0  0  0  0  0  0  0  0
   -5.9895   -3.8835   -0.3819 H   0  0  0  0  0  0  0  0  0  0  0  0
   -7.5920    1.6238    0.4746 H   0  0  0  0  0  0  0  0  0  0  0  0
   -8.5137    0.8266   -0.8096 H   0  0  0  0  0  0  0  0  0  0  0  0
   -7.7842   -0.1640    0.4624 H   0  0  0  0  0  0  0  0  0  0  0  0
  1  2  1  0
  2  3  1  0
  3  4  2  0
  4  5  1  0
  5  6  1  0
  6  7  2  0
  6  8  1  0
  8  9  1  0
  9 10  1  0
 10 11  1  0
 11 12  1  0
 12 13  2  0
 13 14  1  0
 14 15  2  0
 15 16  1  0
 16 17  2  0
 17 18  1  0
 18 19  2  0
 19 20  1  0
 20 21  1  0
 21 22  2  0
 22 23  1  0
 23 24  2  0
 11 25  1  0
 25 26  1  0
  5 27  2  0
 27 28  1  0
 28 29  1  0
 29 30  1  0
 28 31  2  0
 31 32  1  0
 32 33  1  0
 31  3  1  0
 26  8  1  0
 24 12  1  0
 19 14  1  0
 24 20  1  0
  1 34  1  0
  1 35  1  0
  1 36  1  0
  4 37  1  0
  9 38  1  0
  9 39  1  0
 10 40  1  0
 10 41  1  0
 15 42  1  0
 16 43  1  0
 17 44  1  0
 18 45  1  0
 21 46  1  0
 22 47  1  0
 23 48  1  0
 25 49  1  0
 25 50  1  0
 26 51  1  0
 26 52  1  0
 27 53  1  0
 30 54  1  0
 30 55  1  0
 30 56  1  0
 33 57  1  0
 33 58  1  0
 33 59  1  0
M  END
$$$$
