
     RDKit          3D

 47 50  0  0  0  0  0  0  0  0999 V2000
   -3.5380   -2.9437   -1.3553 C   0  0  0  0  0  0  0  0  0  0  0  0
   -4.3937   -1.9832   -0.7537 O   0  0  0  0  0  0  0  0  0  0  0  0
   -3.8197   -0.8500   -0.2376 C   0  0  0  0  0  0  0  0  0  0  0  0
   -2.4631   -0.5272   -0.3302 C   0  0  0  0  0  0  0  0  0  0  0  0
   -1.9690    0.6620    0.2318 C   0  0  0  0  0  0  0  0  0  0  0  0
   -0.5453    0.9958    0.1406 C   0  0  0  0  0  0  0  0  0  0  0  0
    0.5593    0.1183   -0.0222 C   0  0  0  0  0  0  0  0  0  0  0  0
    1.6772    0.9232   -0.0539 C   0  0  0  0  0  0  0  0  0  0  0  0
    3.0377    0.6447   -0.1806 N   0  0  0  0  0  0  0  0  0  0  0  0
    3.9616    1.6885   -0.0686 C   0  0  0  0  0  0  0  0  0  0  0  0
    3.7061    2.8947   -0.0455 O   0  0  0  0  0  0  0  0  0  0  0  0
    5.2817    1.3502    0.0603 N   0  0  0  0  0  0  0  0  0  0  0  0
    5.7465    0.0450    0.0797 C   0  0  0  0  0  0  0  0  0  0  0  0
    7.1117   -0.1996    0.2463 C   0  0  0  0  0  0  0  0  0  0  0  0
    7.5841   -1.5098    0.2218 C   0  0  0  0  0  0  0  0  0  0  0  0
    6.6942   -2.5625    0.0236 C   0  0  0  0  0  0  0  0  0  0  0  0
    5.3298   -2.3043   -0.1444 C   0  0  0  0  0  0  0  0  0  0  0  0
    4.8332   -0.9909   -0.1092 C   0  0  0  0  0  0  0  0  0  0  0  0
    3.4475   -0.7232   -0.2766 N   0  0  0  0  0  0  0  0  0  0  0  0
    2.7582   -1.5249   -1.1959 O   0  0  0  0  0  0  0  0  0  0  0  0
    1.2593    2.2133    0.0929 O   0  0  0  0  0  0  0  0  0  0  0  0
   -0.1131    2.2620    0.2199 N   0  0  0  0  0  0  0  0  0  0  0  0
   -2.8551    1.5342    0.8886 C   0  0  0  0  0  0  0  0  0  0  0  0
   -4.2140    1.2302    0.9950 C   0  0  0  0  0  0  0  0  0  0  0  0
   -5.1463    2.0130    1.6255 O   0  0  0  0  0  0  0  0  0  0  0  0
   -4.6850    3.1949    2.2663 C   0  0  0  0  0  0  0  0  0  0  0  0
   -4.6875    0.0418    0.4153 C   0  0  0  0  0  0  0  0  0  0  0  0
   -6.0172   -0.2948    0.5497 O   0  0  0  0  0  0  0  0  0  0  0  0
   -6.7659    0.2525   -0.5344 C   0  0  0  0  0  0  0  0  0  0  0  0
   -3.0578   -2.5361   -2.2509 H   0  0  0  0  0  0  0  0  0  0  0  0
   -2.7951   -3.3151   -0.6417 H   0  0  0  0  0  0  0  0  0  0  0  0
   -4.1539   -3.7932   -1.6661 H   0  0  0  0  0  0  0  0  0  0  0  0
   -1.7787   -1.1858   -0.8528 H   0  0  0  0  0  0  0  0  0  0  0  0
    0.5365   -0.9559   -0.0950 H   0  0  0  0  0  0  0  0  0  0  0  0
    5.9143    2.1311    0.1637 H   0  0  0  0  0  0  0  0  0  0  0  0
    7.8121    0.6187    0.3878 H   0  0  0  0  0  0  0  0  0  0  0  0
    8.6454   -1.7093    0.3494 H   0  0  0  0  0  0  0  0  0  0  0  0
    7.0610   -3.5859   -0.0029 H   0  0  0  0  0  0  0  0  0  0  0  0
    4.6602   -3.1451   -0.2981 H   0  0  0  0  0  0  0  0  0  0  0  0
    2.5695   -2.3219   -0.6715 H   0  0  0  0  0  0  0  0  0  0  0  0
   -2.4559    2.4490    1.3178 H   0  0  0  0  0  0  0  0  0  0  0  0
   -5.5470    3.6782    2.7362 H   0  0  0  0  0  0  0  0  0  0  0  0
   -4.2651    3.8985    1.5399 H   0  0  0  0  0  0  0  0  0  0  0  0
   -3.9635    2.9614    3.0562 H   0  0  0  0  0  0  0  0  0  0  0  0
   -7.8103   -0.0461   -0.4036 H   0  0  0  0  0  0  0  0  0  0  0  0
   -6.7264    1.3473   -0.5367 H   0  0  0  0  0  0  0  0  0  0  0  0
   -6.4208   -0.1404   -1.4971 H   0  0  0  0  0  0  0  0  0  0  0  0
  1  2  1  0
  2  3  1  0
  3  4  2  0
  4  5  1  0
  5  6  1  0
  6  7  1  0
  7  8  2  0
  8  9  1  0
  9 10  1  0
 10 11  2  0
 10 12  1  0
 12 13  1  0
 13 14  2  0
 14 15  1  0
 15 16  2  0
 16 17  1  0
 17 18  2  0
 18 19  1  0
 19 20  1  0
  8 21  1  0
 21 22  1  0
  5 23  2  0
 23 24  1  0
 24 25  1  0
 25 26  1  0
 24 27  2  0
 27 28  1  0
 28 29  1  0
 27  3  1  0
 22  6  2  0
 19  9  1  0
 18 13  1  0
  1 30  1  0
  1 31  1  0
  1 32  1  0
  4 33  1  0
  7 34  1  0
 12 35  1  0
 14 36  1  0
 15 37  1  0
 16 38  1  0
 17 39  1  0
 20 40  1  0
 23 41  1  0
 26 42  1  0
 26 43  1  0
 26 44  1  0
 29 45  1  0
 29 46  1  0
 29 47  1  0
M  END
$$$$
