
     RDKit          3D

 39 41  0  0  0  0  0  0  0  0999 V2000
   -4.4551   -2.1730    2.1679 C   0  0  0  0  0  0  0  0  0  0  0  0
   -3.7794   -1.1363    1.3110 C   0  0  0  0  0  0  0  0  0  0  0  0
   -2.4147   -0.8656    1.5108 C   0  0  0  0  0  0  0  0  0  0  0  0
   -1.7598    0.0895    0.7349 C   0  0  0  0  0  0  0  0  0  0  0  0
   -0.4279    0.2969    0.9873 O   0  0  0  0  0  0  0  0  0  0  0  0
    0.2492    1.2315    0.2197 C   0  0  0  0  0  0  0  0  0  0  0  0
    1.6903    1.4416    0.5638 C   0  0  0  0  0  0  0  0  0  0  0  0
    2.0766    1.3659    1.7251 O   0  0  0  0  0  0  0  0  0  0  0  0
    2.5254    1.6579   -0.5081 N   0  0  0  0  0  0  0  0  0  0  0  0
    3.9604    1.7169   -0.3415 C   0  0  0  0  0  0  0  0  0  0  0  0
    4.5884    0.3851   -0.6501 C   0  0  0  0  0  0  0  0  0  0  0  0
    5.1506    0.1241   -1.9028 C   0  0  0  0  0  0  0  0  0  0  0  0
    5.6933   -1.1300   -2.1383 C   0  0  0  0  0  0  0  0  0  0  0  0
    5.7069   -2.1265   -1.2283 N   0  0  0  0  0  0  0  0  0  0  0  0
    5.1535   -1.8573   -0.0266 C   0  0  0  0  0  0  0  0  0  0  0  0
    4.5887   -0.6365    0.3047 C   0  0  0  0  0  0  0  0  0  0  0  0
   -0.3186    1.9815   -0.7353 C   0  0  0  0  0  0  0  0  0  0  0  0
   -1.7429    1.7858   -1.0439 C   0  0  0  0  0  0  0  0  0  0  0  0
   -2.2825    2.4326   -1.9313 O   0  0  0  0  0  0  0  0  0  0  0  0
   -2.4601    0.7826   -0.2438 C   0  0  0  0  0  0  0  0  0  0  0  0
   -3.8171    0.5290   -0.4592 C   0  0  0  0  0  0  0  0  0  0  0  0
   -4.4888   -0.4313    0.3145 C   0  0  0  0  0  0  0  0  0  0  0  0
   -5.9509   -0.6850    0.0641 C   0  0  0  0  0  0  0  0  0  0  0  0
   -3.7569   -2.6207    2.8830 H   0  0  0  0  0  0  0  0  0  0  0  0
   -5.2692   -1.7194    2.7419 H   0  0  0  0  0  0  0  0  0  0  0  0
   -4.8517   -2.9811    1.5453 H   0  0  0  0  0  0  0  0  0  0  0  0
   -1.8547   -1.3994    2.2762 H   0  0  0  0  0  0  0  0  0  0  0  0
    2.1805    1.4935   -1.4435 H   0  0  0  0  0  0  0  0  0  0  0  0
    4.3342    2.4840   -1.0286 H   0  0  0  0  0  0  0  0  0  0  0  0
    4.2229    2.0356    0.6736 H   0  0  0  0  0  0  0  0  0  0  0  0
    5.1724    0.8764   -2.6839 H   0  0  0  0  0  0  0  0  0  0  0  0
    6.1441   -1.3741   -3.0961 H   0  0  0  0  0  0  0  0  0  0  0  0
    5.1737   -2.6755    0.6876 H   0  0  0  0  0  0  0  0  0  0  0  0
    4.1524   -0.4867    1.2885 H   0  0  0  0  0  0  0  0  0  0  0  0
    0.1970    2.7479   -1.2985 H   0  0  0  0  0  0  0  0  0  0  0  0
   -4.3483    1.0837   -1.2312 H   0  0  0  0  0  0  0  0  0  0  0  0
   -6.1112   -1.7274   -0.2285 H   0  0  0  0  0  0  0  0  0  0  0  0
   -6.3360   -0.0532   -0.7434 H   0  0  0  0  0  0  0  0  0  0  0  0
   -6.5344   -0.4629    0.9630 H   0  0  0  0  0  0  0  0  0  0  0  0
  1  2  1  0
  2  3  2  0
  3  4  1  0
  4  5  1  0
  5  6  1  0
  6  7  1  0
  7  8  2  0
  7  9  1  0
  9 10  1  0
 10 11  1  0
 11 12  2  0
 12 13  1  0
 13 14  2  0
 14 15  1  0
 15 16  2  0
  6 17  2  0
 17 18  1  0
 18 19  2  0
 18 20  1  0
 20 21  1  0
 21 22  2  0
 22 23  1  0
 22  2  1  0
 20  4  2  0
 16 11  1  0
  1 24  1  0
  1 25  1  0
  1 26  1  0
  3 27  1  0
  9 28  1  0
 10 29  1  0
 10 30  1  0
 12 31  1  0
 13 32  1  0
 15 33  1  0
 16 34  1  0
 17 35  1  0
 21 36  1  0
 23 37  1  0
 23 38  1  0
 23 39  1  0
M  END
$$$$
