
     RDKit          3D

 55 57  0  0  0  0  0  0  0  0999 V2000
   -6.6325   -0.2775    1.1144 C   0  0  0  0  0  0  0  0  0  0  0  0
   -5.6435    0.4160    0.1524 C   0  0  0  0  0  0  0  0  0  0  0  0
   -6.3992    0.8617   -1.1184 C   0  0  0  0  0  0  0  0  0  0  0  0
   -5.1450    1.6975    0.8583 C   0  0  0  0  0  0  0  0  0  0  0  0
   -4.5214   -0.5669   -0.2319 C   0  0  0  0  0  0  0  0  0  0  0  0
   -4.8359   -1.7749   -0.8812 C   0  0  0  0  0  0  0  0  0  0  0  0
   -3.8420   -2.6840   -1.2414 C   0  0  0  0  0  0  0  0  0  0  0  0
   -2.5074   -2.4049   -0.9594 C   0  0  0  0  0  0  0  0  0  0  0  0
   -2.1538   -1.2160   -0.3151 C   0  0  0  0  0  0  0  0  0  0  0  0
   -0.7798   -1.0091   -0.0671 N   0  0  0  0  0  0  0  0  0  0  0  0
   -0.1808    0.0750    0.5541 C   0  0  0  0  0  0  0  0  0  0  0  0
   -0.7466    1.0530    1.0278 O   0  0  0  0  0  0  0  0  0  0  0  0
    1.3310   -0.0952    0.6279 C   0  0  0  0  0  0  0  0  0  0  0  0
    2.0687    1.1800    1.0796 C   0  0  0  0  0  0  0  0  0  0  0  0
    2.0542    2.2908    0.0153 C   0  0  0  0  0  0  0  0  0  0  0  0
    2.9569    1.9676   -1.1723 C   0  0  0  0  0  0  0  0  0  0  0  0
    4.3641    1.5750   -0.7279 C   0  0  0  0  0  0  0  0  0  0  0  0
    4.3040    0.4813    0.2644 N   0  0  0  0  0  0  0  0  0  0  0  0
    5.3403   -0.4614    0.3660 C   0  0  0  0  0  0  0  0  0  0  0  0
    5.0862   -1.7511    1.0840 C   0  0  0  0  0  0  0  0  0  0  0  0
    5.9286   -2.7154    1.2808 N   0  0  0  0  0  0  0  0  0  0  0  0
    7.1742   -2.5297    0.7621 N   0  0  0  0  0  0  0  0  0  0  0  0
    7.5733   -1.4463    0.0267 C   0  0  0  0  0  0  0  0  0  0  0  0
    8.6960   -1.3387   -0.4546 O   0  0  0  0  0  0  0  0  0  0  0  0
    6.5701   -0.3810   -0.1598 C   0  0  0  0  0  0  0  0  0  0  0  0
    3.5193    0.8561    1.4629 C   0  0  0  0  0  0  0  0  0  0  0  0
   -3.1617   -0.3109    0.0409 C   0  0  0  0  0  0  0  0  0  0  0  0
   -7.1251   -1.1400    0.6524 H   0  0  0  0  0  0  0  0  0  0  0  0
   -6.1206   -0.6348    2.0159 H   0  0  0  0  0  0  0  0  0  0  0  0
   -7.4244    0.4112    1.4314 H   0  0  0  0  0  0  0  0  0  0  0  0
   -6.8870    0.0229   -1.6268 H   0  0  0  0  0  0  0  0  0  0  0  0
   -5.7180    1.3314   -1.8378 H   0  0  0  0  0  0  0  0  0  0  0  0
   -7.1832    1.5892   -0.8774 H   0  0  0  0  0  0  0  0  0  0  0  0
   -4.4615    2.2700    0.2204 H   0  0  0  0  0  0  0  0  0  0  0  0
   -4.6260    1.4663    1.7958 H   0  0  0  0  0  0  0  0  0  0  0  0
   -5.9815    2.3609    1.1094 H   0  0  0  0  0  0  0  0  0  0  0  0
   -5.8684   -2.0245   -1.1163 H   0  0  0  0  0  0  0  0  0  0  0  0
   -4.1111   -3.6103   -1.7422 H   0  0  0  0  0  0  0  0  0  0  0  0
   -1.7531   -3.1304   -1.2508 H   0  0  0  0  0  0  0  0  0  0  0  0
   -0.1633   -1.7465   -0.3847 H   0  0  0  0  0  0  0  0  0  0  0  0
    1.6997   -0.4416   -0.3437 H   0  0  0  0  0  0  0  0  0  0  0  0
    1.5152   -0.8979    1.3536 H   0  0  0  0  0  0  0  0  0  0  0  0
    1.5691    1.5678    1.9772 H   0  0  0  0  0  0  0  0  0  0  0  0
    1.0364    2.4857   -0.3392 H   0  0  0  0  0  0  0  0  0  0  0  0
    2.4044    3.2233    0.4770 H   0  0  0  0  0  0  0  0  0  0  0  0
    3.0121    2.8361   -1.8387 H   0  0  0  0  0  0  0  0  0  0  0  0
    2.5170    1.1520   -1.7582 H   0  0  0  0  0  0  0  0  0  0  0  0
    4.9178    1.2631   -1.6212 H   0  0  0  0  0  0  0  0  0  0  0  0
    4.8877    2.4372   -0.2972 H   0  0  0  0  0  0  0  0  0  0  0  0
    4.0616   -1.8933    1.4613 H   0  0  0  0  0  0  0  0  0  0  0  0
    7.8441   -3.2793    0.8990 H   0  0  0  0  0  0  0  0  0  0  0  0
    6.9152    0.4760   -0.7205 H   0  0  0  0  0  0  0  0  0  0  0  0
    3.9864    1.7332    1.9303 H   0  0  0  0  0  0  0  0  0  0  0  0
    3.5274    0.0696    2.2250 H   0  0  0  0  0  0  0  0  0  0  0  0
   -2.8883    0.6114    0.5392 H   0  0  0  0  0  0  0  0  0  0  0  0
  1  2  1  0
  2  3  1  0
  2  4  1  0
  2  5  1  0
  5  6  2  0
  6  7  1  0
  7  8  2  0
  8  9  1  0
  9 10  1  0
 10 11  1  0
 11 12  2  0
 11 13  1  0
 13 14  1  0
 14 15  1  0
 15 16  1  0
 16 17  1  0
 17 18  1  0
 18 19  1  0
 19 20  1  0
 20 21  2  0
 21 22  1  0
 22 23  1  0
 23 24  2  0
 23 25  1  0
 18 26  1  0
  9 27  2  0
 27  5  1  0
 26 14  1  0
 25 19  2  0
  1 28  1  0
  1 29  1  0
  1 30  1  0
  3 31  1  0
  3 32  1  0
  3 33  1  0
  4 34  1  0
  4 35  1  0
  4 36  1  0
  6 37  1  0
  7 38  1  0
  8 39  1  0
 10 40  1  0
 13 41  1  0
 13 42  1  0
 14 43  1  0
 15 44  1  0
 15 45  1  0
 16 46  1  0
 16 47  1  0
 17 48  1  0
 17 49  1  0
 20 50  1  0
 22 51  1  0
 25 52  1  0
 26 53  1  0
 26 54  1  0
 27 55  1  0
M  END
$$$$
