
     RDKit          3D

 63 66  0  0  0  0  0  0  0  0999 V2000
   -6.8386    0.8540    2.8022 C   0  0  0  0  0  0  0  0  0  0  0  0
   -7.1360    0.5210    1.3426 C   0  0  0  0  0  0  0  0  0  0  0  0
   -6.3852    1.3444    0.3799 N   0  0  0  0  0  0  0  0  0  0  0  0
   -6.7811    1.0579   -1.0111 C   0  0  0  0  0  0  0  0  0  0  0  0
   -8.1780    1.5705   -1.3480 C   0  0  0  0  0  0  0  0  0  0  0  0
   -4.9201    1.2637    0.5380 C   0  0  0  0  0  0  0  0  0  0  0  0
   -4.2684   -0.1222    0.3796 C   0  0  0  0  0  0  0  0  0  0  0  0
   -2.8256   -0.0643    0.5584 N   0  0  0  0  0  0  0  0  0  0  0  0
   -2.0235   -1.0965    0.1197 C   0  0  0  0  0  0  0  0  0  0  0  0
   -2.4318   -2.0340   -0.5558 O   0  0  0  0  0  0  0  0  0  0  0  0
   -0.5702   -0.9229    0.5005 C   0  0  0  0  0  0  0  0  0  0  0  0
    0.2269   -2.2004    0.2530 C   0  0  0  0  0  0  0  0  0  0  0  0
    1.6844   -1.9686    0.4378 C   0  0  0  0  0  0  0  0  0  0  0  0
    2.2893   -2.1485    1.5974 N   0  0  0  0  0  0  0  0  0  0  0  0
    3.6204   -1.9039    1.4354 N   0  0  0  0  0  0  0  0  0  0  0  0
    3.8199   -1.5646    0.1833 C   0  0  0  0  0  0  0  0  0  0  0  0
    5.0308   -1.2487   -0.4056 N   0  0  0  0  0  0  0  0  0  0  0  0
    6.2663   -1.2250    0.3684 C   0  0  0  0  0  0  0  0  0  0  0  0
    6.5032    0.1207    1.0202 C   0  0  0  0  0  0  0  0  0  0  0  0
    6.0194    0.3810    2.3127 C   0  0  0  0  0  0  0  0  0  0  0  0
    6.2191    1.6295    2.9035 C   0  0  0  0  0  0  0  0  0  0  0  0
    6.8966    2.6194    2.2023 C   0  0  0  0  0  0  0  0  0  0  0  0
    7.0850    3.8183    2.7694 F   0  0  0  0  0  0  0  0  0  0  0  0
    7.3766    2.3861    0.9194 C   0  0  0  0  0  0  0  0  0  0  0  0
    7.1780    1.1385    0.3264 C   0  0  0  0  0  0  0  0  0  0  0  0
    5.0601   -0.9103   -1.7517 C   0  0  0  0  0  0  0  0  0  0  0  0
    6.0951   -0.6367   -2.3564 O   0  0  0  0  0  0  0  0  0  0  0  0
    3.7646   -0.8733   -2.4910 C   0  0  0  0  0  0  0  0  0  0  0  0
    3.7798   -0.5005   -3.8436 C   0  0  0  0  0  0  0  0  0  0  0  0
    2.5920   -0.4351   -4.5669 C   0  0  0  0  0  0  0  0  0  0  0  0
    1.3864   -0.7356   -3.9406 C   0  0  0  0  0  0  0  0  0  0  0  0
    1.3587   -1.1090   -2.5922 C   0  0  0  0  0  0  0  0  0  0  0  0
    2.5484   -1.1890   -1.8619 C   0  0  0  0  0  0  0  0  0  0  0  0
    2.6197   -1.5607   -0.5019 N   0  0  0  0  0  0  0  0  0  0  0  0
   -5.8260    0.5572    3.0915 H   0  0  0  0  0  0  0  0  0  0  0  0
   -7.5345    0.3164    3.4551 H   0  0  0  0  0  0  0  0  0  0  0  0
   -6.9588    1.9250    2.9957 H   0  0  0  0  0  0  0  0  0  0  0  0
   -8.2095    0.6911    1.2061 H   0  0  0  0  0  0  0  0  0  0  0  0
   -6.9645   -0.5483    1.1707 H   0  0  0  0  0  0  0  0  0  0  0  0
   -6.7195   -0.0148   -1.2312 H   0  0  0  0  0  0  0  0  0  0  0  0
   -6.0908    1.5640   -1.6980 H   0  0  0  0  0  0  0  0  0  0  0  0
   -8.9592    1.0085   -0.8283 H   0  0  0  0  0  0  0  0  0  0  0  0
   -8.2821    2.6302   -1.0923 H   0  0  0  0  0  0  0  0  0  0  0  0
   -8.3622    1.4667   -2.4227 H   0  0  0  0  0  0  0  0  0  0  0  0
   -4.4525    1.9539   -0.1780 H   0  0  0  0  0  0  0  0  0  0  0  0
   -4.6412    1.6811    1.5138 H   0  0  0  0  0  0  0  0  0  0  0  0
   -4.6476   -0.8254    1.1283 H   0  0  0  0  0  0  0  0  0  0  0  0
   -4.4788   -0.5399   -0.6106 H   0  0  0  0  0  0  0  0  0  0  0  0
   -2.4711    0.5178    1.3081 H   0  0  0  0  0  0  0  0  0  0  0  0
   -0.1708   -0.0879   -0.0874 H   0  0  0  0  0  0  0  0  0  0  0  0
   -0.5048   -0.6436    1.5594 H   0  0  0  0  0  0  0  0  0  0  0  0
   -0.0972   -2.9525    0.9859 H   0  0  0  0  0  0  0  0  0  0  0  0
    0.0183   -2.6642   -0.7142 H   0  0  0  0  0  0  0  0  0  0  0  0
    7.1158   -1.4671   -0.2824 H   0  0  0  0  0  0  0  0  0  0  0  0
    6.2387   -2.0176    1.1268 H   0  0  0  0  0  0  0  0  0  0  0  0
    5.4776   -0.3875    2.8623 H   0  0  0  0  0  0  0  0  0  0  0  0
    5.8473    1.8351    3.9020 H   0  0  0  0  0  0  0  0  0  0  0  0
    7.8984    3.1752    0.3879 H   0  0  0  0  0  0  0  0  0  0  0  0
    7.5475    0.9627   -0.6830 H   0  0  0  0  0  0  0  0  0  0  0  0
    4.7189   -0.2565   -4.3382 H   0  0  0  0  0  0  0  0  0  0  0  0
    2.6074   -0.1454   -5.6151 H   0  0  0  0  0  0  0  0  0  0  0  0
    0.4569   -0.6779   -4.5048 H   0  0  0  0  0  0  0  0  0  0  0  0
    0.3818   -1.3112   -2.1752 H   0  0  0  0  0  0  0  0  0  0  0  0
  1  2  1  0
  2  3  1  0
  3  4  1  0
  4  5  1  0
  3  6  1  0
  6  7  1  0
  7  8  1  0
  8  9  1  0
  9 10  2  0
  9 11  1  0
 11 12  1  0
 12 13  1  0
 13 14  2  0
 14 15  1  0
 15 16  2  0
 16 17  1  0
 17 18  1  0
 18 19  1  0
 19 20  2  0
 20 21  1  0
 21 22  2  0
 22 23  1  0
 22 24  1  0
 24 25  2  0
 17 26  1  0
 26 27  2  0
 26 28  1  0
 28 29  2  0
 29 30  1  0
 30 31  2  0
 31 32  1  0
 32 33  2  0
 33 34  1  0
 34 13  1  0
 34 16  1  0
 25 19  1  0
 33 28  1  0
  1 35  1  0
  1 36  1  0
  1 37  1  0
  2 38  1  0
  2 39  1  0
  4 40  1  0
  4 41  1  0
  5 42  1  0
  5 43  1  0
  5 44  1  0
  6 45  1  0
  6 46  1  0
  7 47  1  0
  7 48  1  0
  8 49  1  0
 11 50  1  0
 11 51  1  0
 12 52  1  0
 12 53  1  0
 18 54  1  0
 18 55  1  0
 20 56  1  0
 21 57  1  0
 24 58  1  0
 25 59  1  0
 29 60  1  0
 30 61  1  0
 31 62  1  0
 32 63  1  0
M  END
$$$$
