
     RDKit          3D

 38 40  0  0  0  0  0  0  0  0999 V2000
    5.1015    1.7044   -1.6329 C   0  0  0  0  0  0  0  0  0  0  0  0
    5.7077    1.3335   -0.4009 O   0  0  0  0  0  0  0  0  0  0  0  0
    4.9103    0.7074    0.5178 C   0  0  0  0  0  0  0  0  0  0  0  0
    5.5477    0.3851    1.7177 C   0  0  0  0  0  0  0  0  0  0  0  0
    4.8520   -0.2546    2.7424 C   0  0  0  0  0  0  0  0  0  0  0  0
    3.5062   -0.5785    2.5708 C   0  0  0  0  0  0  0  0  0  0  0  0
    2.8470   -0.2657    1.3728 C   0  0  0  0  0  0  0  0  0  0  0  0
    1.4391   -0.6014    1.1806 C   0  0  0  0  0  0  0  0  0  0  0  0
    0.6743   -1.1996    2.1092 N   0  0  0  0  0  0  0  0  0  0  0  0
   -0.5709   -1.3093    1.4972 O   0  0  0  0  0  0  0  0  0  0  0  0
   -0.4407   -0.7750    0.2487 C   0  0  0  0  0  0  0  0  0  0  0  0
   -1.6630   -0.7996   -0.6102 C   0  0  0  0  0  0  0  0  0  0  0  0
   -1.2903   -0.7229   -2.0886 C   0  0  0  0  0  0  0  0  0  0  0  0
   -2.4260    0.3532   -0.2408 O   0  0  0  0  0  0  0  0  0  0  0  0
   -3.7883    0.3063   -0.3296 C   0  0  0  0  0  0  0  0  0  0  0  0
   -4.5481   -0.6926   -0.9385 C   0  0  0  0  0  0  0  0  0  0  0  0
   -5.9442   -0.6008   -0.9568 C   0  0  0  0  0  0  0  0  0  0  0  0
   -6.5858    0.4892   -0.3718 C   0  0  0  0  0  0  0  0  0  0  0  0
   -5.8326    1.4929    0.2303 C   0  0  0  0  0  0  0  0  0  0  0  0
   -4.4400    1.4004    0.2475 C   0  0  0  0  0  0  0  0  0  0  0  0
    0.7741   -0.3346    0.0013 N   0  0  0  0  0  0  0  0  0  0  0  0
    3.5627    0.3806    0.3490 C   0  0  0  0  0  0  0  0  0  0  0  0
    4.7531    0.8235   -2.1821 H   0  0  0  0  0  0  0  0  0  0  0  0
    4.2880    2.4199   -1.4735 H   0  0  0  0  0  0  0  0  0  0  0  0
    5.8631    2.1977   -2.2446 H   0  0  0  0  0  0  0  0  0  0  0  0
    6.5968    0.6371    1.8542 H   0  0  0  0  0  0  0  0  0  0  0  0
    5.3576   -0.4994    3.6728 H   0  0  0  0  0  0  0  0  0  0  0  0
    2.9772   -1.0771    3.3809 H   0  0  0  0  0  0  0  0  0  0  0  0
   -2.1959   -1.7331   -0.3931 H   0  0  0  0  0  0  0  0  0  0  0  0
   -0.6428   -1.5566   -2.3800 H   0  0  0  0  0  0  0  0  0  0  0  0
   -0.7691    0.2142   -2.3176 H   0  0  0  0  0  0  0  0  0  0  0  0
   -2.1820   -0.7431   -2.7227 H   0  0  0  0  0  0  0  0  0  0  0  0
   -4.0968   -1.5528   -1.4199 H   0  0  0  0  0  0  0  0  0  0  0  0
   -6.5324   -1.3818   -1.4327 H   0  0  0  0  0  0  0  0  0  0  0  0
   -7.6704    0.5574   -0.3881 H   0  0  0  0  0  0  0  0  0  0  0  0
   -6.3254    2.3475    0.6861 H   0  0  0  0  0  0  0  0  0  0  0  0
   -3.8565    2.1880    0.7190 H   0  0  0  0  0  0  0  0  0  0  0  0
    3.0429    0.6197   -0.5739 H   0  0  0  0  0  0  0  0  0  0  0  0
  1  2  1  0
  2  3  1  0
  3  4  2  0
  4  5  1  0
  5  6  2  0
  6  7  1  0
  7  8  1  0
  8  9  2  0
  9 10  1  0
 10 11  1  0
 11 12  1  0
 12 13  1  0
 12 14  1  0
 14 15  1  0
 15 16  2  0
 16 17  1  0
 17 18  2  0
 18 19  1  0
 19 20  2  0
 11 21  2  0
  7 22  2  0
 22  3  1  0
 21  8  1  0
 20 15  1  0
  1 23  1  0
  1 24  1  0
  1 25  1  0
  4 26  1  0
  5 27  1  0
  6 28  1  0
 12 29  1  0
 13 30  1  0
 13 31  1  0
 13 32  1  0
 16 33  1  0
 17 34  1  0
 18 35  1  0
 19 36  1  0
 20 37  1  0
 22 38  1  0
M  END
$$$$
