
     RDKit          3D

 35 36  0  0  0  0  0  0  0  0999 V2000
   -5.3230    1.7734   -0.1654 C   0  0  0  0  0  0  0  0  0  0  0  0
   -4.8977    0.6766    0.6331 O   0  0  0  0  0  0  0  0  0  0  0  0
   -3.7625    0.0257    0.2359 C   0  0  0  0  0  0  0  0  0  0  0  0
   -2.9784    0.3433   -0.8728 C   0  0  0  0  0  0  0  0  0  0  0  0
   -1.8351   -0.4088   -1.1659 C   0  0  0  0  0  0  0  0  0  0  0  0
   -1.4613   -1.4869   -0.3531 C   0  0  0  0  0  0  0  0  0  0  0  0
   -0.2191   -2.2905   -0.6602 C   0  0  0  0  0  0  0  0  0  0  0  0
    0.9163   -2.1318    0.3391 C   0  0  0  0  0  0  0  0  0  0  0  0
    1.6564   -3.0718    0.6245 O   0  0  0  0  0  0  0  0  0  0  0  0
    1.0964   -0.8658    0.8415 N   0  0  0  0  0  0  0  0  0  0  0  0
    2.2498   -0.5190    1.6381 C   0  0  0  0  0  0  0  0  0  0  0  0
    3.2890    0.0499    0.7277 C   0  0  0  0  0  0  0  0  0  0  0  0
    4.4358   -0.5873    0.2920 C   0  0  0  0  0  0  0  0  0  0  0  0
    5.3229    0.4398   -0.7507 S   0  0  0  0  0  0  0  0  0  0  0  0
    4.1204    1.6525   -0.5610 C   0  0  0  0  0  0  0  0  0  0  0  0
    4.2631    2.9569   -1.2624 C   0  0  0  0  0  0  0  0  0  0  0  0
    3.1112    1.3338    0.2212 N   0  0  0  0  0  0  0  0  0  0  0  0
   -2.2533   -1.8031    0.7568 C   0  0  0  0  0  0  0  0  0  0  0  0
   -3.3930   -1.0499    1.0459 C   0  0  0  0  0  0  0  0  0  0  0  0
   -4.5750    2.5731   -0.1684 H   0  0  0  0  0  0  0  0  0  0  0  0
   -6.2383    2.1757    0.2797 H   0  0  0  0  0  0  0  0  0  0  0  0
   -5.5623    1.4512   -1.1842 H   0  0  0  0  0  0  0  0  0  0  0  0
   -3.2278    1.1686   -1.5312 H   0  0  0  0  0  0  0  0  0  0  0  0
   -1.2400   -0.1430   -2.0375 H   0  0  0  0  0  0  0  0  0  0  0  0
    0.1756   -2.0281   -1.6491 H   0  0  0  0  0  0  0  0  0  0  0  0
   -0.4966   -3.3512   -0.7003 H   0  0  0  0  0  0  0  0  0  0  0  0
    0.5933   -0.0931    0.4234 H   0  0  0  0  0  0  0  0  0  0  0  0
    2.6255   -1.3930    2.1795 H   0  0  0  0  0  0  0  0  0  0  0  0
    1.9347    0.2345    2.3668 H   0  0  0  0  0  0  0  0  0  0  0  0
    4.7762   -1.5861    0.5281 H   0  0  0  0  0  0  0  0  0  0  0  0
    4.2989    2.8141   -2.3470 H   0  0  0  0  0  0  0  0  0  0  0  0
    3.4117    3.6071   -1.0369 H   0  0  0  0  0  0  0  0  0  0  0  0
    5.1746    3.4726   -0.9441 H   0  0  0  0  0  0  0  0  0  0  0  0
   -1.9888   -2.6353    1.4064 H   0  0  0  0  0  0  0  0  0  0  0  0
   -3.9996   -1.3041    1.9119 H   0  0  0  0  0  0  0  0  0  0  0  0
  1  2  1  0
  2  3  1  0
  3  4  2  0
  4  5  1  0
  5  6  2  0
  6  7  1  0
  7  8  1  0
  8  9  2  0
  8 10  1  0
 10 11  1  0
 11 12  1  0
 12 13  2  0
 13 14  1  0
 14 15  1  0
 15 16  1  0
 15 17  2  0
  6 18  1  0
 18 19  2  0
 19  3  1  0
 17 12  1  0
  1 20  1  0
  1 21  1  0
  1 22  1  0
  4 23  1  0
  5 24  1  0
  7 25  1  0
  7 26  1  0
 10 27  1  0
 11 28  1  0
 11 29  1  0
 13 30  1  0
 16 31  1  0
 16 32  1  0
 16 33  1  0
 18 34  1  0
 19 35  1  0
M  END
$$$$
