
     RDKit          3D

 46 48  0  0  0  0  0  0  0  0999 V2000
   -6.7598    1.1372    1.3398 C   0  0  0  0  0  0  0  0  0  0  0  0
   -5.4076    0.6315    0.9189 C   0  0  0  0  0  0  0  0  0  0  0  0
   -4.2649    1.0831    1.5932 C   0  0  0  0  0  0  0  0  0  0  0  0
   -2.9897    0.6378    1.2310 C   0  0  0  0  0  0  0  0  0  0  0  0
   -2.8307   -0.2729    0.1903 C   0  0  0  0  0  0  0  0  0  0  0  0
   -1.5801   -0.7605   -0.2459 N   0  0  0  0  0  0  0  0  0  0  0  0
   -0.3596   -0.6157    0.3765 C   0  0  0  0  0  0  0  0  0  0  0  0
   -0.2018   -0.1489    1.5015 O   0  0  0  0  0  0  0  0  0  0  0  0
    0.7274   -1.0634   -0.3765 N   0  0  0  0  0  0  0  0  0  0  0  0
    0.6698   -1.4979   -1.7673 C   0  0  0  0  0  0  0  0  0  0  0  0
    2.0306   -1.1423    0.2843 C   0  0  0  0  0  0  0  0  0  0  0  0
    2.9251    0.0464   -0.0047 C   0  0  0  0  0  0  0  0  0  0  0  0
    2.5095    1.1670   -0.6271 C   0  0  0  0  0  0  0  0  0  0  0  0
    3.4059    2.3034   -0.9279 C   0  0  0  0  0  0  0  0  0  0  0  0
    2.9933    3.2942   -1.5206 O   0  0  0  0  0  0  0  0  0  0  0  0
    4.7033    2.1801   -0.5295 N   0  0  0  0  0  0  0  0  0  0  0  0
    5.2002    1.0605    0.1446 C   0  0  0  0  0  0  0  0  0  0  0  0
    6.5453    1.0496    0.5243 C   0  0  0  0  0  0  0  0  0  0  0  0
    7.0619   -0.0477    1.2081 C   0  0  0  0  0  0  0  0  0  0  0  0
    6.2343   -1.1250    1.5121 C   0  0  0  0  0  0  0  0  0  0  0  0
    4.8883   -1.1116    1.1290 C   0  0  0  0  0  0  0  0  0  0  0  0
    4.3470   -0.0205    0.4313 C   0  0  0  0  0  0  0  0  0  0  0  0
   -3.9690   -0.7189   -0.4949 C   0  0  0  0  0  0  0  0  0  0  0  0
   -5.2582   -0.2793   -0.1428 C   0  0  0  0  0  0  0  0  0  0  0  0
   -6.4477   -0.7934   -0.9067 C   0  0  0  0  0  0  0  0  0  0  0  0
   -7.2312    1.6884    0.5200 H   0  0  0  0  0  0  0  0  0  0  0  0
   -6.6867    1.8164    2.1959 H   0  0  0  0  0  0  0  0  0  0  0  0
   -7.4030    0.3030    1.6373 H   0  0  0  0  0  0  0  0  0  0  0  0
   -4.3530    1.7937    2.4126 H   0  0  0  0  0  0  0  0  0  0  0  0
   -2.1394    1.0316    1.7790 H   0  0  0  0  0  0  0  0  0  0  0  0
   -1.6157   -1.4307   -0.9951 H   0  0  0  0  0  0  0  0  0  0  0  0
    0.4525   -2.5696   -1.7839 H   0  0  0  0  0  0  0  0  0  0  0  0
   -0.1054   -0.9573   -2.3164 H   0  0  0  0  0  0  0  0  0  0  0  0
    1.6283   -1.3143   -2.2615 H   0  0  0  0  0  0  0  0  0  0  0  0
    2.4985   -2.0707   -0.0658 H   0  0  0  0  0  0  0  0  0  0  0  0
    1.8931   -1.2365    1.3680 H   0  0  0  0  0  0  0  0  0  0  0  0
    1.4868    1.3132   -0.9532 H   0  0  0  0  0  0  0  0  0  0  0  0
    5.3039    2.9658   -0.7357 H   0  0  0  0  0  0  0  0  0  0  0  0
    7.1953    1.8899    0.2973 H   0  0  0  0  0  0  0  0  0  0  0  0
    8.1063   -0.0604    1.5093 H   0  0  0  0  0  0  0  0  0  0  0  0
    6.6340   -1.9791    2.0541 H   0  0  0  0  0  0  0  0  0  0  0  0
    4.2815   -1.9709    1.4004 H   0  0  0  0  0  0  0  0  0  0  0  0
   -3.8616   -1.4223   -1.3172 H   0  0  0  0  0  0  0  0  0  0  0  0
   -7.1191   -1.3429   -0.2394 H   0  0  0  0  0  0  0  0  0  0  0  0
   -6.9905    0.0366   -1.3699 H   0  0  0  0  0  0  0  0  0  0  0  0
   -6.1471   -1.4768   -1.7081 H   0  0  0  0  0  0  0  0  0  0  0  0
  1  2  1  0
  2  3  2  0
  3  4  1  0
  4  5  2  0
  5  6  1  0
  6  7  1  0
  7  8  2  0
  7  9  1  0
  9 10  1  0
  9 11  1  0
 11 12  1  0
 12 13  2  0
 13 14  1  0
 14 15  2  0
 14 16  1  0
 16 17  1  0
 17 18  2  0
 18 19  1  0
 19 20  2  0
 20 21  1  0
 21 22  2  0
  5 23  1  0
 23 24  2  0
 24 25  1  0
 24  2  1  0
 22 12  1  0
 22 17  1  0
  1 26  1  0
  1 27  1  0
  1 28  1  0
  3 29  1  0
  4 30  1  0
  6 31  1  0
 10 32  1  0
 10 33  1  0
 10 34  1  0
 11 35  1  0
 11 36  1  0
 13 37  1  0
 16 38  1  0
 18 39  1  0
 19 40  1  0
 20 41  1  0
 21 42  1  0
 23 43  1  0
 25 44  1  0
 25 45  1  0
 25 46  1  0
M  END
$$$$
