
     RDKit          3D

 29 31  0  0  0  0  0  0  0  0999 V2000
    4.8301    1.6099    0.1456 N   0  0  0  0  0  0  0  0  0  0  0  0
    5.3543    0.5475   -0.5368 C   0  0  0  0  0  0  0  0  0  0  0  0
    5.8770    0.7082   -1.6351 O   0  0  0  0  0  0  0  0  0  0  0  0
    5.2410   -0.7998    0.1505 C   0  0  0  0  0  0  0  0  0  0  0  0
    3.9146   -1.7873   -0.5943 S   0  0  0  0  0  0  0  0  0  0  0  0
    2.5148   -0.9200   -0.0488 C   0  0  0  0  0  0  0  0  0  0  0  0
    2.5241    0.0255    0.8683 N   0  0  0  0  0  0  0  0  0  0  0  0
    1.2250    0.4646    0.9944 N   0  0  0  0  0  0  0  0  0  0  0  0
    0.4982   -0.2507    0.1567 C   0  0  0  0  0  0  0  0  0  0  0  0
   -0.9083   -0.1094   -0.0165 C   0  0  0  0  0  0  0  0  0  0  0  0
   -1.8028    0.7353    0.6080 C   0  0  0  0  0  0  0  0  0  0  0  0
   -3.0953    0.4788    0.0725 C   0  0  0  0  0  0  0  0  0  0  0  0
   -4.3766    1.0121    0.3086 C   0  0  0  0  0  0  0  0  0  0  0  0
   -5.4677    0.5171   -0.4151 C   0  0  0  0  0  0  0  0  0  0  0  0
   -5.2952   -0.4922   -1.3603 C   0  0  0  0  0  0  0  0  0  0  0  0
   -4.0324   -1.0373   -1.6118 C   0  0  0  0  0  0  0  0  0  0  0  0
   -2.9527   -0.5308   -0.8793 C   0  0  0  0  0  0  0  0  0  0  0  0
   -1.6187   -0.8683   -0.9129 N   0  0  0  0  0  0  0  0  0  0  0  0
    1.2603   -1.1553   -0.5404 O   0  0  0  0  0  0  0  0  0  0  0  0
    4.0528    1.4513    0.7836 H   0  0  0  0  0  0  0  0  0  0  0  0
    4.7959    2.4795   -0.3724 H   0  0  0  0  0  0  0  0  0  0  0  0
    6.1934   -1.3241    0.0210 H   0  0  0  0  0  0  0  0  0  0  0  0
    5.0841   -0.6803    1.2274 H   0  0  0  0  0  0  0  0  0  0  0  0
   -1.5551    1.4625    1.3712 H   0  0  0  0  0  0  0  0  0  0  0  0
   -4.5202    1.7990    1.0432 H   0  0  0  0  0  0  0  0  0  0  0  0
   -6.4593    0.9260   -0.2364 H   0  0  0  0  0  0  0  0  0  0  0  0
   -6.1566   -0.8625   -1.9120 H   0  0  0  0  0  0  0  0  0  0  0  0
   -3.9034   -1.8230   -2.3490 H   0  0  0  0  0  0  0  0  0  0  0  0
   -1.2211   -1.5760   -1.5155 H   0  0  0  0  0  0  0  0  0  0  0  0
  1  2  1  0
  2  3  2  0
  2  4  1  0
  4  5  1  0
  5  6  1  0
  6  7  2  0
  7  8  1  0
  8  9  2  0
  9 10  1  0
 10 11  2  0
 11 12  1  0
 12 13  2  0
 13 14  1  0
 14 15  2  0
 15 16  1  0
 16 17  2  0
 17 18  1  0
  9 19  1  0
 19  6  1  0
 18 10  1  0
 17 12  1  0
  1 20  1  0
  1 21  1  0
  4 22  1  0
  4 23  1  0
 11 24  1  0
 13 25  1  0
 14 26  1  0
 15 27  1  0
 16 28  1  0
 18 29  1  0
M  END
$$$$
