
     RDKit          3D

 64 67  0  0  0  0  0  0  0  0999 V2000
   -7.5013   -2.7911   -3.2250 C   0  0  0  0  0  0  0  0  0  0  0  0
   -7.0717   -2.8979   -1.8756 O   0  0  0  0  0  0  0  0  0  0  0  0
   -6.3548   -1.8496   -1.3517 C   0  0  0  0  0  0  0  0  0  0  0  0
   -6.1065   -0.6482   -2.0281 C   0  0  0  0  0  0  0  0  0  0  0  0
   -5.3696    0.3729   -1.4241 C   0  0  0  0  0  0  0  0  0  0  0  0
   -5.1403    1.5552   -2.1436 N   0  0  0  0  0  0  0  0  0  0  0  0
   -4.4532    2.4836   -1.5679 C   0  0  0  0  0  0  0  0  0  0  0  0
   -3.9494    2.4089   -0.2921 N   0  0  0  0  0  0  0  0  0  0  0  0
   -3.1775    3.5116    0.2544 C   0  0  0  0  0  0  0  0  0  0  0  0
   -1.7113    3.3442   -0.1440 C   0  0  0  0  0  0  0  0  0  0  0  0
   -1.3676    3.1518   -1.3088 O   0  0  0  0  0  0  0  0  0  0  0  0
   -0.8120    3.4725    0.8927 N   0  0  0  0  0  0  0  0  0  0  0  0
    0.6018    3.2050    0.6693 C   0  0  0  0  0  0  0  0  0  0  0  0
    0.9343    1.7884    1.1604 C   0  0  0  0  0  0  0  0  0  0  0  0
    0.3281    1.3211    2.1295 O   0  0  0  0  0  0  0  0  0  0  0  0
    1.9667    1.1083    0.5374 N   0  0  0  0  0  0  0  0  0  0  0  0
    2.3506   -0.2138    1.0239 C   0  0  0  0  0  0  0  0  0  0  0  0
    3.8706   -0.4714    0.9190 C   0  0  0  0  0  0  0  0  0  0  0  0
    4.5407    0.0896   -0.2763 N   0  0  0  0  0  0  0  0  0  0  0  0
    5.5631   -0.8134   -0.8227 C   0  0  0  0  0  0  0  0  0  0  0  0
    6.7272   -1.0387    0.1199 C   0  0  0  0  0  0  0  0  0  0  0  0
    7.0650   -2.3323    0.5417 C   0  0  0  0  0  0  0  0  0  0  0  0
    8.1466   -2.5378    1.4000 C   0  0  0  0  0  0  0  0  0  0  0  0
    8.9022   -1.4542    1.8433 C   0  0  0  0  0  0  0  0  0  0  0  0
    8.5784   -0.1635    1.4302 C   0  0  0  0  0  0  0  0  0  0  0  0
    7.4979    0.0432    0.5720 C   0  0  0  0  0  0  0  0  0  0  0  0
    3.5714    0.4956   -1.3005 C   0  0  0  0  0  0  0  0  0  0  0  0
    2.5656    1.5185   -0.7356 C   0  0  0  0  0  0  0  0  0  0  0  0
   -4.1127    1.2732    0.4831 C   0  0  0  0  0  0  0  0  0  0  0  0
   -3.6628    1.1541    1.6194 O   0  0  0  0  0  0  0  0  0  0  0  0
   -4.8842    0.1776   -0.1327 C   0  0  0  0  0  0  0  0  0  0  0  0
   -5.1209   -1.0131    0.5632 C   0  0  0  0  0  0  0  0  0  0  0  0
   -5.8599   -2.0321   -0.0424 C   0  0  0  0  0  0  0  0  0  0  0  0
   -6.1492   -3.2362    0.5501 O   0  0  0  0  0  0  0  0  0  0  0  0
   -5.6911   -3.4451    1.8794 C   0  0  0  0  0  0  0  0  0  0  0  0
   -6.6509   -2.6731   -3.9041 H   0  0  0  0  0  0  0  0  0  0  0  0
   -8.2217   -1.9758   -3.3460 H   0  0  0  0  0  0  0  0  0  0  0  0
   -8.0087   -3.7238   -3.4882 H   0  0  0  0  0  0  0  0  0  0  0  0
   -6.4752   -0.4703   -3.0327 H   0  0  0  0  0  0  0  0  0  0  0  0
   -4.2358    3.4247   -2.0989 H   0  0  0  0  0  0  0  0  0  0  0  0
   -3.2852    3.5549    1.3433 H   0  0  0  0  0  0  0  0  0  0  0  0
   -3.5306    4.4602   -0.1659 H   0  0  0  0  0  0  0  0  0  0  0  0
   -1.1448    3.2052    1.8171 H   0  0  0  0  0  0  0  0  0  0  0  0
    1.1709    3.9118    1.2814 H   0  0  0  0  0  0  0  0  0  0  0  0
    0.8492    3.3637   -0.3806 H   0  0  0  0  0  0  0  0  0  0  0  0
    2.0295   -0.3575    2.0608 H   0  0  0  0  0  0  0  0  0  0  0  0
    1.8064   -0.9435    0.4127 H   0  0  0  0  0  0  0  0  0  0  0  0
    4.3549   -0.0221    1.7953 H   0  0  0  0  0  0  0  0  0  0  0  0
    4.0171   -1.5562    0.9997 H   0  0  0  0  0  0  0  0  0  0  0  0
    5.1107   -1.7712   -1.1127 H   0  0  0  0  0  0  0  0  0  0  0  0
    5.9860   -0.3856   -1.7417 H   0  0  0  0  0  0  0  0  0  0  0  0
    6.4867   -3.1892    0.2065 H   0  0  0  0  0  0  0  0  0  0  0  0
    8.3990   -3.5439    1.7238 H   0  0  0  0  0  0  0  0  0  0  0  0
    9.7429   -1.6155    2.5123 H   0  0  0  0  0  0  0  0  0  0  0  0
    9.1640    0.6834    1.7780 H   0  0  0  0  0  0  0  0  0  0  0  0
    7.2476    1.0548    0.2592 H   0  0  0  0  0  0  0  0  0  0  0  0
    4.0864    0.9581   -2.1515 H   0  0  0  0  0  0  0  0  0  0  0  0
    3.0317   -0.3807   -1.6853 H   0  0  0  0  0  0  0  0  0  0  0  0
    3.0613    2.4816   -0.5677 H   0  0  0  0  0  0  0  0  0  0  0  0
    1.7606    1.6709   -1.4633 H   0  0  0  0  0  0  0  0  0  0  0  0
   -4.7180   -1.1145    1.5656 H   0  0  0  0  0  0  0  0  0  0  0  0
   -6.1310   -2.7160    2.5684 H   0  0  0  0  0  0  0  0  0  0  0  0
   -6.0205   -4.4402    2.1939 H   0  0  0  0  0  0  0  0  0  0  0  0
   -4.5969   -3.4272    1.9274 H   0  0  0  0  0  0  0  0  0  0  0  0
  1  2  1  0
  2  3  1  0
  3  4  2  0
  4  5  1  0
  5  6  1  0
  6  7  2  0
  7  8  1  0
  8  9  1  0
  9 10  1  0
 10 11  2  0
 10 12  1  0
 12 13  1  0
 13 14  1  0
 14 15  2  0
 14 16  1  0
 16 17  1  0
 17 18  1  0
 18 19  1  0
 19 20  1  0
 20 21  1  0
 21 22  2  0
 22 23  1  0
 23 24  2  0
 24 25  1  0
 25 26  2  0
 19 27  1  0
 27 28  1  0
  8 29  1  0
 29 30  2  0
 29 31  1  0
 31 32  1  0
 32 33  2  0
 33 34  1  0
 34 35  1  0
 33  3  1  0
 31  5  2  0
 28 16  1  0
 26 21  1  0
  1 36  1  0
  1 37  1  0
  1 38  1  0
  4 39  1  0
  7 40  1  0
  9 41  1  0
  9 42  1  0
 12 43  1  0
 13 44  1  0
 13 45  1  0
 17 46  1  0
 17 47  1  0
 18 48  1  0
 18 49  1  0
 20 50  1  0
 20 51  1  0
 22 52  1  0
 23 53  1  0
 24 54  1  0
 25 55  1  0
 26 56  1  0
 27 57  1  0
 27 58  1  0
 28 59  1  0
 28 60  1  0
 32 61  1  0
 35 62  1  0
 35 63  1  0
 35 64  1  0
M  END
$$$$
