
     RDKit          3D

 42 44  0  0  0  0  0  0  0  0999 V2000
    6.1522   -1.5583    0.2827 C   0  0  0  0  0  0  0  0  0  0  0  0
    5.1769   -0.9311    1.2635 C   0  0  0  0  0  0  0  0  0  0  0  0
    3.8442   -1.3647    1.0004 O   0  0  0  0  0  0  0  0  0  0  0  0
    3.0743   -0.6496    0.1263 C   0  0  0  0  0  0  0  0  0  0  0  0
    3.4960    0.4239   -0.6612 C   0  0  0  0  0  0  0  0  0  0  0  0
    2.6026    1.0588   -1.5313 C   0  0  0  0  0  0  0  0  0  0  0  0
    1.2797    0.6276   -1.6162 C   0  0  0  0  0  0  0  0  0  0  0  0
    0.8474   -0.4335   -0.8141 C   0  0  0  0  0  0  0  0  0  0  0  0
   -0.5353   -0.9576   -0.9275 C   0  0  0  0  0  0  0  0  0  0  0  0
   -0.6385   -2.1682   -1.1451 O   0  0  0  0  0  0  0  0  0  0  0  0
   -1.6409   -0.0936   -0.9047 N   0  0  0  0  0  0  0  0  0  0  0  0
   -2.8889   -0.6436   -1.4303 C   0  0  0  0  0  0  0  0  0  0  0  0
   -3.7707   -1.1305   -0.3344 C   0  0  0  0  0  0  0  0  0  0  0  0
   -3.6408   -2.1204    0.6184 C   0  0  0  0  0  0  0  0  0  0  0  0
   -4.8314   -2.0993    1.3820 C   0  0  0  0  0  0  0  0  0  0  0  0
   -5.6133   -1.1039    0.8453 C   0  0  0  0  0  0  0  0  0  0  0  0
   -4.9804   -0.5110   -0.1998 O   0  0  0  0  0  0  0  0  0  0  0  0
   -1.6585    1.1427   -0.1815 C   0  0  0  0  0  0  0  0  0  0  0  0
   -2.7333    2.0301   -0.2691 C   0  0  0  0  0  0  0  0  0  0  0  0
   -2.7240    3.2151    0.4710 C   0  0  0  0  0  0  0  0  0  0  0  0
   -1.6456    3.4981    1.2918 C   0  0  0  0  0  0  0  0  0  0  0  0
   -0.6203    2.5774    1.3358 C   0  0  0  0  0  0  0  0  0  0  0  0
   -0.6131    1.4279    0.6254 N   0  0  0  0  0  0  0  0  0  0  0  0
    1.7494   -1.0837    0.0352 C   0  0  0  0  0  0  0  0  0  0  0  0
    5.9457   -1.2440   -0.7446 H   0  0  0  0  0  0  0  0  0  0  0  0
    7.1810   -1.2820    0.5309 H   0  0  0  0  0  0  0  0  0  0  0  0
    6.0667   -2.6499    0.3030 H   0  0  0  0  0  0  0  0  0  0  0  0
    5.2651    0.1601    1.3027 H   0  0  0  0  0  0  0  0  0  0  0  0
    5.4242   -1.2870    2.2703 H   0  0  0  0  0  0  0  0  0  0  0  0
    4.5180    0.7855   -0.6361 H   0  0  0  0  0  0  0  0  0  0  0  0
    2.9423    1.8876   -2.1471 H   0  0  0  0  0  0  0  0  0  0  0  0
    0.5938    1.1172   -2.3007 H   0  0  0  0  0  0  0  0  0  0  0  0
   -3.3865    0.1016   -2.0596 H   0  0  0  0  0  0  0  0  0  0  0  0
   -2.6772   -1.4825   -2.1049 H   0  0  0  0  0  0  0  0  0  0  0  0
   -2.7833   -2.7696    0.7403 H   0  0  0  0  0  0  0  0  0  0  0  0
   -5.0877   -2.7317    2.2201 H   0  0  0  0  0  0  0  0  0  0  0  0
   -6.5941   -0.7147    1.0798 H   0  0  0  0  0  0  0  0  0  0  0  0
   -3.5958    1.8400   -0.8958 H   0  0  0  0  0  0  0  0  0  0  0  0
   -3.5612    3.9045    0.4057 H   0  0  0  0  0  0  0  0  0  0  0  0
   -1.6072    4.4055    1.8828 H   0  0  0  0  0  0  0  0  0  0  0  0
    0.2531    2.7362    1.9618 H   0  0  0  0  0  0  0  0  0  0  0  0
    1.4155   -1.9297    0.6310 H   0  0  0  0  0  0  0  0  0  0  0  0
  1  2  1  0
  2  3  1  0
  3  4  1  0
  4  5  2  0
  5  6  1  0
  6  7  2  0
  7  8  1  0
  8  9  1  0
  9 10  2  0
  9 11  1  0
 11 12  1  0
 12 13  1  0
 13 14  2  0
 14 15  1  0
 15 16  2  0
 16 17  1  0
 11 18  1  0
 18 19  2  0
 19 20  1  0
 20 21  2  0
 21 22  1  0
 22 23  2  0
  8 24  2  0
 24  4  1  0
 17 13  1  0
 23 18  1  0
  1 25  1  0
  1 26  1  0
  1 27  1  0
  2 28  1  0
  2 29  1  0
  5 30  1  0
  6 31  1  0
  7 32  1  0
 12 33  1  0
 12 34  1  0
 14 35  1  0
 15 36  1  0
 16 37  1  0
 19 38  1  0
 20 39  1  0
 21 40  1  0
 22 41  1  0
 24 42  1  0
M  END
$$$$
