
     RDKit          3D

 31 33  0  0  0  0  0  0  0  0999 V2000
   -6.1070    1.0243    0.9056 C   0  0  0  0  0  0  0  0  0  0  0  0
   -4.7527    0.4277    0.6620 C   0  0  0  0  0  0  0  0  0  0  0  0
   -3.6271    1.2493    0.5429 C   0  0  0  0  0  0  0  0  0  0  0  0
   -2.3594    0.6917    0.3472 C   0  0  0  0  0  0  0  0  0  0  0  0
   -2.1895   -0.6985    0.2770 C   0  0  0  0  0  0  0  0  0  0  0  0
   -0.8542   -1.2709    0.0714 C   0  0  0  0  0  0  0  0  0  0  0  0
   -0.6469   -2.5960   -0.0013 N   0  0  0  0  0  0  0  0  0  0  0  0
    0.9880   -2.8234   -0.2377 S   0  0  0  0  0  0  0  0  0  0  0  0
    1.3216   -1.1516   -0.2290 C   0  0  0  0  0  0  0  0  0  0  0  0
    2.6241   -0.7926   -0.3994 N   0  0  0  0  0  0  0  0  0  0  0  0
    3.0385    0.5191   -0.4137 C   0  0  0  0  0  0  0  0  0  0  0  0
    2.3193    1.5026   -0.2801 O   0  0  0  0  0  0  0  0  0  0  0  0
    4.4728    0.6352   -0.6108 C   0  0  0  0  0  0  0  0  0  0  0  0
    5.2947    1.7435   -0.6890 C   0  0  0  0  0  0  0  0  0  0  0  0
    6.6107    1.2630   -0.8893 C   0  0  0  0  0  0  0  0  0  0  0  0
    6.5171   -0.1080   -0.9218 C   0  0  0  0  0  0  0  0  0  0  0  0
    5.2282   -0.5030   -0.7545 O   0  0  0  0  0  0  0  0  0  0  0  0
    0.2522   -0.4230   -0.0553 N   0  0  0  0  0  0  0  0  0  0  0  0
   -3.3198   -1.5177    0.4118 C   0  0  0  0  0  0  0  0  0  0  0  0
   -4.5880   -0.9604    0.6076 C   0  0  0  0  0  0  0  0  0  0  0  0
   -6.1911    2.0085    0.4328 H   0  0  0  0  0  0  0  0  0  0  0  0
   -6.2805    1.1321    1.9807 H   0  0  0  0  0  0  0  0  0  0  0  0
   -6.8943    0.3924    0.4813 H   0  0  0  0  0  0  0  0  0  0  0  0
   -3.7254    2.3312    0.6003 H   0  0  0  0  0  0  0  0  0  0  0  0
   -1.5008    1.3554    0.2521 H   0  0  0  0  0  0  0  0  0  0  0  0
    3.3166   -1.5181   -0.5205 H   0  0  0  0  0  0  0  0  0  0  0  0
    4.9679    2.7721   -0.6090 H   0  0  0  0  0  0  0  0  0  0  0  0
    7.5159    1.8446   -0.9967 H   0  0  0  0  0  0  0  0  0  0  0  0
    7.2391   -0.9032   -1.0495 H   0  0  0  0  0  0  0  0  0  0  0  0
   -3.2243   -2.6008    0.3684 H   0  0  0  0  0  0  0  0  0  0  0  0
   -5.4457   -1.6206    0.7163 H   0  0  0  0  0  0  0  0  0  0  0  0
  1  2  1  0
  2  3  2  0
  3  4  1  0
  4  5  2  0
  5  6  1  0
  6  7  2  0
  7  8  1  0
  8  9  1  0
  9 10  1  0
 10 11  1  0
 11 12  2  0
 11 13  1  0
 13 14  2  0
 14 15  1  0
 15 16  2  0
 16 17  1  0
  9 18  2  0
  5 19  1  0
 19 20  2  0
 20  2  1  0
 18  6  1  0
 17 13  1  0
  1 21  1  0
  1 22  1  0
  1 23  1  0
  3 24  1  0
  4 25  1  0
 10 26  1  0
 14 27  1  0
 15 28  1  0
 16 29  1  0
 19 30  1  0
 20 31  1  0
M  END
$$$$
