
     RDKit          3D

 52 54  0  0  0  0  0  0  0  0999 V2000
    6.3589   -0.9949   -0.6505 C   0  0  0  0  0  0  0  0  0  0  0  0
    5.3515   -0.1229   -1.2443 N   0  0  0  0  0  0  0  0  0  0  0  0
    5.6688    1.2840   -1.0108 C   0  0  0  0  0  0  0  0  0  0  0  0
    3.9804   -0.4587   -0.8202 C   0  0  0  0  0  0  0  0  0  0  0  0
    3.6609   -0.3710    0.6869 C   0  0  0  0  0  0  0  0  0  0  0  0
    2.2901   -0.7486    0.9816 N   0  0  0  0  0  0  0  0  0  0  0  0
    1.2423    0.1170    0.7702 C   0  0  0  0  0  0  0  0  0  0  0  0
    1.4036    1.2242    0.2675 O   0  0  0  0  0  0  0  0  0  0  0  0
   -0.1026   -0.3800    1.2159 C   0  0  0  0  0  0  0  0  0  0  0  0
   -1.2214   -0.0518    0.5341 C   0  0  0  0  0  0  0  0  0  0  0  0
   -1.2138    0.7489   -0.7082 C   0  0  0  0  0  0  0  0  0  0  0  0
   -1.6571    2.0783   -0.6978 C   0  0  0  0  0  0  0  0  0  0  0  0
   -1.6737    2.8242   -1.8777 C   0  0  0  0  0  0  0  0  0  0  0  0
   -1.2442    2.2505   -3.0733 C   0  0  0  0  0  0  0  0  0  0  0  0
   -0.7936    0.9316   -3.0924 C   0  0  0  0  0  0  0  0  0  0  0  0
   -0.7772    0.1817   -1.9151 C   0  0  0  0  0  0  0  0  0  0  0  0
   -2.5085   -0.5421    1.1263 C   0  0  0  0  0  0  0  0  0  0  0  0
   -3.7735   -0.2476    0.4065 C   0  0  0  0  0  0  0  0  0  0  0  0
   -4.7302    0.5573    1.0340 C   0  0  0  0  0  0  0  0  0  0  0  0
   -5.9320    0.8362    0.3834 C   0  0  0  0  0  0  0  0  0  0  0  0
   -6.1806    0.3015   -0.8815 C   0  0  0  0  0  0  0  0  0  0  0  0
   -5.2347   -0.5215   -1.4952 C   0  0  0  0  0  0  0  0  0  0  0  0
   -4.0314   -0.8062   -0.8488 C   0  0  0  0  0  0  0  0  0  0  0  0
   -2.6161   -1.1937    2.2398 N   0  0  0  0  0  0  0  0  0  0  0  0
   -1.4720   -1.5033    2.9123 N   0  0  0  0  0  0  0  0  0  0  0  0
   -1.6435   -2.3278    4.0950 C   0  0  0  0  0  0  0  0  0  0  0  0
   -0.2013   -1.2425    2.4295 C   0  0  0  0  0  0  0  0  0  0  0  0
    0.8186   -1.6904    2.9582 O   0  0  0  0  0  0  0  0  0  0  0  0
    6.1210   -2.0476   -0.8393 H   0  0  0  0  0  0  0  0  0  0  0  0
    7.3379   -0.8093   -1.1068 H   0  0  0  0  0  0  0  0  0  0  0  0
    6.4590   -0.8505    0.4305 H   0  0  0  0  0  0  0  0  0  0  0  0
    5.7207    1.5333    0.0544 H   0  0  0  0  0  0  0  0  0  0  0  0
    6.6345    1.5352   -1.4638 H   0  0  0  0  0  0  0  0  0  0  0  0
    4.9240    1.9339   -1.4836 H   0  0  0  0  0  0  0  0  0  0  0  0
    3.7570   -1.4783   -1.1630 H   0  0  0  0  0  0  0  0  0  0  0  0
    3.2806    0.1758   -1.3798 H   0  0  0  0  0  0  0  0  0  0  0  0
    3.8241    0.6436    1.0651 H   0  0  0  0  0  0  0  0  0  0  0  0
    4.2973   -1.0553    1.2565 H   0  0  0  0  0  0  0  0  0  0  0  0
    2.1378   -1.5208    1.6294 H   0  0  0  0  0  0  0  0  0  0  0  0
   -1.9846    2.5458    0.2278 H   0  0  0  0  0  0  0  0  0  0  0  0
   -2.0139    3.8563   -1.8617 H   0  0  0  0  0  0  0  0  0  0  0  0
   -1.2503    2.8359   -3.9891 H   0  0  0  0  0  0  0  0  0  0  0  0
   -0.4469    0.4901   -4.0231 H   0  0  0  0  0  0  0  0  0  0  0  0
   -0.4172   -0.8436   -1.9488 H   0  0  0  0  0  0  0  0  0  0  0  0
   -4.5417    0.9646    2.0241 H   0  0  0  0  0  0  0  0  0  0  0  0
   -6.6765    1.4664    0.8632 H   0  0  0  0  0  0  0  0  0  0  0  0
   -7.1180    0.5201   -1.3876 H   0  0  0  0  0  0  0  0  0  0  0  0
   -5.4375   -0.9435   -2.4762 H   0  0  0  0  0  0  0  0  0  0  0  0
   -3.3093   -1.4619   -1.3259 H   0  0  0  0  0  0  0  0  0  0  0  0
   -1.7171   -3.3732    3.7814 H   0  0  0  0  0  0  0  0  0  0  0  0
   -2.5571   -2.0328    4.6196 H   0  0  0  0  0  0  0  0  0  0  0  0
   -0.7914   -2.2169    4.7715 H   0  0  0  0  0  0  0  0  0  0  0  0
  1  2  1  0
  2  3  1  0
  2  4  1  0
  4  5  1  0
  5  6  1  0
  6  7  1  0
  7  8  2  0
  7  9  1  0
  9 10  2  0
 10 11  1  0
 11 12  2  0
 12 13  1  0
 13 14  2  0
 14 15  1  0
 15 16  2  0
 10 17  1  0
 17 18  1  0
 18 19  2  0
 19 20  1  0
 20 21  2  0
 21 22  1  0
 22 23  2  0
 17 24  2  0
 24 25  1  0
 25 26  1  0
 25 27  1  0
 27 28  2  0
 27  9  1  0
 16 11  1  0
 23 18  1  0
  1 29  1  0
  1 30  1  0
  1 31  1  0
  3 32  1  0
  3 33  1  0
  3 34  1  0
  4 35  1  0
  4 36  1  0
  5 37  1  0
  5 38  1  0
  6 39  1  0
 12 40  1  0
 13 41  1  0
 14 42  1  0
 15 43  1  0
 16 44  1  0
 19 45  1  0
 20 46  1  0
 21 47  1  0
 22 48  1  0
 23 49  1  0
 26 50  1  0
 26 51  1  0
 26 52  1  0
M  END
$$$$
