
     RDKit          3D

 38 40  0  0  0  0  0  0  0  0999 V2000
   -4.4525    2.1073    1.0035 C   0  0  0  0  0  0  0  0  0  0  0  0
   -4.7186    0.7708    0.3625 C   0  0  0  0  0  0  0  0  0  0  0  0
   -6.0621    0.3727    0.2124 C   0  0  0  0  0  0  0  0  0  0  0  0
   -6.3926   -0.8557   -0.3580 C   0  0  0  0  0  0  0  0  0  0  0  0
   -5.3868   -1.7091   -0.7908 C   0  0  0  0  0  0  0  0  0  0  0  0
   -4.0508   -1.3280   -0.6586 C   0  0  0  0  0  0  0  0  0  0  0  0
   -3.6914   -0.0876   -0.0928 C   0  0  0  0  0  0  0  0  0  0  0  0
   -2.2624    0.2298   -0.0113 C   0  0  0  0  0  0  0  0  0  0  0  0
   -1.7482    1.4684    0.0749 N   0  0  0  0  0  0  0  0  0  0  0  0
   -0.3734    1.2661    0.0998 O   0  0  0  0  0  0  0  0  0  0  0  0
   -0.1776   -0.0796    0.0173 C   0  0  0  0  0  0  0  0  0  0  0  0
    1.2343   -0.5435    0.0097 C   0  0  0  0  0  0  0  0  0  0  0  0
    1.7611   -0.4897   -1.3541 N   0  0  0  0  0  0  0  0  0  0  0  0
    3.1878   -1.2850   -1.6976 S   0  0  0  0  0  6  0  0  0  0  0  0
    3.5304   -0.9499   -3.0609 O   0  0  0  0  0  0  0  0  0  0  0  0
    3.0521   -2.6528   -1.2513 O   0  0  0  0  0  0  0  0  0  0  0  0
    4.3487   -0.4665   -0.6319 C   0  0  0  0  0  0  0  0  0  0  0  0
    4.8252    0.7994   -0.9874 C   0  0  0  0  0  0  0  0  0  0  0  0
    5.7352    1.4475   -0.1530 C   0  0  0  0  0  0  0  0  0  0  0  0
    6.1696    0.8291    1.0210 C   0  0  0  0  0  0  0  0  0  0  0  0
    5.7026   -0.4417    1.3627 C   0  0  0  0  0  0  0  0  0  0  0  0
    4.7924   -1.0975    0.5341 C   0  0  0  0  0  0  0  0  0  0  0  0
   -1.2977   -0.7601   -0.0545 N   0  0  0  0  0  0  0  0  0  0  0  0
   -4.0773    2.8191    0.2621 H   0  0  0  0  0  0  0  0  0  0  0  0
   -3.7404    2.0073    1.8287 H   0  0  0  0  0  0  0  0  0  0  0  0
   -5.3666    2.5339    1.4317 H   0  0  0  0  0  0  0  0  0  0  0  0
   -6.8673    1.0242    0.5476 H   0  0  0  0  0  0  0  0  0  0  0  0
   -7.4353   -1.1449   -0.4613 H   0  0  0  0  0  0  0  0  0  0  0  0
   -5.6366   -2.6695   -1.2342 H   0  0  0  0  0  0  0  0  0  0  0  0
   -3.2796   -2.0119   -1.0117 H   0  0  0  0  0  0  0  0  0  0  0  0
    1.2755   -1.5641    0.4027 H   0  0  0  0  0  0  0  0  0  0  0  0
    1.8264    0.1058    0.6626 H   0  0  0  0  0  0  0  0  0  0  0  0
    1.5742    0.3287   -1.9303 H   0  0  0  0  0  0  0  0  0  0  0  0
    4.5020    1.2778   -1.9093 H   0  0  0  0  0  0  0  0  0  0  0  0
    6.1149    2.4310   -0.4203 H   0  0  0  0  0  0  0  0  0  0  0  0
    6.8845    1.3347    1.6667 H   0  0  0  0  0  0  0  0  0  0  0  0
    6.0567   -0.9234    2.2714 H   0  0  0  0  0  0  0  0  0  0  0  0
    4.4434   -2.0931    0.7999 H   0  0  0  0  0  0  0  0  0  0  0  0
  1  2  1  0
  2  3  2  0
  3  4  1  0
  4  5  2  0
  5  6  1  0
  6  7  2  0
  7  8  1  0
  8  9  2  0
  9 10  1  0
 10 11  1  0
 11 12  1  0
 12 13  1  0
 13 14  1  0
 14 15  2  0
 14 16  2  0
 14 17  1  0
 17 18  2  0
 18 19  1  0
 19 20  2  0
 20 21  1  0
 21 22  2  0
 11 23  2  0
  7  2  1  0
 23  8  1  0
 22 17  1  0
  1 24  1  0
  1 25  1  0
  1 26  1  0
  3 27  1  0
  4 28  1  0
  5 29  1  0
  6 30  1  0
 12 31  1  0
 12 32  1  0
 13 33  1  0
 18 34  1  0
 19 35  1  0
 20 36  1  0
 21 37  1  0
 22 38  1  0
M  END
$$$$
