
     RDKit          3D

 50 51  0  0  0  0  0  0  0  0999 V2000
    8.2733   -0.4077   -0.9977 C   0  0  0  0  0  0  0  0  0  0  0  0
    6.8684   -0.0080   -0.6579 C   0  0  0  0  0  0  0  0  0  0  0  0
    5.7857   -0.7916   -1.0728 C   0  0  0  0  0  0  0  0  0  0  0  0
    4.4748   -0.4384   -0.7310 C   0  0  0  0  0  0  0  0  0  0  0  0
    4.2336    0.6986    0.0398 C   0  0  0  0  0  0  0  0  0  0  0  0
    3.0106    1.1560    0.4440 O   0  0  0  0  0  0  0  0  0  0  0  0
    1.8738    0.4068    0.0437 C   0  0  0  0  0  0  0  0  0  0  0  0
    0.5772    1.0377    0.5590 C   0  0  0  0  0  0  0  0  0  0  0  0
    0.5174    2.1036    1.1647 O   0  0  0  0  0  0  0  0  0  0  0  0
   -0.5441    0.2889    0.2613 N   0  0  0  0  0  0  0  0  0  0  0  0
   -1.8545    0.6434    0.7844 C   0  0  0  0  0  0  0  0  0  0  0  0
   -2.9806   -0.2866    0.1922 C   0  0  0  0  0  0  0  0  0  0  0  0
   -2.4747   -1.7100    0.2940 N   0  0  0  0  0  0  0  0  0  0  0  0
   -2.3776   -2.2101    1.6732 C   0  0  0  0  0  0  0  0  0  0  0  0
   -3.2174   -2.6822   -0.5145 C   0  0  0  0  0  0  0  0  0  0  0  0
   -3.2045    0.1206   -1.2959 C   0  0  0  0  0  0  0  0  0  0  0  0
   -3.6598    1.5727   -1.4889 C   0  0  0  0  0  0  0  0  0  0  0  0
   -4.5908    2.0765   -0.3874 C   0  0  0  0  0  0  0  0  0  0  0  0
   -5.2847    0.9393    0.3417 C   0  0  0  0  0  0  0  0  0  0  0  0
   -4.3089   -0.0579    0.9798 C   0  0  0  0  0  0  0  0  0  0  0  0
    5.3140    1.4733    0.4663 C   0  0  0  0  0  0  0  0  0  0  0  0
    6.6227    1.1227    0.1265 C   0  0  0  0  0  0  0  0  0  0  0  0
    8.3092   -0.9277   -1.9608 H   0  0  0  0  0  0  0  0  0  0  0  0
    8.6717   -1.0698   -0.2229 H   0  0  0  0  0  0  0  0  0  0  0  0
    8.9208    0.4716   -1.0796 H   0  0  0  0  0  0  0  0  0  0  0  0
    5.9553   -1.6857   -1.6689 H   0  0  0  0  0  0  0  0  0  0  0  0
    3.6708   -1.0751   -1.0827 H   0  0  0  0  0  0  0  0  0  0  0  0
    1.8052    0.3776   -1.0506 H   0  0  0  0  0  0  0  0  0  0  0  0
    1.9304   -0.6087    0.4546 H   0  0  0  0  0  0  0  0  0  0  0  0
   -0.4451   -0.6899    0.0113 H   0  0  0  0  0  0  0  0  0  0  0  0
   -1.7958    0.5541    1.8756 H   0  0  0  0  0  0  0  0  0  0  0  0
   -2.0223    1.7041    0.5818 H   0  0  0  0  0  0  0  0  0  0  0  0
   -1.7612   -1.5648    2.3045 H   0  0  0  0  0  0  0  0  0  0  0  0
   -3.3555   -2.3312    2.1503 H   0  0  0  0  0  0  0  0  0  0  0  0
   -1.8806   -3.1876    1.6830 H   0  0  0  0  0  0  0  0  0  0  0  0
   -2.8215   -3.6937   -0.3628 H   0  0  0  0  0  0  0  0  0  0  0  0
   -4.2855   -2.7025   -0.2764 H   0  0  0  0  0  0  0  0  0  0  0  0
   -3.0935   -2.4881   -1.5842 H   0  0  0  0  0  0  0  0  0  0  0  0
   -2.3000   -0.0513   -1.8930 H   0  0  0  0  0  0  0  0  0  0  0  0
   -3.9868   -0.5108   -1.7370 H   0  0  0  0  0  0  0  0  0  0  0  0
   -4.1683    1.6481   -2.4584 H   0  0  0  0  0  0  0  0  0  0  0  0
   -2.7907    2.2376   -1.5598 H   0  0  0  0  0  0  0  0  0  0  0  0
   -5.3356    2.7539   -0.8213 H   0  0  0  0  0  0  0  0  0  0  0  0
   -4.0251    2.6765    0.3349 H   0  0  0  0  0  0  0  0  0  0  0  0
   -5.9504    1.3403    1.1148 H   0  0  0  0  0  0  0  0  0  0  0  0
   -5.9287    0.4039   -0.3681 H   0  0  0  0  0  0  0  0  0  0  0  0
   -4.0826    0.2675    2.0034 H   0  0  0  0  0  0  0  0  0  0  0  0
   -4.8668   -0.9951    1.0928 H   0  0  0  0  0  0  0  0  0  0  0  0
    5.1334    2.3586    1.0718 H   0  0  0  0  0  0  0  0  0  0  0  0
    7.4453    1.7407    0.4785 H   0  0  0  0  0  0  0  0  0  0  0  0
  1  2  1  0
  2  3  2  0
  3  4  1  0
  4  5  2  0
  5  6  1  0
  6  7  1  0
  7  8  1  0
  8  9  2  0
  8 10  1  0
 10 11  1  0
 11 12  1  0
 12 13  1  0
 13 14  1  0
 13 15  1  0
 12 16  1  0
 16 17  1  0
 17 18  1  0
 18 19  1  0
 19 20  1  0
  5 21  1  0
 21 22  2  0
 22  2  1  0
 20 12  1  0
  1 23  1  0
  1 24  1  0
  1 25  1  0
  3 26  1  0
  4 27  1  0
  7 28  1  0
  7 29  1  0
 10 30  1  0
 11 31  1  0
 11 32  1  0
 14 33  1  0
 14 34  1  0
 14 35  1  0
 15 36  1  0
 15 37  1  0
 15 38  1  0
 16 39  1  0
 16 40  1  0
 17 41  1  0
 17 42  1  0
 18 43  1  0
 18 44  1  0
 19 45  1  0
 19 46  1  0
 20 47  1  0
 20 48  1  0
 21 49  1  0
 22 50  1  0
M  END
$$$$
