
     RDKit          3D

 55 57  0  0  0  0  0  0  0  0999 V2000
    7.7697   -0.2699    0.6785 C   0  0  0  0  0  0  0  0  0  0  0  0
    6.3094    0.0733    0.6452 C   0  0  0  0  0  0  0  0  0  0  0  0
    5.4238   -0.6692   -0.1461 C   0  0  0  0  0  0  0  0  0  0  0  0
    4.0573   -0.3729   -0.1518 C   0  0  0  0  0  0  0  0  0  0  0  0
    3.5630    0.6707    0.6398 C   0  0  0  0  0  0  0  0  0  0  0  0
    2.1156    1.0195    0.6739 C   0  0  0  0  0  0  0  0  0  0  0  0
    1.6264    1.5119    1.6843 O   0  0  0  0  0  0  0  0  0  0  0  0
    1.4036    0.7760   -0.4824 N   0  0  0  0  0  0  0  0  0  0  0  0
   -0.0023    1.1288   -0.6157 C   0  0  0  0  0  0  0  0  0  0  0  0
   -1.0333   -0.0669   -0.4906 C   0  0  0  0  0  0  0  0  0  0  0  0
   -2.3940    0.5415   -0.6616 N   0  0  0  0  0  0  0  0  0  0  0  0
   -2.8046    1.5107    0.3837 C   0  0  0  0  0  0  0  0  0  0  0  0
   -4.1397    1.1927    1.1022 C   0  0  0  0  0  0  0  0  0  0  0  0
   -5.2876    0.9294    0.2176 N   0  0  0  0  0  0  0  0  0  0  0  0
   -6.1230    2.1135    0.0404 C   0  0  0  0  0  0  0  0  0  0  0  0
   -4.8494    0.4029   -1.0882 C   0  0  0  0  0  0  0  0  0  0  0  0
   -3.5041   -0.3564   -1.0195 C   0  0  0  0  0  0  0  0  0  0  0  0
   -0.9178   -0.7814    0.8910 C   0  0  0  0  0  0  0  0  0  0  0  0
    0.0609   -1.9540    0.8973 C   0  0  0  0  0  0  0  0  0  0  0  0
   -0.3376   -3.0478   -0.0896 C   0  0  0  0  0  0  0  0  0  0  0  0
   -1.0538   -2.5268   -1.3336 C   0  0  0  0  0  0  0  0  0  0  0  0
   -0.6968   -1.0742   -1.6448 C   0  0  0  0  0  0  0  0  0  0  0  0
    4.4407    1.3936    1.4554 C   0  0  0  0  0  0  0  0  0  0  0  0
    5.8058    1.0966    1.4571 C   0  0  0  0  0  0  0  0  0  0  0  0
    8.0942   -0.6899   -0.2801 H   0  0  0  0  0  0  0  0  0  0  0  0
    8.3758    0.6238    0.8634 H   0  0  0  0  0  0  0  0  0  0  0  0
    7.9644   -1.0019    1.4701 H   0  0  0  0  0  0  0  0  0  0  0  0
    5.7922   -1.4930   -0.7531 H   0  0  0  0  0  0  0  0  0  0  0  0
    3.3920   -0.9877   -0.7506 H   0  0  0  0  0  0  0  0  0  0  0  0
    1.9023    0.5263   -1.3241 H   0  0  0  0  0  0  0  0  0  0  0  0
   -0.1026    1.5873   -1.6082 H   0  0  0  0  0  0  0  0  0  0  0  0
   -0.2148    1.9169    0.1131 H   0  0  0  0  0  0  0  0  0  0  0  0
   -2.0461    1.6381    1.1623 H   0  0  0  0  0  0  0  0  0  0  0  0
   -2.9008    2.4882   -0.1060 H   0  0  0  0  0  0  0  0  0  0  0  0
   -3.9882    0.2916    1.7115 H   0  0  0  0  0  0  0  0  0  0  0  0
   -4.3667    1.9901    1.8215 H   0  0  0  0  0  0  0  0  0  0  0  0
   -6.9786    1.8879   -0.6062 H   0  0  0  0  0  0  0  0  0  0  0  0
   -5.5682    2.9504   -0.3987 H   0  0  0  0  0  0  0  0  0  0  0  0
   -6.5350    2.4403    1.0019 H   0  0  0  0  0  0  0  0  0  0  0  0
   -5.6244   -0.2738   -1.4673 H   0  0  0  0  0  0  0  0  0  0  0  0
   -4.7436    1.2110   -1.8260 H   0  0  0  0  0  0  0  0  0  0  0  0
   -3.6009   -1.1806   -0.3032 H   0  0  0  0  0  0  0  0  0  0  0  0
   -3.3350   -0.7890   -2.0107 H   0  0  0  0  0  0  0  0  0  0  0  0
   -1.8929   -1.1796    1.1994 H   0  0  0  0  0  0  0  0  0  0  0  0
   -0.6300   -0.0683    1.6720 H   0  0  0  0  0  0  0  0  0  0  0  0
    1.0702   -1.6078    0.6575 H   0  0  0  0  0  0  0  0  0  0  0  0
    0.1212   -2.3813    1.9052 H   0  0  0  0  0  0  0  0  0  0  0  0
   -0.9870   -3.7777    0.4094 H   0  0  0  0  0  0  0  0  0  0  0  0
    0.5638   -3.5991   -0.3846 H   0  0  0  0  0  0  0  0  0  0  0  0
   -2.1326   -2.6410   -1.1971 H   0  0  0  0  0  0  0  0  0  0  0  0
   -0.7961   -3.1611   -2.1903 H   0  0  0  0  0  0  0  0  0  0  0  0
    0.3767   -1.0585   -1.8702 H   0  0  0  0  0  0  0  0  0  0  0  0
   -1.1750   -0.7607   -2.5813 H   0  0  0  0  0  0  0  0  0  0  0  0
    4.0619    2.1897    2.0933 H   0  0  0  0  0  0  0  0  0  0  0  0
    6.4716    1.6677    2.1004 H   0  0  0  0  0  0  0  0  0  0  0  0
  1  2  1  0
  2  3  2  0
  3  4  1  0
  4  5  2  0
  5  6  1  0
  6  7  2  0
  6  8  1  0
  8  9  1  0
  9 10  1  0
 10 11  1  0
 11 12  1  0
 12 13  1  0
 13 14  1  0
 14 15  1  0
 14 16  1  0
 16 17  1  0
 10 18  1  0
 18 19  1  0
 19 20  1  0
 20 21  1  0
 21 22  1  0
  5 23  1  0
 23 24  2  0
 24  2  1  0
 22 10  1  0
 17 11  1  0
  1 25  1  0
  1 26  1  0
  1 27  1  0
  3 28  1  0
  4 29  1  0
  8 30  1  0
  9 31  1  0
  9 32  1  0
 12 33  1  0
 12 34  1  0
 13 35  1  0
 13 36  1  0
 15 37  1  0
 15 38  1  0
 15 39  1  0
 16 40  1  0
 16 41  1  0
 17 42  1  0
 17 43  1  0
 18 44  1  0
 18 45  1  0
 19 46  1  0
 19 47  1  0
 20 48  1  0
 20 49  1  0
 21 50  1  0
 21 51  1  0
 22 52  1  0
 22 53  1  0
 23 54  1  0
 24 55  1  0
M  END
$$$$
