
     RDKit          3D

 47 49  0  0  0  0  0  0  0  0999 V2000
   -6.2268    1.6850   -1.6926 C   0  0  0  0  0  0  0  0  0  0  0  0
   -5.9469    1.3774   -0.3352 O   0  0  0  0  0  0  0  0  0  0  0  0
   -4.7382    0.7929   -0.0462 C   0  0  0  0  0  0  0  0  0  0  0  0
   -3.7610    0.4805   -0.9990 C   0  0  0  0  0  0  0  0  0  0  0  0
   -2.5428   -0.1095   -0.6236 C   0  0  0  0  0  0  0  0  0  0  0  0
   -2.3162   -0.4122    0.7220 C   0  0  0  0  0  0  0  0  0  0  0  0
   -3.2951   -0.0990    1.6817 C   0  0  0  0  0  0  0  0  0  0  0  0
   -4.5002    0.5052    1.3097 C   0  0  0  0  0  0  0  0  0  0  0  0
   -5.5039    0.8405    2.1842 O   0  0  0  0  0  0  0  0  0  0  0  0
   -5.2668    0.6385    3.5698 C   0  0  0  0  0  0  0  0  0  0  0  0
   -1.0485   -1.1016    1.1376 C   0  0  0  0  0  0  0  0  0  0  0  0
    0.1985   -0.2901    0.8579 C   0  0  0  0  0  0  0  0  0  0  0  0
    0.9106    0.0903    1.7936 O   0  0  0  0  0  0  0  0  0  0  0  0
    0.5575   -0.0920   -0.4767 N   0  0  0  0  0  0  0  0  0  0  0  0
    1.9464    0.3276   -0.7052 C   0  0  0  0  0  0  0  0  0  0  0  0
    2.9121   -0.8723   -0.7303 C   0  0  0  0  0  0  0  0  0  0  0  0
    2.5032   -2.0206   -0.9215 O   0  0  0  0  0  0  0  0  0  0  0  0
    4.2737   -0.5953   -0.5927 N   0  0  0  0  0  0  0  0  0  0  0  0
    5.2166   -1.7185   -0.5242 C   0  0  0  0  0  0  0  0  0  0  0  0
    6.2041   -1.5969    0.6349 C   0  0  0  0  0  0  0  0  0  0  0  0
    7.3136   -0.1513    0.4893 S   0  0  0  0  0  0  0  0  0  0  0  0
    6.3073    0.8942   -0.6155 C   0  0  0  0  0  0  0  0  0  0  0  0
    4.8061    0.7538   -0.3665 C   0  0  0  0  0  0  0  0  0  0  0  0
   -0.2248   -0.3655   -1.5870 C   0  0  0  0  0  0  0  0  0  0  0  0
   -1.5620   -0.4149   -1.6733 C   0  0  0  0  0  0  0  0  0  0  0  0
   -6.2485    0.7789   -2.3070 H   0  0  0  0  0  0  0  0  0  0  0  0
   -5.5130    2.4154   -2.0876 H   0  0  0  0  0  0  0  0  0  0  0  0
   -7.2220    2.1380   -1.7347 H   0  0  0  0  0  0  0  0  0  0  0  0
   -3.9249    0.7018   -2.0486 H   0  0  0  0  0  0  0  0  0  0  0  0
   -3.0939   -0.3445    2.7199 H   0  0  0  0  0  0  0  0  0  0  0  0
   -5.1474   -0.4257    3.7977 H   0  0  0  0  0  0  0  0  0  0  0  0
   -4.4033    1.2175    3.9134 H   0  0  0  0  0  0  0  0  0  0  0  0
   -6.1451    0.9975    4.1151 H   0  0  0  0  0  0  0  0  0  0  0  0
   -1.0670   -1.3146    2.2142 H   0  0  0  0  0  0  0  0  0  0  0  0
   -0.9662   -2.0794    0.6469 H   0  0  0  0  0  0  0  0  0  0  0  0
    2.2383    1.0249    0.0859 H   0  0  0  0  0  0  0  0  0  0  0  0
    2.0175    0.8550   -1.6639 H   0  0  0  0  0  0  0  0  0  0  0  0
    4.6748   -2.6644   -0.4196 H   0  0  0  0  0  0  0  0  0  0  0  0
    5.7433   -1.7637   -1.4853 H   0  0  0  0  0  0  0  0  0  0  0  0
    6.8304   -2.4929    0.6880 H   0  0  0  0  0  0  0  0  0  0  0  0
    5.6652   -1.5117    1.5847 H   0  0  0  0  0  0  0  0  0  0  0  0
    6.5493    0.6283   -1.6501 H   0  0  0  0  0  0  0  0  0  0  0  0
    6.6135    1.9342   -0.4646 H   0  0  0  0  0  0  0  0  0  0  0  0
    4.2762    1.4493   -1.0260 H   0  0  0  0  0  0  0  0  0  0  0  0
    4.5602    1.0341    0.6652 H   0  0  0  0  0  0  0  0  0  0  0  0
    0.3367   -0.4994   -2.5119 H   0  0  0  0  0  0  0  0  0  0  0  0
   -1.9909   -0.6246   -2.6523 H   0  0  0  0  0  0  0  0  0  0  0  0
  1  2  1  0
  2  3  1  0
  3  4  2  0
  4  5  1  0
  5  6  2  0
  6  7  1  0
  7  8  2  0
  8  9  1  0
  9 10  1  0
  6 11  1  0
 11 12  1  0
 12 13  2  0
 12 14  1  0
 14 15  1  0
 15 16  1  0
 16 17  2  0
 16 18  1  0
 18 19  1  0
 19 20  1  0
 20 21  1  0
 21 22  1  0
 22 23  1  0
 14 24  1  0
 24 25  2  0
  8  3  1  0
 23 18  1  0
 25  5  1  0
  1 26  1  0
  1 27  1  0
  1 28  1  0
  4 29  1  0
  7 30  1  0
 10 31  1  0
 10 32  1  0
 10 33  1  0
 11 34  1  0
 11 35  1  0
 15 36  1  0
 15 37  1  0
 19 38  1  0
 19 39  1  0
 20 40  1  0
 20 41  1  0
 22 42  1  0
 22 43  1  0
 23 44  1  0
 23 45  1  0
 24 46  1  0
 25 47  1  0
M  END
$$$$
