
     RDKit          3D

 31 32  0  0  0  0  0  0  0  0999 V2000
   -5.9771    1.3290    1.2876 C   0  0  0  0  0  0  0  0  0  0  0  0
   -4.9712    0.5799    0.4875 C   0  0  0  0  0  0  0  0  0  0  0  0
   -3.7081    0.9282    0.3636 N   0  0  0  0  0  0  0  0  0  0  0  0
   -3.0410    0.0214   -0.4440 C   0  0  0  0  0  0  0  0  0  0  0  0
   -1.5882    0.2367   -0.7062 C   0  0  0  0  0  0  0  0  0  0  0  0
   -0.7124   -0.3983    0.3704 C   0  0  0  0  0  0  0  0  0  0  0  0
    0.6994   -0.1259    0.1442 N   0  0  0  0  0  0  0  0  0  0  0  0
    1.6661   -1.0042    0.5933 C   0  0  0  0  0  0  0  0  0  0  0  0
    1.4159   -2.0968    1.0878 O   0  0  0  0  0  0  0  0  0  0  0  0
    3.0788   -0.5430    0.4822 C   0  0  0  0  0  0  0  0  0  0  0  0
    3.4874    0.3687   -0.5029 C   0  0  0  0  0  0  0  0  0  0  0  0
    4.8247    0.7683   -0.5706 C   0  0  0  0  0  0  0  0  0  0  0  0
    5.7448    0.2521    0.3364 C   0  0  0  0  0  0  0  0  0  0  0  0
    7.0252    0.6378    0.2663 F   0  0  0  0  0  0  0  0  0  0  0  0
    5.3573   -0.6632    1.3082 C   0  0  0  0  0  0  0  0  0  0  0  0
    4.0224   -1.0662    1.3792 C   0  0  0  0  0  0  0  0  0  0  0  0
   -3.8242   -1.0105   -0.9247 C   0  0  0  0  0  0  0  0  0  0  0  0
   -5.4305   -0.8457   -0.3544 S   0  0  0  0  0  0  0  0  0  0  0  0
   -6.7985    1.6770    0.6532 H   0  0  0  0  0  0  0  0  0  0  0  0
   -5.5177    2.2060    1.7547 H   0  0  0  0  0  0  0  0  0  0  0  0
   -6.3883    0.7001    2.0835 H   0  0  0  0  0  0  0  0  0  0  0  0
   -1.3881    1.3143   -0.7601 H   0  0  0  0  0  0  0  0  0  0  0  0
   -1.3219   -0.1720   -1.6892 H   0  0  0  0  0  0  0  0  0  0  0  0
   -0.9593    0.0001    1.3616 H   0  0  0  0  0  0  0  0  0  0  0  0
   -0.8769   -1.4817    0.4052 H   0  0  0  0  0  0  0  0  0  0  0  0
    0.9634    0.8459    0.0482 H   0  0  0  0  0  0  0  0  0  0  0  0
    2.7870    0.7532   -1.2389 H   0  0  0  0  0  0  0  0  0  0  0  0
    5.1578    1.4698   -1.3294 H   0  0  0  0  0  0  0  0  0  0  0  0
    6.0936   -1.0600    2.0001 H   0  0  0  0  0  0  0  0  0  0  0  0
    3.7164   -1.7877    2.1349 H   0  0  0  0  0  0  0  0  0  0  0  0
   -3.5369   -1.8330   -1.5642 H   0  0  0  0  0  0  0  0  0  0  0  0
  1  2  1  0
  2  3  2  0
  3  4  1  0
  4  5  1  0
  5  6  1  0
  6  7  1  0
  7  8  1  0
  8  9  2  0
  8 10  1  0
 10 11  2  0
 11 12  1  0
 12 13  2  0
 13 14  1  0
 13 15  1  0
 15 16  2  0
  4 17  2  0
 17 18  1  0
 18  2  1  0
 16 10  1  0
  1 19  1  0
  1 20  1  0
  1 21  1  0
  5 22  1  0
  5 23  1  0
  6 24  1  0
  6 25  1  0
  7 26  1  0
 11 27  1  0
 12 28  1  0
 15 29  1  0
 16 30  1  0
 17 31  1  0
M  END
$$$$
