
     RDKit          3D

 38 40  0  0  0  0  0  0  0  0999 V2000
    7.9639   -0.2352   -1.1677 C   0  0  0  0  0  0  0  0  0  0  0  0
    6.5867    0.2222   -0.7535 C   0  0  0  0  0  0  0  0  0  0  0  0
    6.4074    1.3696   -0.3619 O   0  0  0  0  0  0  0  0  0  0  0  0
    5.6498   -0.7790   -0.8513 N   0  0  0  0  0  0  0  0  0  0  0  0
    4.3161   -0.6908   -0.5406 C   0  0  0  0  0  0  0  0  0  0  0  0
    3.5003   -1.7137   -0.6718 N   0  0  0  0  0  0  0  0  0  0  0  0
    2.2087   -1.4049   -0.2994 N   0  0  0  0  0  0  0  0  0  0  0  0
    2.0947   -0.1536    0.0946 C   0  0  0  0  0  0  0  0  0  0  0  0
    0.8369    0.4879    0.5665 C   0  0  0  0  0  0  0  0  0  0  0  0
    0.5325    0.1860    2.0245 C   0  0  0  0  0  0  0  0  0  0  0  0
   -0.9672    0.3467    2.0937 C   0  0  0  0  0  0  0  0  0  0  0  0
   -1.5635    0.5070    3.1468 O   0  0  0  0  0  0  0  0  0  0  0  0
   -1.4773    0.2246    0.7916 N   0  0  0  0  0  0  0  0  0  0  0  0
   -2.8497    0.2073    0.4167 C   0  0  0  0  0  0  0  0  0  0  0  0
   -3.2280   -0.1367   -0.8897 C   0  0  0  0  0  0  0  0  0  0  0  0
   -4.5733   -0.1561   -1.2796 C   0  0  0  0  0  0  0  0  0  0  0  0
   -5.5862    0.1708   -0.3730 C   0  0  0  0  0  0  0  0  0  0  0  0
   -7.0209    0.1419   -0.8166 C   0  0  0  0  0  0  0  0  0  0  0  0
   -5.2165    0.5159    0.9325 C   0  0  0  0  0  0  0  0  0  0  0  0
   -6.4036    0.9398    2.1171 Cl  0  0  0  0  0  0  0  0  0  0  0  0
   -3.8686    0.5326    1.3195 C   0  0  0  0  0  0  0  0  0  0  0  0
   -0.4050   -0.0232   -0.1479 C   0  0  0  0  0  0  0  0  0  0  0  0
    3.5695    0.7256    0.0390 S   0  0  0  0  0  0  0  0  0  0  0  0
    8.4810    0.5885   -1.6683 H   0  0  0  0  0  0  0  0  0  0  0  0
    8.5252   -0.5343   -0.2786 H   0  0  0  0  0  0  0  0  0  0  0  0
    7.9155   -1.0762   -1.8654 H   0  0  0  0  0  0  0  0  0  0  0  0
    5.9247   -1.6963   -1.1749 H   0  0  0  0  0  0  0  0  0  0  0  0
    0.8864    1.5783    0.4342 H   0  0  0  0  0  0  0  0  0  0  0  0
    1.0268    0.8965    2.6934 H   0  0  0  0  0  0  0  0  0  0  0  0
    0.7915   -0.8375    2.3168 H   0  0  0  0  0  0  0  0  0  0  0  0
   -2.4937   -0.4164   -1.6395 H   0  0  0  0  0  0  0  0  0  0  0  0
   -4.8198   -0.4345   -2.3026 H   0  0  0  0  0  0  0  0  0  0  0  0
   -7.1094   -0.1520   -1.8681 H   0  0  0  0  0  0  0  0  0  0  0  0
   -7.5894   -0.5832   -0.2254 H   0  0  0  0  0  0  0  0  0  0  0  0
   -7.4725    1.1340   -0.7152 H   0  0  0  0  0  0  0  0  0  0  0  0
   -3.6433    0.8189    2.3420 H   0  0  0  0  0  0  0  0  0  0  0  0
   -0.3741   -1.0992   -0.3560 H   0  0  0  0  0  0  0  0  0  0  0  0
   -0.5555    0.5287   -1.0820 H   0  0  0  0  0  0  0  0  0  0  0  0
  1  2  1  0
  2  3  2  0
  2  4  1  0
  4  5  1  0
  5  6  2  0
  6  7  1  0
  7  8  2  0
  8  9  1  0
  9 10  1  0
 10 11  1  0
 11 12  2  0
 11 13  1  0
 13 14  1  0
 14 15  2  0
 15 16  1  0
 16 17  2  0
 17 18  1  0
 17 19  1  0
 19 20  1  0
 19 21  2  0
 13 22  1  0
  8 23  1  0
 23  5  1  0
 22  9  1  0
 21 14  1  0
  1 24  1  0
  1 25  1  0
  1 26  1  0
  4 27  1  0
  9 28  1  0
 10 29  1  0
 10 30  1  0
 15 31  1  0
 16 32  1  0
 18 33  1  0
 18 34  1  0
 18 35  1  0
 21 36  1  0
 22 37  1  0
 22 38  1  0
M  END
$$$$
