
     RDKit          3D

 44 46  0  0  0  0  0  0  0  0999 V2000
   -3.6657    2.0170    0.9648 C   0  0  0  0  0  0  0  0  0  0  0  0
   -3.7368    1.2815   -0.3753 C   0  0  0  0  0  0  0  0  0  0  0  0
   -5.1919    0.9283   -0.6966 C   0  0  0  0  0  0  0  0  0  0  0  0
   -2.8754   -0.0014   -0.3786 C   0  0  0  0  0  0  0  0  0  0  0  0
   -1.4510    0.2203   -0.0690 N   0  0  0  0  0  0  0  0  0  0  0  0
   -0.7659    0.9710   -1.1372 C   0  0  0  0  0  0  0  0  0  0  0  0
    0.7501    1.1284   -0.9486 C   0  0  0  0  0  0  0  0  0  0  0  0
    1.3050    2.0621   -1.5375 O   0  0  0  0  0  0  0  0  0  0  0  0
    1.4348    0.1689   -0.1746 N   0  0  0  0  0  0  0  0  0  0  0  0
    2.8456    0.3607    0.0477 C   0  0  0  0  0  0  0  0  0  0  0  0
    3.6934    0.6652   -1.0283 C   0  0  0  0  0  0  0  0  0  0  0  0
    5.0697    0.8324   -0.8416 C   0  0  0  0  0  0  0  0  0  0  0  0
    5.6146    0.6973    0.4301 C   0  0  0  0  0  0  0  0  0  0  0  0
    7.4723    0.9237    0.6890 Br  0  0  0  0  0  0  0  0  0  0  0  0
    4.7954    0.3981    1.5142 C   0  0  0  0  0  0  0  0  0  0  0  0
    3.4188    0.2299    1.3228 C   0  0  0  0  0  0  0  0  0  0  0  0
    0.6870   -0.7335    0.7278 C   0  0  2  0  0  0  0  0  0  0  0  0
    1.3198   -2.1229    0.9272 C   0  0  0  0  0  0  0  0  0  0  0  0
    0.6001   -3.1884   -0.3034 S   0  0  0  0  0  6  0  0  0  0  0  0
    1.5601   -3.4171   -1.3614 O   0  0  0  0  0  0  0  0  0  0  0  0
   -0.0713   -4.2765    0.3777 O   0  0  0  0  0  0  0  0  0  0  0  0
   -0.6345   -2.0566   -0.8901 C   0  0  0  0  0  0  0  0  0  0  0  0
   -0.7526   -1.0303    0.2385 C   0  0  2  0  0  0  0  0  0  0  0  0
   -4.3123    2.9011    0.9561 H   0  0  0  0  0  0  0  0  0  0  0  0
   -3.9878    1.3717    1.7892 H   0  0  0  0  0  0  0  0  0  0  0  0
   -2.6478    2.3586    1.1780 H   0  0  0  0  0  0  0  0  0  0  0  0
   -3.3885    1.9611   -1.1618 H   0  0  0  0  0  0  0  0  0  0  0  0
   -5.6162    0.2590    0.0597 H   0  0  0  0  0  0  0  0  0  0  0  0
   -5.2653    0.4311   -1.6697 H   0  0  0  0  0  0  0  0  0  0  0  0
   -5.8114    1.8306   -0.7357 H   0  0  0  0  0  0  0  0  0  0  0  0
   -2.9802   -0.5071   -1.3476 H   0  0  0  0  0  0  0  0  0  0  0  0
   -3.2978   -0.6817    0.3734 H   0  0  0  0  0  0  0  0  0  0  0  0
   -0.9265    0.5165   -2.1219 H   0  0  0  0  0  0  0  0  0  0  0  0
   -1.1670    1.9904   -1.1658 H   0  0  0  0  0  0  0  0  0  0  0  0
    3.2984    0.7598   -2.0377 H   0  0  0  0  0  0  0  0  0  0  0  0
    5.6989    1.0664   -1.6963 H   0  0  0  0  0  0  0  0  0  0  0  0
    5.2141    0.3027    2.5128 H   0  0  0  0  0  0  0  0  0  0  0  0
    2.8125    0.0323    2.2013 H   0  0  0  0  0  0  0  0  0  0  0  0
    0.6250   -0.2101    1.6914 H   0  0  0  0  0  0  0  0  0  0  0  0
    2.4043   -2.1742    0.8282 H   0  0  0  0  0  0  0  0  0  0  0  0
    1.0300   -2.5274    1.9029 H   0  0  0  0  0  0  0  0  0  0  0  0
   -0.2650   -1.6319   -1.8270 H   0  0  0  0  0  0  0  0  0  0  0  0
   -1.5666   -2.5966   -1.0721 H   0  0  0  0  0  0  0  0  0  0  0  0
   -1.2726   -1.5106    1.0810 H   0  0  0  0  0  0  0  0  0  0  0  0
  1  2  1  0
  2  3  1  0
  2  4  1  0
  4  5  1  0
  5  6  1  0
  6  7  1  0
  7  8  2  0
  7  9  1  0
  9 10  1  0
 10 11  2  0
 11 12  1  0
 12 13  2  0
 13 14  1  0
 13 15  1  0
 15 16  2  0
  9 17  1  0
 17 18  1  0
 18 19  1  0
 19 20  2  0
 19 21  2  0
 19 22  1  0
 22 23  1  0
 23  5  1  0
 16 10  1  0
 23 17  1  0
  1 24  1  0
  1 25  1  0
  1 26  1  0
  2 27  1  0
  3 28  1  0
  3 29  1  0
  3 30  1  0
  4 31  1  0
  4 32  1  0
  6 33  1  0
  6 34  1  0
 11 35  1  0
 12 36  1  0
 15 37  1  0
 16 38  1  0
 17 39  1  1
 18 40  1  0
 18 41  1  0
 22 42  1  0
 22 43  1  0
 23 44  1  1
M  END
$$$$
