
     RDKit          3D

 55 58  0  0  0  0  0  0  0  0999 V2000
    1.9488   -0.7021   -1.5205 O   0  0  0  0  0  0  0  0  0  0  0  0
    2.6393    0.0247   -0.8181 C   0  0  0  0  0  0  0  0  0  0  0  0
    3.9716   -0.2080   -0.5686 N   0  0  0  0  0  0  0  0  0  0  0  0
    4.5560   -1.4711   -0.9515 C   0  0  0  0  0  0  0  0  0  0  0  0
    6.0368   -1.4662   -0.6835 C   0  0  0  0  0  0  0  0  0  0  0  0
    6.9287   -0.9409   -1.6292 C   0  0  0  0  0  0  0  0  0  0  0  0
    8.2990   -0.9063   -1.3661 C   0  0  0  0  0  0  0  0  0  0  0  0
    8.7893   -1.3881   -0.1535 C   0  0  0  0  0  0  0  0  0  0  0  0
    7.9108   -1.9036    0.7978 C   0  0  0  0  0  0  0  0  0  0  0  0
    6.5402   -1.9398    0.5366 C   0  0  0  0  0  0  0  0  0  0  0  0
    2.1562    1.2313   -0.2108 C   0  0  0  0  0  0  0  0  0  0  0  0
    2.6777    2.4835   -0.4244 N   0  0  0  0  0  0  0  0  0  0  0  0
    1.9028    3.3815    0.2468 C   0  0  0  0  0  0  0  0  0  0  0  0
    0.9374    2.7840    0.9031 N   0  0  0  0  0  0  0  0  0  0  0  0
    1.0763    1.4260    0.6392 C   0  0  0  0  0  0  0  0  0  0  0  0
    0.2610    0.3486    1.2296 C   0  0  0  0  0  0  0  0  0  0  0  0
    0.7479   -0.7729    1.3830 O   0  0  0  0  0  0  0  0  0  0  0  0
   -1.0522    0.6280    1.6122 N   0  0  0  0  0  0  0  0  0  0  0  0
   -1.7258    1.9119    1.3984 C   0  0  0  0  0  0  0  0  0  0  0  0
   -3.1871    1.9143    1.8895 C   0  0  0  0  0  0  0  0  0  0  0  0
   -4.0198    0.7884    1.4233 N   0  0  0  0  0  0  0  0  0  0  0  0
   -4.7285    1.1190    0.1765 C   0  0  0  0  0  0  0  0  0  0  0  0
   -5.7769    0.0946   -0.2071 C   0  0  0  0  0  0  0  0  0  0  0  0
   -5.7058   -0.5756   -1.4367 C   0  0  0  0  0  0  0  0  0  0  0  0
   -6.6800   -1.5112   -1.7906 C   0  0  0  0  0  0  0  0  0  0  0  0
   -7.7346   -1.7851   -0.9214 C   0  0  0  0  0  0  0  0  0  0  0  0
   -7.8167   -1.1252    0.3033 C   0  0  0  0  0  0  0  0  0  0  0  0
   -6.8444   -0.1892    0.6582 C   0  0  0  0  0  0  0  0  0  0  0  0
   -3.2369   -0.4647    1.2878 C   0  0  0  0  0  0  0  0  0  0  0  0
   -1.9104   -0.4662    2.0689 C   0  0  0  0  0  0  0  0  0  0  0  0
    4.3754    0.2550    0.2346 H   0  0  0  0  0  0  0  0  0  0  0  0
    4.0597   -2.2689   -0.3858 H   0  0  0  0  0  0  0  0  0  0  0  0
    4.3535   -1.6586   -2.0127 H   0  0  0  0  0  0  0  0  0  0  0  0
    6.5575   -0.5580   -2.5777 H   0  0  0  0  0  0  0  0  0  0  0  0
    8.9845   -0.5037   -2.1071 H   0  0  0  0  0  0  0  0  0  0  0  0
    9.8566   -1.3628    0.0505 H   0  0  0  0  0  0  0  0  0  0  0  0
    8.2933   -2.2787    1.7439 H   0  0  0  0  0  0  0  0  0  0  0  0
    5.8661   -2.3429    1.2899 H   0  0  0  0  0  0  0  0  0  0  0  0
    3.4646    2.7003   -1.0214 H   0  0  0  0  0  0  0  0  0  0  0  0
    2.0895    4.4473    0.2214 H   0  0  0  0  0  0  0  0  0  0  0  0
   -1.1826    2.6853    1.9490 H   0  0  0  0  0  0  0  0  0  0  0  0
   -1.6860    2.1429    0.3278 H   0  0  0  0  0  0  0  0  0  0  0  0
   -3.1727    1.8612    2.9867 H   0  0  0  0  0  0  0  0  0  0  0  0
   -3.6535    2.8805    1.6603 H   0  0  0  0  0  0  0  0  0  0  0  0
   -5.2609    2.0727    0.2928 H   0  0  0  0  0  0  0  0  0  0  0  0
   -4.0155    1.2660   -0.6454 H   0  0  0  0  0  0  0  0  0  0  0  0
   -4.8885   -0.3758   -2.1262 H   0  0  0  0  0  0  0  0  0  0  0  0
   -6.6150   -2.0278   -2.7449 H   0  0  0  0  0  0  0  0  0  0  0  0
   -8.4910   -2.5151   -1.1970 H   0  0  0  0  0  0  0  0  0  0  0  0
   -8.6353   -1.3409    0.9848 H   0  0  0  0  0  0  0  0  0  0  0  0
   -6.9106    0.3163    1.6196 H   0  0  0  0  0  0  0  0  0  0  0  0
   -3.8556   -1.3020    1.6300 H   0  0  0  0  0  0  0  0  0  0  0  0
   -2.9871   -0.6522    0.2345 H   0  0  0  0  0  0  0  0  0  0  0  0
   -2.0896   -0.3237    3.1412 H   0  0  0  0  0  0  0  0  0  0  0  0
   -1.4175   -1.4359    1.9472 H   0  0  0  0  0  0  0  0  0  0  0  0
  1  2  2  0
  2  3  1  0
  3  4  1  0
  4  5  1  0
  5  6  2  0
  6  7  1  0
  7  8  2  0
  8  9  1  0
  9 10  2  0
  2 11  1  0
 11 12  1  0
 12 13  1  0
 13 14  2  0
 14 15  1  0
 15 16  1  0
 16 17  2  0
 16 18  1  0
 18 19  1  0
 19 20  1  0
 20 21  1  0
 21 22  1  0
 22 23  1  0
 23 24  2  0
 24 25  1  0
 25 26  2  0
 26 27  1  0
 27 28  2  0
 21 29  1  0
 29 30  1  0
 10  5  1  0
 15 11  2  0
 30 18  1  0
 28 23  1  0
  3 31  1  0
  4 32  1  0
  4 33  1  0
  6 34  1  0
  7 35  1  0
  8 36  1  0
  9 37  1  0
 10 38  1  0
 12 39  1  0
 13 40  1  0
 19 41  1  0
 19 42  1  0
 20 43  1  0
 20 44  1  0
 22 45  1  0
 22 46  1  0
 24 47  1  0
 25 48  1  0
 26 49  1  0
 27 50  1  0
 28 51  1  0
 29 52  1  0
 29 53  1  0
 30 54  1  0
 30 55  1  0
M  END
$$$$
