
     RDKit          3D

 50 53  0  0  0  0  0  0  0  0999 V2000
    7.4663    2.7376   -0.5475 C   0  0  0  0  0  0  0  0  0  0  0  0
    7.7274    1.4900    0.0855 O   0  0  0  0  0  0  0  0  0  0  0  0
    6.6441    0.7008    0.3613 C   0  0  0  0  0  0  0  0  0  0  0  0
    6.9487   -0.5061    0.9891 C   0  0  0  0  0  0  0  0  0  0  0  0
    5.9349   -1.4014    1.3255 C   0  0  0  0  0  0  0  0  0  0  0  0
    4.5995   -1.0913    1.0320 C   0  0  0  0  0  0  0  0  0  0  0  0
    3.5563   -1.9669    1.3585 C   0  0  0  0  0  0  0  0  0  0  0  0
    2.2672   -1.5892    1.0344 C   0  0  0  0  0  0  0  0  0  0  0  0
    2.0448   -0.3724    0.4104 C   0  0  0  0  0  0  0  0  0  0  0  0
    3.0181    0.4843    0.0872 N   0  0  0  0  0  0  0  0  0  0  0  0
    4.2794    0.1334    0.3931 C   0  0  0  0  0  0  0  0  0  0  0  0
    5.3120    1.0045    0.0713 C   0  0  0  0  0  0  0  0  0  0  0  0
    0.6733   -0.2032    0.1694 N   0  0  0  0  0  0  0  0  0  0  0  0
    0.1148    0.9488   -0.3495 C   0  0  0  0  0  0  0  0  0  0  0  0
    0.6844    2.0069   -0.5940 O   0  0  0  0  0  0  0  0  0  0  0  0
   -1.3427    0.9242   -0.6048 C   0  0  0  0  0  0  0  0  0  0  0  0
   -2.1702    1.7782    0.1345 C   0  0  0  0  0  0  0  0  0  0  0  0
   -3.5457    1.7868   -0.1023 C   0  0  0  0  0  0  0  0  0  0  0  0
   -4.0777    0.9425   -1.0829 C   0  0  0  0  0  0  0  0  0  0  0  0
   -5.8243    0.9480   -1.4147 S   0  0  0  0  0  6  0  0  0  0  0  0
   -5.9848    1.0005   -2.8518 O   0  0  0  0  0  0  0  0  0  0  0  0
   -6.4561    1.9212   -0.5488 O   0  0  0  0  0  0  0  0  0  0  0  0
   -6.3092   -0.6064   -0.8761 N   0  0  0  0  0  0  0  0  0  0  0  0
   -6.1971   -0.8228    0.5840 C   0  0  0  0  0  0  0  0  0  0  0  0
   -7.6509   -0.9892   -1.3759 C   0  0  0  0  0  0  0  0  0  0  0  0
   -3.2491    0.1097   -1.8452 C   0  0  0  0  0  0  0  0  0  0  0  0
   -1.8739    0.1052   -1.6085 C   0  0  0  0  0  0  0  0  0  0  0  0
   -0.0314   -1.4174    0.6072 C   0  0  0  0  0  0  0  0  0  0  0  0
    0.9958   -2.3162    1.3054 C   0  0  0  0  0  0  0  0  0  0  0  0
    7.0130    2.5924   -1.5337 H   0  0  0  0  0  0  0  0  0  0  0  0
    6.8438    3.3788    0.0852 H   0  0  0  0  0  0  0  0  0  0  0  0
    8.4250    3.2446   -0.6936 H   0  0  0  0  0  0  0  0  0  0  0  0
    7.9838   -0.7487    1.2177 H   0  0  0  0  0  0  0  0  0  0  0  0
    6.1958   -2.3360    1.8155 H   0  0  0  0  0  0  0  0  0  0  0  0
    3.7481   -2.9122    1.8559 H   0  0  0  0  0  0  0  0  0  0  0  0
    5.0343    1.9341   -0.4161 H   0  0  0  0  0  0  0  0  0  0  0  0
   -1.7384    2.4437    0.8795 H   0  0  0  0  0  0  0  0  0  0  0  0
   -4.1864    2.4579    0.4658 H   0  0  0  0  0  0  0  0  0  0  0  0
   -5.1808   -0.6263    0.9339 H   0  0  0  0  0  0  0  0  0  0  0  0
   -6.9031   -0.1929    1.1333 H   0  0  0  0  0  0  0  0  0  0  0  0
   -6.4147   -1.8704    0.8177 H   0  0  0  0  0  0  0  0  0  0  0  0
   -8.4201   -0.3098   -0.9962 H   0  0  0  0  0  0  0  0  0  0  0  0
   -7.6668   -0.9908   -2.4696 H   0  0  0  0  0  0  0  0  0  0  0  0
   -7.8938   -2.0063   -1.0513 H   0  0  0  0  0  0  0  0  0  0  0  0
   -3.6704   -0.5174   -2.6287 H   0  0  0  0  0  0  0  0  0  0  0  0
   -1.2196   -0.5141   -2.2173 H   0  0  0  0  0  0  0  0  0  0  0  0
   -0.4427   -1.9207   -0.2748 H   0  0  0  0  0  0  0  0  0  0  0  0
   -0.8611   -1.1529    1.2717 H   0  0  0  0  0  0  0  0  0  0  0  0
    0.8023   -2.3685    2.3815 H   0  0  0  0  0  0  0  0  0  0  0  0
    0.9977   -3.3247    0.8816 H   0  0  0  0  0  0  0  0  0  0  0  0
  1  2  1  0
  2  3  1  0
  3  4  2  0
  4  5  1  0
  5  6  2  0
  6  7  1  0
  7  8  2  0
  8  9  1  0
  9 10  2  0
 10 11  1  0
 11 12  2  0
  9 13  1  0
 13 14  1  0
 14 15  2  0
 14 16  1  0
 16 17  2  0
 17 18  1  0
 18 19  2  0
 19 20  1  0
 20 21  2  0
 20 22  2  0
 20 23  1  0
 23 24  1  0
 23 25  1  0
 19 26  1  0
 26 27  2  0
 13 28  1  0
 28 29  1  0
 12  3  1  0
 27 16  1  0
 11  6  1  0
 29  8  1  0
  1 30  1  0
  1 31  1  0
  1 32  1  0
  4 33  1  0
  5 34  1  0
  7 35  1  0
 12 36  1  0
 17 37  1  0
 18 38  1  0
 24 39  1  0
 24 40  1  0
 24 41  1  0
 25 42  1  0
 25 43  1  0
 25 44  1  0
 26 45  1  0
 27 46  1  0
 28 47  1  0
 28 48  1  0
 29 49  1  0
 29 50  1  0
M  END
$$$$
