
     RDKit          3D

 58 60  0  0  0  0  0  0  0  0999 V2000
   -5.3287    2.7060   -0.4851 C   0  0  0  0  0  0  0  0  0  0  0  0
   -5.6721    1.4316   -1.2396 C   0  0  0  0  0  0  0  0  0  0  0  0
   -6.0719    0.3674   -0.2761 N   0  0  0  0  0  0  0  0  0  0  0  0
   -7.4796    0.5087    0.1975 C   0  0  0  0  0  0  0  0  0  0  0  0
   -7.4868    0.5928    1.7142 C   0  0  0  0  0  0  0  0  0  0  0  0
   -5.6712   -1.2302   -0.7538 S   0  0  0  0  0  6  0  0  0  0  0  0
   -6.1078   -2.1415    0.2825 O   0  0  0  0  0  0  0  0  0  0  0  0
   -6.1012   -1.3882   -2.1271 O   0  0  0  0  0  0  0  0  0  0  0  0
   -3.8962   -1.2113   -0.7081 C   0  0  0  0  0  0  0  0  0  0  0  0
   -3.2532   -1.0275    0.5166 C   0  0  0  0  0  0  0  0  0  0  0  0
   -1.8568   -1.0153    0.5643 C   0  0  0  0  0  0  0  0  0  0  0  0
   -1.0968   -1.1857   -0.6032 C   0  0  0  0  0  0  0  0  0  0  0  0
    0.3080   -1.1590   -0.4614 N   0  0  0  0  0  0  0  0  0  0  0  0
    1.2570   -1.2765   -1.4619 C   0  0  0  0  0  0  0  0  0  0  0  0
    1.0249   -1.4111   -2.6602 O   0  0  0  0  0  0  0  0  0  0  0  0
    2.7036   -1.2182   -0.9792 C   0  0  0  0  0  0  0  0  0  0  0  0
    3.0353   -2.3473    0.0015 C   0  0  0  0  0  0  0  0  0  0  0  0
    4.4840   -2.2331    0.4686 C   0  0  0  0  0  0  0  0  0  0  0  0
    4.7647   -0.8541    1.0598 C   0  0  0  0  0  0  0  0  0  0  0  0
    4.4564    0.1967    0.0492 N   0  0  0  0  0  0  0  0  0  0  0  0
    4.9501    1.7757    0.5190 S   0  0  0  0  0  6  0  0  0  0  0  0
    4.4385    2.0056    1.8532 O   0  0  0  0  0  0  0  0  0  0  0  0
    4.6428    2.6745   -0.5731 O   0  0  0  0  0  0  0  0  0  0  0  0
    6.7304    1.7614    0.5934 C   0  0  0  0  0  0  0  0  0  0  0  0
    7.6771    1.6366   -0.4072 C   0  0  0  0  0  0  0  0  0  0  0  0
    9.0095    1.6676    0.0956 C   0  0  0  0  0  0  0  0  0  0  0  0
    9.0363    1.8125    1.4647 C   0  0  0  0  0  0  0  0  0  0  0  0
    7.4634    1.9140    2.1304 S   0  0  0  0  0  0  0  0  0  0  0  0
    3.0266    0.1535   -0.3862 C   0  0  0  0  0  0  0  0  0  0  0  0
   -1.7591   -1.3751   -1.8200 C   0  0  0  0  0  0  0  0  0  0  0  0
   -3.1574   -1.3930   -1.8765 C   0  0  0  0  0  0  0  0  0  0  0  0
   -4.5339    2.5244    0.2462 H   0  0  0  0  0  0  0  0  0  0  0  0
   -6.1956    3.1006    0.0537 H   0  0  0  0  0  0  0  0  0  0  0  0
   -4.9842    3.4770   -1.1813 H   0  0  0  0  0  0  0  0  0  0  0  0
   -6.4751    1.6150   -1.9620 H   0  0  0  0  0  0  0  0  0  0  0  0
   -4.7874    1.1317   -1.8095 H   0  0  0  0  0  0  0  0  0  0  0  0
   -8.0966   -0.3326   -0.1376 H   0  0  0  0  0  0  0  0  0  0  0  0
   -7.9462    1.4097   -0.2163 H   0  0  0  0  0  0  0  0  0  0  0  0
   -8.5110    0.6994    2.0843 H   0  0  0  0  0  0  0  0  0  0  0  0
   -6.9061    1.4535    2.0619 H   0  0  0  0  0  0  0  0  0  0  0  0
   -7.0528   -0.3050    2.1653 H   0  0  0  0  0  0  0  0  0  0  0  0
   -3.8329   -0.8966    1.4280 H   0  0  0  0  0  0  0  0  0  0  0  0
   -1.3759   -0.8702    1.5286 H   0  0  0  0  0  0  0  0  0  0  0  0
    0.6392   -1.0443    0.4874 H   0  0  0  0  0  0  0  0  0  0  0  0
    3.3350   -1.3589   -1.8689 H   0  0  0  0  0  0  0  0  0  0  0  0
    2.8740   -3.3205   -0.4772 H   0  0  0  0  0  0  0  0  0  0  0  0
    2.3746   -2.3175    0.8760 H   0  0  0  0  0  0  0  0  0  0  0  0
    4.6929   -3.0063    1.2163 H   0  0  0  0  0  0  0  0  0  0  0  0
    5.1555   -2.4140   -0.3802 H   0  0  0  0  0  0  0  0  0  0  0  0
    5.8214   -0.8104    1.3387 H   0  0  0  0  0  0  0  0  0  0  0  0
    4.1603   -0.7015    1.9612 H   0  0  0  0  0  0  0  0  0  0  0  0
    7.4113    1.5362   -1.4535 H   0  0  0  0  0  0  0  0  0  0  0  0
    9.9019    1.5940   -0.5154 H   0  0  0  0  0  0  0  0  0  0  0  0
    9.9040    1.8698    2.1083 H   0  0  0  0  0  0  0  0  0  0  0  0
    2.3809    0.3822    0.4704 H   0  0  0  0  0  0  0  0  0  0  0  0
    2.8474    0.9166   -1.1523 H   0  0  0  0  0  0  0  0  0  0  0  0
   -1.2183   -1.5204   -2.7504 H   0  0  0  0  0  0  0  0  0  0  0  0
   -3.6521   -1.5494   -2.8328 H   0  0  0  0  0  0  0  0  0  0  0  0
  1  2  1  0
  2  3  1  0
  3  4  1  0
  4  5  1  0
  3  6  1  0
  6  7  2  0
  6  8  2  0
  6  9  1  0
  9 10  2  0
 10 11  1  0
 11 12  2  0
 12 13  1  0
 13 14  1  0
 14 15  2  0
 14 16  1  0
 16 17  1  0
 17 18  1  0
 18 19  1  0
 19 20  1  0
 20 21  1  0
 21 22  2  0
 21 23  2  0
 21 24  1  0
 24 25  2  0
 25 26  1  0
 26 27  2  0
 27 28  1  0
 20 29  1  0
 12 30  1  0
 30 31  2  0
 31  9  1  0
 29 16  1  0
 28 24  1  0
  1 32  1  0
  1 33  1  0
  1 34  1  0
  2 35  1  0
  2 36  1  0
  4 37  1  0
  4 38  1  0
  5 39  1  0
  5 40  1  0
  5 41  1  0
 10 42  1  0
 11 43  1  0
 13 44  1  0
 16 45  1  0
 17 46  1  0
 17 47  1  0
 18 48  1  0
 18 49  1  0
 19 50  1  0
 19 51  1  0
 25 52  1  0
 26 53  1  0
 27 54  1  0
 29 55  1  0
 29 56  1  0
 30 57  1  0
 31 58  1  0
M  END
$$$$
