
     RDKit          3D

 50 50  0  0  0  0  0  0  0  0999 V2000
   -0.0029    0.1656   -2.6208 C   0  0  0  0  0  0  0  0  0  0  0  0
   -0.7372    0.3887   -1.3506 C   0  0  0  0  0  0  0  0  0  0  0  0
   -1.9721   -0.1861   -1.2018 C   0  0  0  0  0  0  0  0  0  0  0  0
   -2.7011   -0.0021   -0.0539 C   0  0  0  0  0  0  0  0  0  0  0  0
   -3.9907   -0.5872    0.1330 N   0  0  0  0  0  0  0  0  0  0  0  0
   -4.3514   -1.8439    0.6874 C   0  0  0  0  0  0  0  0  0  0  0  0
   -3.6085   -2.4431    1.5401 O   0  0  0  0  0  0  0  0  0  0  0  0
   -5.6278   -2.3484    0.1820 C   0  0  0  0  0  0  0  0  0  0  0  0
   -6.6127   -1.2073    0.1086 C   0  0  0  0  0  0  0  0  0  0  0  0
   -5.5085    0.1527   -0.3037 S   0  0  0  0  0  6  0  0  0  0  0  0
   -5.5495    0.4696   -1.7565 O   0  0  0  0  0  0  0  0  0  0  0  0
   -5.7987    1.3384    0.5624 O   0  0  0  0  0  0  0  0  0  0  0  0
   -2.1528    0.7773    0.9417 C   0  0  0  0  0  0  0  0  0  0  0  0
   -0.9120    1.3617    0.8065 C   0  0  0  0  0  0  0  0  0  0  0  0
   -0.3599    2.2012    1.9099 C   0  0  0  0  0  0  0  0  0  0  0  0
   -0.1762    1.1673   -0.3687 C   0  0  0  0  0  0  0  0  0  0  0  0
    1.3816    1.9145   -0.4752 S   0  0  0  0  0  6  0  0  0  0  0  0
    1.7580    2.3402   -1.8657 O   0  0  0  0  0  0  0  0  0  0  0  0
    1.3879    3.2169    0.3317 O   0  0  0  0  0  0  0  0  0  0  0  0
    2.6578    0.9675    0.1791 N   0  0  0  0  0  0  0  0  0  0  0  0
    2.8402   -0.2948   -0.4865 C   0  0  0  0  0  0  0  0  0  0  0  0
    3.9666   -1.0660    0.1268 C   0  0  0  0  0  0  0  0  0  0  0  0
    5.2448   -0.4131    0.0681 N   0  0  0  0  0  0  0  0  0  0  0  0
    6.2162   -1.3251    0.6981 C   0  0  0  0  0  0  0  0  0  0  0  0
    5.2984    0.8635    0.7086 C   0  0  0  0  0  0  0  0  0  0  0  0
    0.6920    0.0000    0.0000 Cl  0  0  0  0  0  0  0  0  0  0  0  0
    0.3207    1.0781   -3.1303 H   0  0  0  0  0  0  0  0  0  0  0  0
   -0.7082   -0.3219   -3.3651 H   0  0  0  0  0  0  0  0  0  0  0  0
    0.7645   -0.5996   -2.4513 H   0  0  0  0  0  0  0  0  0  0  0  0
   -2.4250   -0.8084   -1.9809 H   0  0  0  0  0  0  0  0  0  0  0  0
   -6.0034   -3.1324    0.8402 H   0  0  0  0  0  0  0  0  0  0  0  0
   -5.5065   -2.8323   -0.8311 H   0  0  0  0  0  0  0  0  0  0  0  0
   -7.1212   -1.0444    1.0644 H   0  0  0  0  0  0  0  0  0  0  0  0
   -7.3158   -1.3986   -0.7203 H   0  0  0  0  0  0  0  0  0  0  0  0
   -2.7096    0.9473    1.8774 H   0  0  0  0  0  0  0  0  0  0  0  0
   -0.4989    3.2858    1.7052 H   0  0  0  0  0  0  0  0  0  0  0  0
   -0.9625    2.0173    2.8470 H   0  0  0  0  0  0  0  0  0  0  0  0
    0.6736    1.9493    2.1586 H   0  0  0  0  0  0  0  0  0  0  0  0
    2.4832    0.7295    1.1961 H   0  0  0  0  0  0  0  0  0  0  0  0
    1.9116   -0.9348   -0.3941 H   0  0  0  0  0  0  0  0  0  0  0  0
    3.0099   -0.1938   -1.5672 H   0  0  0  0  0  0  0  0  0  0  0  0
    4.0874   -2.0674   -0.3601 H   0  0  0  0  0  0  0  0  0  0  0  0
    3.7806   -1.2856    1.2197 H   0  0  0  0  0  0  0  0  0  0  0  0
    5.7835   -2.3271    0.8620 H   0  0  0  0  0  0  0  0  0  0  0  0
    6.6043   -0.9185    1.6355 H   0  0  0  0  0  0  0  0  0  0  0  0
    7.0367   -1.4264   -0.0294 H   0  0  0  0  0  0  0  0  0  0  0  0
    6.3825    1.1278    0.8916 H   0  0  0  0  0  0  0  0  0  0  0  0
    4.8044    0.8970    1.7058 H   0  0  0  0  0  0  0  0  0  0  0  0
    4.9187    1.6509    0.0594 H   0  0  0  0  0  0  0  0  0  0  0  0
   -0.6920    0.0000    0.0000 H   0  0  0  0  0  0  0  0  0  0  0  0
  1  2  1  0
  2  3  2  0
  3  4  1  0
  4  5  1  0
  5  6  1  0
  6  7  2  0
  6  8  1  0
  8  9  1  0
  9 10  1  0
 10 11  2  0
 10 12  2  0
  4 13  2  0
 13 14  1  0
 14 15  1  0
 14 16  2  0
 16 17  1  0
 17 18  2  0
 17 19  2  0
 17 20  1  0
 20 21  1  0
 21 22  1  0
 22 23  1  0
 23 24  1  0
 23 25  1  0
 16  2  1  0
 10  5  1  0
  1 27  1  0
  1 28  1  0
  1 29  1  0
  3 30  1  0
  8 31  1  0
  8 32  1  0
  9 33  1  0
  9 34  1  0
 13 35  1  0
 15 36  1  0
 15 37  1  0
 15 38  1  0
 20 39  1  0
 21 40  1  0
 21 41  1  0
 22 42  1  0
 22 43  1  0
 24 44  1  0
 24 45  1  0
 24 46  1  0
 25 47  1  0
 25 48  1  0
 25 49  1  0
 26 50  1  0
M  END
$$$$
