
     RDKit          3D

 55 56  0  0  0  0  0  0  0  0999 V2000
    6.6255   -2.5183   -0.7032 C   0  0  0  0  0  0  0  0  0  0  0  0
    6.1210   -2.2214    0.7189 C   0  0  0  0  0  0  0  0  0  0  0  0
    6.5483   -0.8102    1.0164 C   0  0  0  0  0  0  0  0  0  0  0  0
    6.0593    0.1751    0.1872 O   0  0  0  0  0  0  0  0  0  0  0  0
    4.7559    0.5589    0.0411 C   0  0  0  0  0  0  0  0  0  0  0  0
    4.5101    1.5758   -0.9127 C   0  0  0  0  0  0  0  0  0  0  0  0
    3.2281    1.9886   -1.0853 C   0  0  0  0  0  0  0  0  0  0  0  0
    2.1222    1.4783   -0.3837 C   0  0  0  0  0  0  0  0  0  0  0  0
    0.8143    1.9442   -0.7087 C   0  0  0  0  0  0  0  0  0  0  0  0
    0.7468    2.5694   -1.8667 O   0  0  0  0  0  0  0  0  0  0  0  0
   -0.3494    1.8254    0.0168 N   0  0  0  0  0  0  0  0  0  0  0  0
   -0.5635    1.2925    1.3082 C   0  0  0  0  0  0  0  0  0  0  0  0
   -1.2591   -0.0604    1.0698 C   0  0  0  0  0  0  0  0  0  0  0  0
   -2.5338    0.2408    0.5329 N   0  0  0  0  0  0  0  0  0  0  0  0
   -3.5435    0.5807    1.4662 C   0  0  0  0  0  0  0  0  0  0  0  0
   -4.8724    0.8914    0.8846 C   0  0  0  0  0  0  0  0  0  0  0  0
   -5.4874   -0.2126    0.1331 C   0  0  0  0  0  0  0  0  0  0  0  0
   -4.8657   -1.4353    0.0513 C   0  0  0  0  0  0  0  0  0  0  0  0
   -5.4836   -2.4395   -0.6751 C   0  0  0  0  0  0  0  0  0  0  0  0
   -6.6924   -2.1942   -1.2918 C   0  0  0  0  0  0  0  0  0  0  0  0
   -7.3047   -0.9622   -1.2007 C   0  0  0  0  0  0  0  0  0  0  0  0
   -6.6879   -0.0044   -0.4920 N   0  0  0  0  0  0  0  0  0  0  0  0
   -2.4666    0.9773   -0.6735 C   0  0  0  0  0  0  0  0  0  0  0  0
   -1.6372    2.2466   -0.6318 C   0  0  0  0  0  0  0  0  0  0  0  0
    2.3827    0.5075    0.5204 C   0  0  0  0  0  0  0  0  0  0  0  0
    3.6930    0.0465    0.7374 C   0  0  0  0  0  0  0  0  0  0  0  0
    0.6907    0.0000    0.0000 Cl  0  0  0  0  0  0  0  0  0  0  0  0
    7.7169   -2.7189   -0.6692 H   0  0  0  0  0  0  0  0  0  0  0  0
    6.3792   -1.6397   -1.3376 H   0  0  0  0  0  0  0  0  0  0  0  0
    6.0504   -3.3743   -1.1098 H   0  0  0  0  0  0  0  0  0  0  0  0
    5.0604   -2.4279    0.7123 H   0  0  0  0  0  0  0  0  0  0  0  0
    6.6984   -2.8772    1.4141 H   0  0  0  0  0  0  0  0  0  0  0  0
    6.2982   -0.6357    2.1010 H   0  0  0  0  0  0  0  0  0  0  0  0
    7.6802   -0.7975    0.9354 H   0  0  0  0  0  0  0  0  0  0  0  0
    5.3363    1.9904   -1.4698 H   0  0  0  0  0  0  0  0  0  0  0  0
    3.0406    2.7718   -1.8149 H   0  0  0  0  0  0  0  0  0  0  0  0
   -1.3568    1.9581    1.8595 H   0  0  0  0  0  0  0  0  0  0  0  0
    0.2322    1.2181    2.0095 H   0  0  0  0  0  0  0  0  0  0  0  0
   -1.2464   -0.6812    1.9618 H   0  0  0  0  0  0  0  0  0  0  0  0
   -0.6508   -0.5576    0.2866 H   0  0  0  0  0  0  0  0  0  0  0  0
   -3.2769    1.4256    2.1555 H   0  0  0  0  0  0  0  0  0  0  0  0
   -3.6829   -0.3093    2.1524 H   0  0  0  0  0  0  0  0  0  0  0  0
   -4.8311    1.8131    0.2503 H   0  0  0  0  0  0  0  0  0  0  0  0
   -5.5504    1.1730    1.7402 H   0  0  0  0  0  0  0  0  0  0  0  0
   -3.9299   -1.6213    0.5367 H   0  0  0  0  0  0  0  0  0  0  0  0
   -4.9821   -3.4047   -0.7337 H   0  0  0  0  0  0  0  0  0  0  0  0
   -7.1721   -2.9902   -1.8617 H   0  0  0  0  0  0  0  0  0  0  0  0
   -8.2638   -0.7755   -1.6927 H   0  0  0  0  0  0  0  0  0  0  0  0
   -1.9440    0.3201   -1.4317 H   0  0  0  0  0  0  0  0  0  0  0  0
   -3.4550    1.1964   -1.1147 H   0  0  0  0  0  0  0  0  0  0  0  0
   -2.0829    3.0650   -0.0745 H   0  0  0  0  0  0  0  0  0  0  0  0
   -1.4192    2.5408   -1.6707 H   0  0  0  0  0  0  0  0  0  0  0  0
    1.6269    0.0121    1.0810 H   0  0  0  0  0  0  0  0  0  0  0  0
    3.8642   -0.7142    1.4901 H   0  0  0  0  0  0  0  0  0  0  0  0
   -0.6907    0.0000    0.0000 H   0  0  0  0  0  0  0  0  0  0  0  0
  1  2  1  0
  2  3  1  0
  3  4  1  0
  4  5  1  0
  5  6  2  0
  6  7  1  0
  7  8  2  0
  8  9  1  0
  9 10  2  0
  9 11  1  0
 11 12  1  0
 12 13  1  0
 13 14  1  0
 14 15  1  0
 15 16  1  0
 16 17  1  0
 17 18  2  0
 18 19  1  0
 19 20  2  0
 20 21  1  0
 21 22  2  0
 14 23  1  0
 23 24  1  0
  8 25  1  0
 25 26  2  0
 26  5  1  0
 24 11  1  0
 22 17  1  0
  1 28  1  0
  1 29  1  0
  1 30  1  0
  2 31  1  0
  2 32  1  0
  3 33  1  0
  3 34  1  0
  6 35  1  0
  7 36  1  0
 12 37  1  0
 12 38  1  0
 13 39  1  0
 13 40  1  0
 15 41  1  0
 15 42  1  0
 16 43  1  0
 16 44  1  0
 18 45  1  0
 19 46  1  0
 20 47  1  0
 21 48  1  0
 23 49  1  0
 23 50  1  0
 24 51  1  0
 24 52  1  0
 25 53  1  0
 26 54  1  0
 27 55  1  0
M  END
$$$$
