
     RDKit          3D

 40 42  0  0  0  0  0  0  0  0999 V2000
   -3.3554    1.6541   -3.1331 C   0  0  0  0  0  0  0  0  0  0  0  0
   -3.9485    0.7997   -2.1638 O   0  0  0  0  0  0  0  0  0  0  0  0
   -3.1310    0.2736   -1.1981 C   0  0  0  0  0  0  0  0  0  0  0  0
   -1.7606    0.5080   -1.0987 C   0  0  0  0  0  0  0  0  0  0  0  0
   -1.0234   -0.0646   -0.0527 C   0  0  0  0  0  0  0  0  0  0  0  0
    0.4334    0.2299    0.0182 C   0  0  0  0  0  0  0  0  0  0  0  0
    1.0610    0.2912   -1.0306 O   0  0  0  0  0  0  0  0  0  0  0  0
    0.9108    0.4456    1.2905 N   0  0  0  0  0  0  0  0  0  0  0  0
    2.2309    0.7119    1.5271 C   0  0  0  0  0  0  0  0  0  0  0  0
    3.2530    0.7482    0.7152 N   0  0  0  0  0  0  0  0  0  0  0  0
    4.3893    1.0618    1.4594 C   0  0  0  0  0  0  0  0  0  0  0  0
    5.7820    1.1800    0.7318 C   0  0  0  0  0  0  0  0  0  0  0  0
    5.9455    0.9910   -0.6243 C   0  0  0  0  0  0  0  0  0  0  0  0
    7.3036    1.1552   -1.0273 C   0  0  0  0  0  0  0  0  0  0  0  0
    8.1223    1.4631    0.0374 C   0  0  0  0  0  0  0  0  0  0  0  0
    7.2532    1.5522    1.5103 S   0  0  0  0  0  0  0  0  0  0  0  0
    4.2706    1.2533    2.7797 N   0  0  0  0  0  0  0  0  0  0  0  0
    2.6570    1.0438    3.1470 S   0  0  0  0  0  0  0  0  0  0  0  0
   -1.6406   -0.9047    0.8859 C   0  0  0  0  0  0  0  0  0  0  0  0
   -3.0106   -1.1534    0.7982 C   0  0  0  0  0  0  0  0  0  0  0  0
   -3.7201   -1.9474    1.6610 O   0  0  0  0  0  0  0  0  0  0  0  0
   -3.0119   -2.5876    2.7128 C   0  0  0  0  0  0  0  0  0  0  0  0
   -3.7442   -0.5646   -0.2491 C   0  0  0  0  0  0  0  0  0  0  0  0
   -5.1070   -0.7630   -0.3034 O   0  0  0  0  0  0  0  0  0  0  0  0
   -5.4023   -1.8834   -1.1361 C   0  0  0  0  0  0  0  0  0  0  0  0
   -4.1447    1.9837   -3.8155 H   0  0  0  0  0  0  0  0  0  0  0  0
   -2.6062    1.1184   -3.7252 H   0  0  0  0  0  0  0  0  0  0  0  0
   -2.9271    2.5460   -2.6641 H   0  0  0  0  0  0  0  0  0  0  0  0
   -1.2368    1.1370   -1.8131 H   0  0  0  0  0  0  0  0  0  0  0  0
    0.2863    0.4929    2.0811 H   0  0  0  0  0  0  0  0  0  0  0  0
    5.1281    0.7471   -1.2943 H   0  0  0  0  0  0  0  0  0  0  0  0
    7.6593    1.0529   -2.0453 H   0  0  0  0  0  0  0  0  0  0  0  0
    9.1889    1.6409    0.0249 H   0  0  0  0  0  0  0  0  0  0  0  0
   -1.0381   -1.3740    1.6550 H   0  0  0  0  0  0  0  0  0  0  0  0
   -2.2579   -3.2765    2.3181 H   0  0  0  0  0  0  0  0  0  0  0  0
   -2.5617   -1.8535    3.3889 H   0  0  0  0  0  0  0  0  0  0  0  0
   -3.7306   -3.1762    3.2910 H   0  0  0  0  0  0  0  0  0  0  0  0
   -5.0805   -1.7110   -2.1688 H   0  0  0  0  0  0  0  0  0  0  0  0
   -4.9484   -2.8012   -0.7465 H   0  0  0  0  0  0  0  0  0  0  0  0
   -6.4879   -2.0198   -1.1400 H   0  0  0  0  0  0  0  0  0  0  0  0
  1  2  1  0
  2  3  1  0
  3  4  2  0
  4  5  1  0
  5  6  1  0
  6  7  2  0
  6  8  1  0
  8  9  1  0
  9 10  2  0
 10 11  1  0
 11 12  1  0
 12 13  2  0
 13 14  1  0
 14 15  2  0
 15 16  1  0
 11 17  2  0
 17 18  1  0
  5 19  2  0
 19 20  1  0
 20 21  1  0
 21 22  1  0
 20 23  2  0
 23 24  1  0
 24 25  1  0
 23  3  1  0
 18  9  1  0
 16 12  1  0
  1 26  1  0
  1 27  1  0
  1 28  1  0
  4 29  1  0
  8 30  1  0
 13 31  1  0
 14 32  1  0
 15 33  1  0
 19 34  1  0
 22 35  1  0
 22 36  1  0
 22 37  1  0
 25 38  1  0
 25 39  1  0
 25 40  1  0
M  END
$$$$
