
     RDKit          3D

 50 52  0  0  0  0  0  0  0  0999 V2000
   -3.5564   -2.8196    2.8014 C   0  0  0  0  0  0  0  0  0  0  0  0
   -3.8483   -1.9436    1.5789 C   0  0  0  0  0  0  0  0  0  0  0  0
   -5.1622   -2.3955    0.9327 C   0  0  0  0  0  0  0  0  0  0  0  0
   -2.6742   -2.0119    0.5817 C   0  0  0  0  0  0  0  0  0  0  0  0
   -2.6337   -0.8430   -0.3897 C   0  0  0  0  0  0  0  0  0  0  0  0
   -3.5882   -0.0740   -0.4912 O   0  0  0  0  0  0  0  0  0  0  0  0
   -1.4398   -0.5893   -1.1365 N   0  0  0  0  0  0  0  0  0  0  0  0
   -1.3533    0.6590   -1.9553 C   0  0  0  0  0  0  0  0  0  0  0  0
   -0.6859    1.8028   -1.2189 C   0  0  0  0  0  0  0  0  0  0  0  0
   -1.2504    2.3293   -0.0464 C   0  0  0  0  0  0  0  0  0  0  0  0
   -0.6130    3.3570    0.6508 C   0  0  0  0  0  0  0  0  0  0  0  0
    0.5923    3.8777    0.1817 C   0  0  0  0  0  0  0  0  0  0  0  0
    1.1521    3.3838   -0.9948 C   0  0  0  0  0  0  0  0  0  0  0  0
    0.5131    2.3587   -1.6962 C   0  0  0  0  0  0  0  0  0  0  0  0
   -0.3000   -1.7760   -1.5424 S   0  0  0  0  0  6  0  0  0  0  0  0
   -0.4108   -2.9338   -0.6836 O   0  0  0  0  0  0  0  0  0  0  0  0
   -0.3211   -1.9313   -2.9829 O   0  0  0  0  0  0  0  0  0  0  0  0
    1.2508   -1.0153   -1.1081 C   0  0  0  0  0  0  0  0  0  0  0  0
    2.2443   -0.8378   -2.0976 C   0  0  0  0  0  0  0  0  0  0  0  0
    3.4559   -0.2195   -1.7731 C   0  0  0  0  0  0  0  0  0  0  0  0
    3.6178    0.1972   -0.4664 C   0  0  0  0  0  0  0  0  0  0  0  0
    2.6501    0.0073    0.5022 C   0  0  0  0  0  0  0  0  0  0  0  0
    1.4509   -0.6062    0.2188 C   0  0  0  0  0  0  0  0  0  0  0  0
    3.0273    0.4985    1.7440 O   0  0  0  0  0  0  0  0  0  0  0  0
    4.3081    1.0116    1.4923 C   0  0  0  0  0  0  0  0  0  0  0  0
    4.9968    1.5354    2.3595 O   0  0  0  0  0  0  0  0  0  0  0  0
    4.6577    0.8340    0.1664 N   0  0  0  0  0  0  0  0  0  0  0  0
    5.9118    1.1872   -0.4351 C   0  0  0  0  0  0  0  0  0  0  0  0
   -3.4026   -3.8654    2.5137 H   0  0  0  0  0  0  0  0  0  0  0  0
   -4.3877   -2.7828    3.5110 H   0  0  0  0  0  0  0  0  0  0  0  0
   -2.6576   -2.4761    3.3209 H   0  0  0  0  0  0  0  0  0  0  0  0
   -3.9704   -0.9094    1.9285 H   0  0  0  0  0  0  0  0  0  0  0  0
   -5.1161   -3.4477    0.6288 H   0  0  0  0  0  0  0  0  0  0  0  0
   -5.9930   -2.2848    1.6359 H   0  0  0  0  0  0  0  0  0  0  0  0
   -5.4019   -1.7995    0.0466 H   0  0  0  0  0  0  0  0  0  0  0  0
   -2.7336   -2.9457    0.0123 H   0  0  0  0  0  0  0  0  0  0  0  0
   -1.7379   -1.9858    1.1523 H   0  0  0  0  0  0  0  0  0  0  0  0
   -2.3532    0.9785   -2.2758 H   0  0  0  0  0  0  0  0  0  0  0  0
   -0.8221    0.4752   -2.8963 H   0  0  0  0  0  0  0  0  0  0  0  0
   -2.1984    1.9477    0.3322 H   0  0  0  0  0  0  0  0  0  0  0  0
   -1.0601    3.7532    1.5597 H   0  0  0  0  0  0  0  0  0  0  0  0
    1.0871    4.6762    0.7294 H   0  0  0  0  0  0  0  0  0  0  0  0
    2.0879    3.7983   -1.3648 H   0  0  0  0  0  0  0  0  0  0  0  0
    0.9658    1.9940   -2.6156 H   0  0  0  0  0  0  0  0  0  0  0  0
    2.0740   -1.1772   -3.1194 H   0  0  0  0  0  0  0  0  0  0  0  0
    4.2252   -0.0758   -2.5240 H   0  0  0  0  0  0  0  0  0  0  0  0
    0.6986   -0.7415    0.9885 H   0  0  0  0  0  0  0  0  0  0  0  0
    5.7354    1.8391   -1.2971 H   0  0  0  0  0  0  0  0  0  0  0  0
    6.5467    1.7112    0.2853 H   0  0  0  0  0  0  0  0  0  0  0  0
    6.4219    0.2753   -0.7606 H   0  0  0  0  0  0  0  0  0  0  0  0
  1  2  1  0
  2  3  1  0
  2  4  1  0
  4  5  1  0
  5  6  2  0
  5  7  1  0
  7  8  1  0
  8  9  1  0
  9 10  2  0
 10 11  1  0
 11 12  2  0
 12 13  1  0
 13 14  2  0
  7 15  1  0
 15 16  2  0
 15 17  2  0
 15 18  1  0
 18 19  2  0
 19 20  1  0
 20 21  2  0
 21 22  1  0
 22 23  2  0
 22 24  1  0
 24 25  1  0
 25 26  2  0
 25 27  1  0
 27 28  1  0
 14  9  1  0
 23 18  1  0
 27 21  1  0
  1 29  1  0
  1 30  1  0
  1 31  1  0
  2 32  1  0
  3 33  1  0
  3 34  1  0
  3 35  1  0
  4 36  1  0
  4 37  1  0
  8 38  1  0
  8 39  1  0
 10 40  1  0
 11 41  1  0
 12 42  1  0
 13 43  1  0
 14 44  1  0
 19 45  1  0
 20 46  1  0
 23 47  1  0
 28 48  1  0
 28 49  1  0
 28 50  1  0
M  END
$$$$
