
     RDKit          3D

 42 44  0  0  0  0  0  0  0  0999 V2000
    3.0163    1.9599   -0.9186 C   0  0  0  0  0  0  0  0  0  0  0  0
    3.6309    0.5913   -1.1409 C   0  0  0  0  0  0  0  0  0  0  0  0
    2.6480   -0.4098   -1.5151 N   0  0  0  0  0  0  0  0  0  0  0  0
    2.5262   -1.0028   -2.7340 C   0  0  0  0  0  0  0  0  0  0  0  0
    1.4837   -1.8847   -2.6135 C   0  0  0  0  0  0  0  0  0  0  0  0
    1.0088   -1.7481   -1.2770 C   0  0  0  0  0  0  0  0  0  0  0  0
   -0.1169   -2.5183   -0.7071 C   0  0  0  0  0  0  0  0  0  0  0  0
   -0.4531   -3.5864   -1.2286 O   0  0  0  0  0  0  0  0  0  0  0  0
   -0.8264   -2.0277    0.3832 N   0  0  0  0  0  0  0  0  0  0  0  0
   -1.8877   -2.8267    0.9684 C   0  0  0  0  0  0  0  0  0  0  0  0
   -2.5861   -1.9048    1.9529 C   0  0  0  0  0  0  0  0  0  0  0  0
   -1.4718   -0.9631    2.3839 C   0  0  0  0  0  0  0  0  0  0  0  0
   -0.6501   -0.7571    1.0973 C   0  0  0  0  0  0  0  0  0  0  0  0
   -1.1229    0.4764    0.3251 C   0  0  0  0  0  0  0  0  0  0  0  0
   -1.9733    0.3492   -0.7931 C   0  0  0  0  0  0  0  0  0  0  0  0
   -2.3942    1.4643   -1.5186 C   0  0  0  0  0  0  0  0  0  0  0  0
   -1.9933    2.7362   -1.1327 C   0  0  0  0  0  0  0  0  0  0  0  0
   -1.1771    2.8928   -0.0158 C   0  0  0  0  0  0  0  0  0  0  0  0
   -0.7256    1.7784    0.7152 C   0  0  0  0  0  0  0  0  0  0  0  0
    0.1344    2.0315    1.9259 C   0  0  0  0  0  0  0  0  0  0  0  0
    1.7679   -0.8596   -0.6046 N   0  0  0  0  0  0  0  0  0  0  0  0
    2.4542    2.2928   -1.7983 H   0  0  0  0  0  0  0  0  0  0  0  0
    3.7944    2.6983   -0.6983 H   0  0  0  0  0  0  0  0  0  0  0  0
    2.3249    1.9431   -0.0720 H   0  0  0  0  0  0  0  0  0  0  0  0
    4.3771    0.6428   -1.9391 H   0  0  0  0  0  0  0  0  0  0  0  0
    4.1340    0.2350   -0.2335 H   0  0  0  0  0  0  0  0  0  0  0  0
    3.1742   -0.7593   -3.5643 H   0  0  0  0  0  0  0  0  0  0  0  0
    1.0907   -2.5404   -3.3751 H   0  0  0  0  0  0  0  0  0  0  0  0
   -1.4259   -3.6801    1.4738 H   0  0  0  0  0  0  0  0  0  0  0  0
   -2.5682   -3.2014    0.1960 H   0  0  0  0  0  0  0  0  0  0  0  0
   -3.3796   -1.3419    1.4477 H   0  0  0  0  0  0  0  0  0  0  0  0
   -3.0323   -2.4463    2.7900 H   0  0  0  0  0  0  0  0  0  0  0  0
   -1.8569   -0.0432    2.8335 H   0  0  0  0  0  0  0  0  0  0  0  0
   -0.8507   -1.4683    3.1338 H   0  0  0  0  0  0  0  0  0  0  0  0
    0.4031   -0.6554    1.3620 H   0  0  0  0  0  0  0  0  0  0  0  0
   -2.3164   -0.6296   -1.1206 H   0  0  0  0  0  0  0  0  0  0  0  0
   -3.0303    1.3348   -2.3899 H   0  0  0  0  0  0  0  0  0  0  0  0
   -2.3191    3.6078   -1.6947 H   0  0  0  0  0  0  0  0  0  0  0  0
   -0.8852    3.8989    0.2790 H   0  0  0  0  0  0  0  0  0  0  0  0
    0.5389    3.0511    1.9187 H   0  0  0  0  0  0  0  0  0  0  0  0
   -0.4584    1.9141    2.8355 H   0  0  0  0  0  0  0  0  0  0  0  0
    0.9940    1.3562    1.9585 H   0  0  0  0  0  0  0  0  0  0  0  0
  1  2  1  0
  2  3  1  0
  3  4  1  0
  4  5  2  0
  5  6  1  0
  6  7  1  0
  7  8  2  0
  7  9  1  0
  9 10  1  0
 10 11  1  0
 11 12  1  0
 12 13  1  0
 13 14  1  0
 14 15  2  0
 15 16  1  0
 16 17  2  0
 17 18  1  0
 18 19  2  0
 19 20  1  0
  6 21  2  0
 21  3  1  0
 13  9  1  0
 19 14  1  0
  1 22  1  0
  1 23  1  0
  1 24  1  0
  2 25  1  0
  2 26  1  0
  4 27  1  0
  5 28  1  0
 10 29  1  0
 10 30  1  0
 11 31  1  0
 11 32  1  0
 12 33  1  0
 12 34  1  0
 13 35  1  0
 15 36  1  0
 16 37  1  0
 17 38  1  0
 18 39  1  0
 20 40  1  0
 20 41  1  0
 20 42  1  0
M  END
$$$$
