
     RDKit          3D

 41 43  0  0  0  0  0  0  0  0999 V2000
   -6.1813    0.5118   -1.1196 C   0  0  0  0  0  0  0  0  0  0  0  0
   -5.4367   -0.8002   -1.1292 C   0  0  0  0  0  0  0  0  0  0  0  0
   -5.9018   -1.7813   -1.6946 O   0  0  0  0  0  0  0  0  0  0  0  0
   -4.2365   -0.7237   -0.4492 N   0  0  0  0  0  0  0  0  0  0  0  0
   -3.4195   -1.8161   -0.1861 C   0  0  0  0  0  0  0  0  0  0  0  0
   -3.7570   -3.0840   -0.4244 N   0  0  0  0  0  0  0  0  0  0  0  0
   -2.7735   -3.8575    0.1648 O   0  0  0  0  0  0  0  0  0  0  0  0
   -1.8011   -3.0634    0.7507 N   0  0  0  0  0  0  0  0  0  0  0  0
   -2.1536   -1.8089    0.4559 C   0  0  0  0  0  0  0  0  0  0  0  0
   -1.2111   -0.6181    0.8449 C   0  0  0  0  0  0  0  0  0  0  0  0
   -0.2555   -0.7437    1.7511 N   0  0  0  0  0  0  0  0  0  0  0  0
    0.3006    0.4864    1.9718 N   0  0  0  0  0  0  0  0  0  0  0  0
   -0.2453    1.3217    1.1230 C   0  0  0  0  0  0  0  0  0  0  0  0
    0.1786    2.9855    0.9416 S   0  0  0  0  0  0  0  0  0  0  0  0
    1.8489    2.9863    1.6691 C   0  0  0  0  0  0  0  0  0  0  0  0
    2.8325    2.2799    0.7449 C   0  0  0  0  0  0  0  0  0  0  0  0
    3.4415    2.9074   -0.1181 O   0  0  0  0  0  0  0  0  0  0  0  0
    2.9192    0.9173    0.9782 N   0  0  0  0  0  0  0  0  0  0  0  0
    3.7239   -0.0239    0.3083 C   0  0  0  0  0  0  0  0  0  0  0  0
    4.7110    0.3116   -0.6204 C   0  0  0  0  0  0  0  0  0  0  0  0
    5.4705   -0.6888   -1.2386 C   0  0  0  0  0  0  0  0  0  0  0  0
    5.2448   -2.0270   -0.9278 C   0  0  0  0  0  0  0  0  0  0  0  0
    6.1815   -3.2536   -1.6873 Cl  0  0  0  0  0  0  0  0  0  0  0  0
    4.2650   -2.3754   -0.0027 C   0  0  0  0  0  0  0  0  0  0  0  0
    3.5082   -1.3749    0.6141 C   0  0  0  0  0  0  0  0  0  0  0  0
   -1.1613    0.6652    0.3449 N   0  0  0  0  0  0  0  0  0  0  0  0
   -1.7110    1.1498   -0.8962 C   0  0  0  0  0  0  0  0  0  0  0  0
   -6.8563    0.5528   -1.9794 H   0  0  0  0  0  0  0  0  0  0  0  0
   -5.4881    1.3553   -1.1921 H   0  0  0  0  0  0  0  0  0  0  0  0
   -6.7624    0.5915   -0.1971 H   0  0  0  0  0  0  0  0  0  0  0  0
   -4.0050    0.1412    0.0132 H   0  0  0  0  0  0  0  0  0  0  0  0
    2.1801    4.0229    1.7907 H   0  0  0  0  0  0  0  0  0  0  0  0
    1.8514    2.5322    2.6651 H   0  0  0  0  0  0  0  0  0  0  0  0
    2.2361    0.5240    1.6273 H   0  0  0  0  0  0  0  0  0  0  0  0
    4.9224    1.3440   -0.8810 H   0  0  0  0  0  0  0  0  0  0  0  0
    6.2363   -0.4115   -1.9580 H   0  0  0  0  0  0  0  0  0  0  0  0
    4.0834   -3.4178    0.2440 H   0  0  0  0  0  0  0  0  0  0  0  0
    2.7441   -1.6674    1.3325 H   0  0  0  0  0  0  0  0  0  0  0  0
   -0.9614    1.7466   -1.4220 H   0  0  0  0  0  0  0  0  0  0  0  0
   -2.5884    1.7603   -0.6712 H   0  0  0  0  0  0  0  0  0  0  0  0
   -1.9730    0.3094   -1.5413 H   0  0  0  0  0  0  0  0  0  0  0  0
  1  2  1  0
  2  3  2  0
  2  4  1  0
  4  5  1  0
  5  6  2  0
  6  7  1  0
  7  8  1  0
  8  9  2  0
  9 10  1  0
 10 11  2  0
 11 12  1  0
 12 13  2  0
 13 14  1  0
 14 15  1  0
 15 16  1  0
 16 17  2  0
 16 18  1  0
 18 19  1  0
 19 20  2  0
 20 21  1  0
 21 22  2  0
 22 23  1  0
 22 24  1  0
 24 25  2  0
 13 26  1  0
 26 27  1  0
  9  5  1  0
 26 10  1  0
 25 19  1  0
  1 28  1  0
  1 29  1  0
  1 30  1  0
  4 31  1  0
 15 32  1  0
 15 33  1  0
 18 34  1  0
 20 35  1  0
 21 36  1  0
 24 37  1  0
 25 38  1  0
 27 39  1  0
 27 40  1  0
 27 41  1  0
M  END
$$$$
