
     RDKit          3D

 56 59  0  0  0  0  0  0  0  0999 V2000
    5.2312   -1.4481   -0.7696 C   0  0  0  0  0  0  0  0  0  0  0  0
    4.5317   -0.2827   -1.2168 O   0  0  0  0  0  0  0  0  0  0  0  0
    4.9289    0.8177   -0.4937 C   0  0  0  0  0  0  0  0  0  0  0  0
    6.1682    1.3817   -0.8332 C   0  0  0  0  0  0  0  0  0  0  0  0
    6.6563    2.4768   -0.1312 C   0  0  0  0  0  0  0  0  0  0  0  0
    5.9000    3.0164    0.9007 C   0  0  0  0  0  0  0  0  0  0  0  0
    4.6482    2.4736    1.2173 C   0  0  0  0  0  0  0  0  0  0  0  0
    4.1206    1.3727    0.5224 C   0  0  0  0  0  0  0  0  0  0  0  0
    2.8189    0.8793    0.8399 N   0  0  0  0  0  0  0  0  0  0  0  0
    2.0932   -0.0468    0.0006 C   0  0  0  0  0  0  0  0  0  0  0  0
    0.6443    0.1132    0.4369 C   0  0  0  0  0  0  0  0  0  0  0  0
   -0.1784   -1.0971    0.1390 C   0  0  0  0  0  0  0  0  0  0  0  0
    0.0692   -2.3036    0.6124 N   0  0  0  0  0  0  0  0  0  0  0  0
   -0.9279   -3.1135    0.1371 C   0  0  0  0  0  0  0  0  0  0  0  0
   -1.1447   -4.4817    0.3581 C   0  0  0  0  0  0  0  0  0  0  0  0
   -2.2502   -5.0956   -0.2427 C   0  0  0  0  0  0  0  0  0  0  0  0
   -3.1217   -4.3606   -1.0478 C   0  0  0  0  0  0  0  0  0  0  0  0
   -2.9198   -2.9944   -1.2805 C   0  0  0  0  0  0  0  0  0  0  0  0
   -1.8061   -2.3990   -0.6711 C   0  0  0  0  0  0  0  0  0  0  0  0
   -1.2975   -1.1169   -0.6702 N   0  0  0  0  0  0  0  0  0  0  0  0
   -1.8474   -0.0073   -1.4269 C   0  0  0  0  0  0  0  0  0  0  0  0
   -2.7747    0.8364   -0.5776 C   0  0  0  0  0  0  0  0  0  0  0  0
   -2.3827    1.4276    0.4266 O   0  0  0  0  0  0  0  0  0  0  0  0
   -4.0845    0.8844   -1.0206 N   0  0  0  0  0  0  0  0  0  0  0  0
   -5.0874    1.6975   -0.3412 C   0  0  0  0  0  0  0  0  0  0  0  0
   -6.4849    1.1614   -0.6438 C   0  0  0  0  0  0  0  0  0  0  0  0
   -4.9684    3.1645   -0.7558 C   0  0  0  0  0  0  0  0  0  0  0  0
    0.7773    0.3953    1.9259 C   0  0  0  0  0  0  0  0  0  0  0  0
    2.0799    1.1579    2.0020 C   0  0  0  0  0  0  0  0  0  0  0  0
    2.3888    1.8437    2.9659 O   0  0  0  0  0  0  0  0  0  0  0  0
    4.7783   -2.3125   -1.2612 H   0  0  0  0  0  0  0  0  0  0  0  0
    6.2861   -1.4106   -1.0600 H   0  0  0  0  0  0  0  0  0  0  0  0
    5.1357   -1.5833    0.3139 H   0  0  0  0  0  0  0  0  0  0  0  0
    6.7508    0.9625   -1.6477 H   0  0  0  0  0  0  0  0  0  0  0  0
    7.6193    2.9079   -0.3878 H   0  0  0  0  0  0  0  0  0  0  0  0
    6.2685    3.8732    1.4588 H   0  0  0  0  0  0  0  0  0  0  0  0
    4.0872    2.9668    2.0076 H   0  0  0  0  0  0  0  0  0  0  0  0
    2.4738   -1.0589    0.1813 H   0  0  0  0  0  0  0  0  0  0  0  0
    2.1846    0.2133   -1.0593 H   0  0  0  0  0  0  0  0  0  0  0  0
    0.2374    1.0114   -0.0427 H   0  0  0  0  0  0  0  0  0  0  0  0
   -0.4638   -5.0429    0.9889 H   0  0  0  0  0  0  0  0  0  0  0  0
   -2.4302   -6.1551   -0.0750 H   0  0  0  0  0  0  0  0  0  0  0  0
   -3.9770   -4.8594   -1.5009 H   0  0  0  0  0  0  0  0  0  0  0  0
   -3.6080   -2.4344   -1.9036 H   0  0  0  0  0  0  0  0  0  0  0  0
   -2.3629   -0.4093   -2.3054 H   0  0  0  0  0  0  0  0  0  0  0  0
   -1.0271    0.6127   -1.8011 H   0  0  0  0  0  0  0  0  0  0  0  0
   -4.3037    0.5554   -1.9516 H   0  0  0  0  0  0  0  0  0  0  0  0
   -4.9078    1.6227    0.7389 H   0  0  0  0  0  0  0  0  0  0  0  0
   -6.7083    1.2198   -1.7150 H   0  0  0  0  0  0  0  0  0  0  0  0
   -7.2489    1.7327   -0.1043 H   0  0  0  0  0  0  0  0  0  0  0  0
   -6.5708    0.1093   -0.3443 H   0  0  0  0  0  0  0  0  0  0  0  0
   -5.1103    3.2823   -1.8345 H   0  0  0  0  0  0  0  0  0  0  0  0
   -5.7164    3.7786   -0.2429 H   0  0  0  0  0  0  0  0  0  0  0  0
   -3.9801    3.5653   -0.5089 H   0  0  0  0  0  0  0  0  0  0  0  0
    0.8643   -0.5096    2.5382 H   0  0  0  0  0  0  0  0  0  0  0  0
   -0.0508    1.0095    2.2923 H   0  0  0  0  0  0  0  0  0  0  0  0
  1  2  1  0
  2  3  1  0
  3  4  2  0
  4  5  1  0
  5  6  2  0
  6  7  1  0
  7  8  2  0
  8  9  1  0
  9 10  1  0
 10 11  1  0
 11 12  1  0
 12 13  2  0
 13 14  1  0
 14 15  2  0
 15 16  1  0
 16 17  2  0
 17 18  1  0
 18 19  2  0
 19 20  1  0
 20 21  1  0
 21 22  1  0
 22 23  2  0
 22 24  1  0
 24 25  1  0
 25 26  1  0
 25 27  1  0
 11 28  1  0
 28 29  1  0
 29 30  2  0
  8  3  1  0
 29  9  1  0
 20 12  1  0
 19 14  1  0
  1 31  1  0
  1 32  1  0
  1 33  1  0
  4 34  1  0
  5 35  1  0
  6 36  1  0
  7 37  1  0
 10 38  1  0
 10 39  1  0
 11 40  1  0
 15 41  1  0
 16 42  1  0
 17 43  1  0
 18 44  1  0
 21 45  1  0
 21 46  1  0
 24 47  1  0
 25 48  1  0
 26 49  1  0
 26 50  1  0
 26 51  1  0
 27 52  1  0
 27 53  1  0
 27 54  1  0
 28 55  1  0
 28 56  1  0
M  END
$$$$
