
     RDKit          3D

 59 63  0  0  0  0  0  0  0  0999 V2000
   -1.8422    2.9861    1.3321 O   0  0  0  0  0  0  0  0  0  0  0  0
   -1.4142    1.9925    0.7690 C   0  0  0  0  0  0  0  0  0  0  0  0
    0.0119    1.5078    0.8345 C   0  0  0  0  0  0  0  0  0  0  0  0
    0.0709    0.3861   -0.2053 C   0  0  0  0  0  0  0  0  0  0  0  0
    1.0139   -0.7367    0.1939 C   0  0  0  0  0  0  0  0  0  0  0  0
    0.5684   -1.8311    0.5437 O   0  0  0  0  0  0  0  0  0  0  0  0
    2.3805   -0.4971    0.1375 N   0  0  0  0  0  0  0  0  0  0  0  0
    3.2755   -1.4899    0.7525 C   0  0  0  0  0  0  0  0  0  0  0  0
    4.6377   -1.5897    0.0458 C   0  0  0  0  0  0  0  0  0  0  0  0
    5.2558   -0.2521   -0.0700 N   0  0  0  0  0  0  0  0  0  0  0  0
    6.6012   -0.1878   -0.4736 C   0  0  0  0  0  0  0  0  0  0  0  0
    7.2815   -1.2488   -1.0887 C   0  0  0  0  0  0  0  0  0  0  0  0
    8.6251   -1.1331   -1.4664 C   0  0  0  0  0  0  0  0  0  0  0  0
    9.3211    0.0473   -1.2276 C   0  0  0  0  0  0  0  0  0  0  0  0
    8.6750    1.1100   -0.6071 C   0  0  0  0  0  0  0  0  0  0  0  0
    7.3327    0.9887   -0.2342 C   0  0  0  0  0  0  0  0  0  0  0  0
    4.3878    0.7036   -0.7948 C   0  0  0  0  0  0  0  0  0  0  0  0
    3.0064    0.8095   -0.1171 C   0  0  0  0  0  0  0  0  0  0  0  0
   -1.3766   -0.0914   -0.2752 C   0  0  0  0  0  0  0  0  0  0  0  0
   -2.1387    1.1020   -0.0061 N   0  0  0  0  0  0  0  0  0  0  0  0
   -3.5927    1.1246   -0.0787 C   0  0  0  0  0  0  0  0  0  0  0  0
   -4.2638    0.4986    1.1482 C   0  0  0  0  0  0  0  0  0  0  0  0
   -5.7559    0.4990    1.0359 C   0  0  0  0  0  0  0  0  0  0  0  0
   -6.6126    1.4554    1.5443 C   0  0  0  0  0  0  0  0  0  0  0  0
   -7.8951    1.0984    1.2290 N   0  0  0  0  0  0  0  0  0  0  0  0
   -7.9000   -0.0785    0.5168 C   0  0  0  0  0  0  0  0  0  0  0  0
   -8.9741   -0.8079   -0.0107 C   0  0  0  0  0  0  0  0  0  0  0  0
   -8.6760   -1.9867   -0.6985 C   0  0  0  0  0  0  0  0  0  0  0  0
   -7.3596   -2.4048   -0.8431 C   0  0  0  0  0  0  0  0  0  0  0  0
   -7.1041   -3.5398   -1.5086 F   0  0  0  0  0  0  0  0  0  0  0  0
   -6.2952   -1.6747   -0.3152 C   0  0  0  0  0  0  0  0  0  0  0  0
   -6.5694   -0.4814    0.3820 C   0  0  0  0  0  0  0  0  0  0  0  0
    0.6846    2.3322    0.5845 H   0  0  0  0  0  0  0  0  0  0  0  0
    0.2237    1.1516    1.8478 H   0  0  0  0  0  0  0  0  0  0  0  0
    0.3540    0.7796   -1.1889 H   0  0  0  0  0  0  0  0  0  0  0  0
    2.8073   -2.4795    0.7678 H   0  0  0  0  0  0  0  0  0  0  0  0
    3.4171   -1.1788    1.7951 H   0  0  0  0  0  0  0  0  0  0  0  0
    5.2779   -2.2615    0.6302 H   0  0  0  0  0  0  0  0  0  0  0  0
    4.4905   -2.0250   -0.9511 H   0  0  0  0  0  0  0  0  0  0  0  0
    6.7805   -2.1870   -1.3047 H   0  0  0  0  0  0  0  0  0  0  0  0
    9.1248   -1.9700   -1.9471 H   0  0  0  0  0  0  0  0  0  0  0  0
   10.3646    0.1353   -1.5172 H   0  0  0  0  0  0  0  0  0  0  0  0
    9.2128    2.0315   -0.4022 H   0  0  0  0  0  0  0  0  0  0  0  0
    6.8600    1.8228    0.2786 H   0  0  0  0  0  0  0  0  0  0  0  0
    4.8210    1.7097   -0.8299 H   0  0  0  0  0  0  0  0  0  0  0  0
    4.2585    0.3620   -1.8305 H   0  0  0  0  0  0  0  0  0  0  0  0
    2.3634    1.4306   -0.7436 H   0  0  0  0  0  0  0  0  0  0  0  0
    3.1071    1.3042    0.8565 H   0  0  0  0  0  0  0  0  0  0  0  0
   -1.6290   -0.8363    0.4868 H   0  0  0  0  0  0  0  0  0  0  0  0
   -1.6312   -0.4840   -1.2645 H   0  0  0  0  0  0  0  0  0  0  0  0
   -3.8908    0.6135   -1.0014 H   0  0  0  0  0  0  0  0  0  0  0  0
   -3.9058    2.1721   -0.1693 H   0  0  0  0  0  0  0  0  0  0  0  0
   -3.9633    1.0412    2.0535 H   0  0  0  0  0  0  0  0  0  0  0  0
   -3.9116   -0.5312    1.2846 H   0  0  0  0  0  0  0  0  0  0  0  0
   -6.4142    2.3605    2.1041 H   0  0  0  0  0  0  0  0  0  0  0  0
   -8.7228    1.6212    1.4803 H   0  0  0  0  0  0  0  0  0  0  0  0
  -10.0003   -0.4755    0.1074 H   0  0  0  0  0  0  0  0  0  0  0  0
   -9.4734   -2.5873   -1.1257 H   0  0  0  0  0  0  0  0  0  0  0  0
   -5.2805   -2.0335   -0.4457 H   0  0  0  0  0  0  0  0  0  0  0  0
  1  2  2  0
  2  3  1  0
  3  4  1  0
  4  5  1  0
  5  6  2  0
  5  7  1  0
  7  8  1  0
  8  9  1  0
  9 10  1  0
 10 11  1  0
 11 12  2  0
 12 13  1  0
 13 14  2  0
 14 15  1  0
 15 16  2  0
 10 17  1  0
 17 18  1  0
  4 19  1  0
 19 20  1  0
 20 21  1  0
 21 22  1  0
 22 23  1  0
 23 24  2  0
 24 25  1  0
 25 26  1  0
 26 27  2  0
 27 28  1  0
 28 29  2  0
 29 30  1  0
 29 31  1  0
 31 32  2  0
 20  2  1  0
 32 23  1  0
 18  7  1  0
 32 26  1  0
 16 11  1  0
  3 33  1  0
  3 34  1  0
  4 35  1  0
  8 36  1  0
  8 37  1  0
  9 38  1  0
  9 39  1  0
 12 40  1  0
 13 41  1  0
 14 42  1  0
 15 43  1  0
 16 44  1  0
 17 45  1  0
 17 46  1  0
 18 47  1  0
 18 48  1  0
 19 49  1  0
 19 50  1  0
 21 51  1  0
 21 52  1  0
 22 53  1  0
 22 54  1  0
 24 55  1  0
 25 56  1  0
 27 57  1  0
 28 58  1  0
 31 59  1  0
M  END
$$$$
