
     RDKit          3D

 55 57  0  0  0  0  0  0  0  0999 V2000
   -7.5181   -0.4684    1.0118 C   0  0  0  0  0  0  0  0  0  0  0  0
   -6.2282   -0.3630    0.2166 C   0  0  0  0  0  0  0  0  0  0  0  0
   -5.1052   -0.0976    1.1306 N   0  0  0  0  0  0  0  0  0  0  0  0
   -4.6737    1.3018    1.3068 C   0  0  0  0  0  0  0  0  0  0  0  0
   -4.0786    1.9088    0.0480 C   0  0  0  0  0  0  0  0  0  0  0  0
   -4.1237   -1.3724    1.6395 S   0  0  0  0  0  6  0  0  0  0  0  0
   -3.3947   -0.9554    2.8179 O   0  0  0  0  0  0  0  0  0  0  0  0
   -4.9164   -2.5847    1.6457 O   0  0  0  0  0  0  0  0  0  0  0  0
   -2.9453   -1.5330    0.3146 C   0  0  0  0  0  0  0  0  0  0  0  0
   -3.2297   -2.3713   -0.7667 C   0  0  0  0  0  0  0  0  0  0  0  0
   -2.2904   -2.5228   -1.7858 C   0  0  0  0  0  0  0  0  0  0  0  0
   -1.0661   -1.8501   -1.7197 C   0  0  0  0  0  0  0  0  0  0  0  0
   -0.7694   -1.0294   -0.6228 C   0  0  0  0  0  0  0  0  0  0  0  0
    0.5176   -0.2820   -0.5131 C   0  0  0  0  0  0  0  0  0  0  0  0
    0.5925    0.6555    0.2830 O   0  0  0  0  0  0  0  0  0  0  0  0
    1.6795   -0.6976   -1.4171 C   0  0  0  0  0  0  0  0  0  0  0  0
    2.9136   -0.0850   -0.9252 N   0  0  0  0  0  0  0  0  0  0  0  0
    3.5536   -0.8085    0.1067 C   0  0  0  0  0  0  0  0  0  0  0  0
    3.0002   -1.7973    0.6020 O   0  0  0  0  0  0  0  0  0  0  0  0
    4.9042   -0.4580    0.6388 C   0  0  0  0  0  0  0  0  0  0  0  0
    5.3628   -1.2064    1.7428 C   0  0  0  0  0  0  0  0  0  0  0  0
    6.6493   -1.0316    2.2604 C   0  0  0  0  0  0  0  0  0  0  0  0
    7.5102   -0.1126    1.6742 C   0  0  0  0  0  0  0  0  0  0  0  0
    7.0745    0.6389    0.5862 C   0  0  0  0  0  0  0  0  0  0  0  0
    5.7739    0.4840    0.0881 C   0  0  0  0  0  0  0  0  0  0  0  0
    5.4655    1.3043   -0.9553 O   0  0  0  0  0  0  0  0  0  0  0  0
    4.2457    1.9981   -0.7117 C   0  0  0  0  0  0  0  0  0  0  0  0
    4.3991    3.3976   -1.2982 C   0  0  0  0  0  0  0  0  0  0  0  0
    3.1353    1.2225   -1.3933 C   0  0  0  0  0  0  0  0  0  0  0  0
    2.4446    1.7274   -2.2836 O   0  0  0  0  0  0  0  0  0  0  0  0
   -1.7123   -0.8796    0.4028 C   0  0  0  0  0  0  0  0  0  0  0  0
   -8.3610   -0.6710    0.3438 H   0  0  0  0  0  0  0  0  0  0  0  0
   -7.4657   -1.2758    1.7492 H   0  0  0  0  0  0  0  0  0  0  0  0
   -7.7261    0.4621    1.5502 H   0  0  0  0  0  0  0  0  0  0  0  0
   -6.3273    0.4300   -0.5296 H   0  0  0  0  0  0  0  0  0  0  0  0
   -6.0640   -1.2866   -0.3469 H   0  0  0  0  0  0  0  0  0  0  0  0
   -3.9465    1.3782    2.1214 H   0  0  0  0  0  0  0  0  0  0  0  0
   -5.5387    1.8950    1.6259 H   0  0  0  0  0  0  0  0  0  0  0  0
   -4.8164    1.9873   -0.7555 H   0  0  0  0  0  0  0  0  0  0  0  0
   -3.7176    2.9209    0.2583 H   0  0  0  0  0  0  0  0  0  0  0  0
   -3.2372    1.3263   -0.3309 H   0  0  0  0  0  0  0  0  0  0  0  0
   -4.1722   -2.9127   -0.8170 H   0  0  0  0  0  0  0  0  0  0  0  0
   -2.5105   -3.1699   -2.6326 H   0  0  0  0  0  0  0  0  0  0  0  0
   -0.3670   -1.9826   -2.5409 H   0  0  0  0  0  0  0  0  0  0  0  0
    1.4664   -0.3743   -2.4411 H   0  0  0  0  0  0  0  0  0  0  0  0
    1.7825   -1.7880   -1.4130 H   0  0  0  0  0  0  0  0  0  0  0  0
    4.7187   -1.9532    2.2070 H   0  0  0  0  0  0  0  0  0  0  0  0
    6.9778   -1.6251    3.1104 H   0  0  0  0  0  0  0  0  0  0  0  0
    8.5167    0.0205    2.0625 H   0  0  0  0  0  0  0  0  0  0  0  0
    7.7456    1.3631    0.1295 H   0  0  0  0  0  0  0  0  0  0  0  0
    4.0111    2.1083    0.3567 H   0  0  0  0  0  0  0  0  0  0  0  0
    5.2254    3.9264   -0.8108 H   0  0  0  0  0  0  0  0  0  0  0  0
    4.6374    3.3555   -2.3672 H   0  0  0  0  0  0  0  0  0  0  0  0
    3.4846    3.9857   -1.1718 H   0  0  0  0  0  0  0  0  0  0  0  0
   -1.4864   -0.2521    1.2644 H   0  0  0  0  0  0  0  0  0  0  0  0
  1  2  1  0
  2  3  1  0
  3  4  1  0
  4  5  1  0
  3  6  1  0
  6  7  2  0
  6  8  2  0
  6  9  1  0
  9 10  2  0
 10 11  1  0
 11 12  2  0
 12 13  1  0
 13 14  1  0
 14 15  2  0
 14 16  1  0
 16 17  1  0
 17 18  1  0
 18 19  2  0
 18 20  1  0
 20 21  2  0
 21 22  1  0
 22 23  2  0
 23 24  1  0
 24 25  2  0
 25 26  1  0
 26 27  1  0
 27 28  1  0
 27 29  1  0
 29 30  2  0
 13 31  2  0
 31  9  1  0
 29 17  1  0
 25 20  1  0
  1 32  1  0
  1 33  1  0
  1 34  1  0
  2 35  1  0
  2 36  1  0
  4 37  1  0
  4 38  1  0
  5 39  1  0
  5 40  1  0
  5 41  1  0
 10 42  1  0
 11 43  1  0
 12 44  1  0
 16 45  1  0
 16 46  1  0
 21 47  1  0
 22 48  1  0
 23 49  1  0
 24 50  1  0
 27 51  1  0
 28 52  1  0
 28 53  1  0
 28 54  1  0
 31 55  1  0
M  END
$$$$
