
     RDKit          3D

 55 58  0  0  0  0  0  0  0  0999 V2000
   -4.9667    1.2355   -4.2474 C   0  0  0  0  0  0  0  0  0  0  0  0
   -5.3590    0.5644   -3.0573 O   0  0  0  0  0  0  0  0  0  0  0  0
   -4.3973    0.3684   -2.0956 C   0  0  0  0  0  0  0  0  0  0  0  0
   -3.1831    1.0635   -2.0403 C   0  0  0  0  0  0  0  0  0  0  0  0
   -2.2595    0.8400   -1.0050 C   0  0  0  0  0  0  0  0  0  0  0  0
   -2.5398   -0.1360   -0.0458 C   0  0  0  0  0  0  0  0  0  0  0  0
   -3.7644   -0.8247   -0.0866 C   0  0  0  0  0  0  0  0  0  0  0  0
   -4.6994   -0.5667   -1.0958 C   0  0  0  0  0  0  0  0  0  0  0  0
   -5.8955   -1.2280   -1.2172 O   0  0  0  0  0  0  0  0  0  0  0  0
   -6.4150   -1.8248   -0.0317 C   0  0  0  0  0  0  0  0  0  0  0  0
   -1.5200   -0.4787    0.9997 C   0  0  0  0  0  0  0  0  0  0  0  0
   -1.2223    0.6541    1.9525 C   0  0  0  0  0  0  0  0  0  0  0  0
   -1.4628    0.5171    3.1597 O   0  0  0  0  0  0  0  0  0  0  0  0
   -0.5473    1.7709    1.4377 N   0  0  0  0  0  0  0  0  0  0  0  0
    0.0231    2.6884    2.4450 C   0  0  0  0  0  0  0  0  0  0  0  0
    1.3611    2.2116    3.0313 C   0  0  0  0  0  0  0  0  0  0  0  0
    1.8391    2.7077    4.0507 O   0  0  0  0  0  0  0  0  0  0  0  0
    2.0387    1.2824    2.2775 N   0  0  0  0  0  0  0  0  0  0  0  0
    3.3892    0.8943    2.6055 C   0  0  0  0  0  0  0  0  0  0  0  0
    3.9522    0.1442    1.4445 C   0  0  0  0  0  0  0  0  0  0  0  0
    4.6190    0.6983    0.4498 N   0  0  0  0  0  0  0  0  0  0  0  0
    4.9036   -0.3089   -0.4238 C   0  0  0  0  0  0  0  0  0  0  0  0
    5.6001   -0.2561   -1.6387 C   0  0  0  0  0  0  0  0  0  0  0  0
    5.7541   -1.4324   -2.3763 C   0  0  0  0  0  0  0  0  0  0  0  0
    5.2172   -2.6395   -1.9125 C   0  0  0  0  0  0  0  0  0  0  0  0
    4.5187   -2.7099   -0.6998 C   0  0  0  0  0  0  0  0  0  0  0  0
    4.3814   -1.5195    0.0263 C   0  0  0  0  0  0  0  0  0  0  0  0
    3.7893   -1.2027    1.2245 N   0  0  0  0  0  0  0  0  0  0  0  0
    3.1106   -2.1198    2.1129 C   0  0  0  0  0  0  0  0  0  0  0  0
   -0.3480    2.0754    0.0959 C   0  0  0  0  0  0  0  0  0  0  0  0
   -1.0288    1.6476   -0.9767 C   0  0  0  0  0  0  0  0  0  0  0  0
   -4.7367    2.2883   -4.0569 H   0  0  0  0  0  0  0  0  0  0  0  0
   -5.8131    1.2050   -4.9382 H   0  0  0  0  0  0  0  0  0  0  0  0
   -4.1264    0.7251   -4.7290 H   0  0  0  0  0  0  0  0  0  0  0  0
   -2.9461    1.8034   -2.7919 H   0  0  0  0  0  0  0  0  0  0  0  0
   -3.9601   -1.5757    0.6741 H   0  0  0  0  0  0  0  0  0  0  0  0
   -6.4527   -1.1061    0.8027 H   0  0  0  0  0  0  0  0  0  0  0  0
   -7.4393   -2.1389   -0.2477 H   0  0  0  0  0  0  0  0  0  0  0  0
   -5.8444   -2.7203    0.2475 H   0  0  0  0  0  0  0  0  0  0  0  0
   -1.8567   -1.3365    1.5941 H   0  0  0  0  0  0  0  0  0  0  0  0
   -0.5903   -0.8060    0.5298 H   0  0  0  0  0  0  0  0  0  0  0  0
    0.1839    3.6756    1.9953 H   0  0  0  0  0  0  0  0  0  0  0  0
   -0.6866    2.8071    3.2727 H   0  0  0  0  0  0  0  0  0  0  0  0
    1.6912    1.0780    1.3382 H   0  0  0  0  0  0  0  0  0  0  0  0
    3.9813    1.7982    2.7855 H   0  0  0  0  0  0  0  0  0  0  0  0
    3.3771    0.3078    3.5255 H   0  0  0  0  0  0  0  0  0  0  0  0
    6.0108    0.6865   -1.9938 H   0  0  0  0  0  0  0  0  0  0  0  0
    6.3015   -1.4052   -3.3136 H   0  0  0  0  0  0  0  0  0  0  0  0
    5.3498   -3.5407   -2.5058 H   0  0  0  0  0  0  0  0  0  0  0  0
    4.1105   -3.6547   -0.3508 H   0  0  0  0  0  0  0  0  0  0  0  0
    3.5150   -2.0070    3.1157 H   0  0  0  0  0  0  0  0  0  0  0  0
    3.2679   -3.1461    1.7807 H   0  0  0  0  0  0  0  0  0  0  0  0
    2.0434   -1.8786    2.0962 H   0  0  0  0  0  0  0  0  0  0  0  0
    0.4414    2.8060   -0.0876 H   0  0  0  0  0  0  0  0  0  0  0  0
   -0.7098    2.0187   -1.9464 H   0  0  0  0  0  0  0  0  0  0  0  0
  1  2  1  0
  2  3  1  0
  3  4  2  0
  4  5  1  0
  5  6  2  0
  6  7  1  0
  7  8  2  0
  8  9  1  0
  9 10  1  0
  6 11  1  0
 11 12  1  0
 12 13  2  0
 12 14  1  0
 14 15  1  0
 15 16  1  0
 16 17  2  0
 16 18  1  0
 18 19  1  0
 19 20  1  0
 20 21  2  0
 21 22  1  0
 22 23  2  0
 23 24  1  0
 24 25  2  0
 25 26  1  0
 26 27  2  0
 27 28  1  0
 28 29  1  0
 14 30  1  0
 30 31  2  0
  8  3  1  0
 28 20  1  0
 31  5  1  0
 27 22  1  0
  1 32  1  0
  1 33  1  0
  1 34  1  0
  4 35  1  0
  7 36  1  0
 10 37  1  0
 10 38  1  0
 10 39  1  0
 11 40  1  0
 11 41  1  0
 15 42  1  0
 15 43  1  0
 18 44  1  0
 19 45  1  0
 19 46  1  0
 23 47  1  0
 24 48  1  0
 25 49  1  0
 26 50  1  0
 29 51  1  0
 29 52  1  0
 29 53  1  0
 30 54  1  0
 31 55  1  0
M  END
$$$$
