
     RDKit          3D

 46 48  0  0  0  0  0  0  0  0999 V2000
   -6.8228    2.0614   -1.0223 C   0  0  0  0  0  0  0  0  0  0  0  0
   -6.7313    1.2260    0.2446 C   0  0  0  0  0  0  0  0  0  0  0  0
   -5.4590    0.4649    0.3237 C   0  0  0  0  0  0  0  0  0  0  0  0
   -5.3276   -0.7784   -0.2201 N   0  0  0  0  0  0  0  0  0  0  0  0
   -4.0803   -1.1016    0.0420 C   0  0  0  0  0  0  0  0  0  0  0  0
   -3.4050   -2.2380   -0.2761 N   0  0  0  0  0  0  0  0  0  0  0  0
   -2.1635   -2.3132    0.1036 C   0  0  0  0  0  0  0  0  0  0  0  0
   -1.4285   -3.5822   -0.2767 C   0  0  0  0  0  0  0  0  0  0  0  0
   -1.4237   -1.2527    0.9039 C   0  0  0  0  0  0  0  0  0  0  0  0
   -0.0084   -1.5105    1.3446 C   0  0  0  0  0  0  0  0  0  0  0  0
    0.9987   -0.9908    0.3181 C   0  0  0  0  0  0  0  0  0  0  0  0
    0.7263   -0.9354   -0.8762 O   0  0  0  0  0  0  0  0  0  0  0  0
    2.2081   -0.6437    0.9018 N   0  0  0  0  0  0  0  0  0  0  0  0
    3.3528   -0.1265    0.2586 C   0  0  0  0  0  0  0  0  0  0  0  0
    3.4331    0.1364   -1.1075 C   0  0  0  0  0  0  0  0  0  0  0  0
    4.6117    0.6525   -1.6598 C   0  0  0  0  0  0  0  0  0  0  0  0
    5.7249    0.9147   -0.8609 C   0  0  0  0  0  0  0  0  0  0  0  0
    6.8060    1.4159   -1.5295 O   0  0  0  0  0  0  0  0  0  0  0  0
    7.9621    1.7116   -0.7566 C   0  0  0  0  0  0  0  0  0  0  0  0
    5.6504    0.6545    0.5051 C   0  0  0  0  0  0  0  0  0  0  0  0
    4.4715    0.1379    1.0593 C   0  0  0  0  0  0  0  0  0  0  0  0
   -2.1412   -0.1370    1.1805 C   0  0  0  0  0  0  0  0  0  0  0  0
   -1.6222    1.0639    1.9215 C   0  0  0  0  0  0  0  0  0  0  0  0
   -3.4729   -0.0591    0.7460 N   0  0  0  0  0  0  0  0  0  0  0  0
   -4.3693    0.9450    0.9285 N   0  0  0  0  0  0  0  0  0  0  0  0
   -6.7615    1.4314   -1.9163 H   0  0  0  0  0  0  0  0  0  0  0  0
   -7.7730    2.6037   -1.0525 H   0  0  0  0  0  0  0  0  0  0  0  0
   -6.0102    2.7942   -1.0724 H   0  0  0  0  0  0  0  0  0  0  0  0
   -7.5741    0.5256    0.2777 H   0  0  0  0  0  0  0  0  0  0  0  0
   -6.8303    1.8796    1.1195 H   0  0  0  0  0  0  0  0  0  0  0  0
   -0.4729   -3.3499   -0.7514 H   0  0  0  0  0  0  0  0  0  0  0  0
   -2.0238   -4.1670   -0.9851 H   0  0  0  0  0  0  0  0  0  0  0  0
   -1.2632   -4.1900    0.6171 H   0  0  0  0  0  0  0  0  0  0  0  0
    0.1739   -1.0398    2.3174 H   0  0  0  0  0  0  0  0  0  0  0  0
    0.1834   -2.5765    1.5013 H   0  0  0  0  0  0  0  0  0  0  0  0
    2.2965   -0.7785    1.9012 H   0  0  0  0  0  0  0  0  0  0  0  0
    2.6009   -0.0445   -1.7800 H   0  0  0  0  0  0  0  0  0  0  0  0
    4.6565    0.8515   -2.7284 H   0  0  0  0  0  0  0  0  0  0  0  0
    8.7257    2.1059   -1.4340 H   0  0  0  0  0  0  0  0  0  0  0  0
    7.7504    2.4825   -0.0085 H   0  0  0  0  0  0  0  0  0  0  0  0
    8.3662    0.8075   -0.2896 H   0  0  0  0  0  0  0  0  0  0  0  0
    6.4883    0.8405    1.1682 H   0  0  0  0  0  0  0  0  0  0  0  0
    4.4486   -0.0530    2.1292 H   0  0  0  0  0  0  0  0  0  0  0  0
   -2.1494    1.1812    2.8743 H   0  0  0  0  0  0  0  0  0  0  0  0
   -1.7691    1.9737    1.3286 H   0  0  0  0  0  0  0  0  0  0  0  0
   -0.5530    1.0061    2.1403 H   0  0  0  0  0  0  0  0  0  0  0  0
  1  2  1  0
  2  3  1  0
  3  4  1  0
  4  5  2  0
  5  6  1  0
  6  7  2  0
  7  8  1  0
  7  9  1  0
  9 10  1  0
 10 11  1  0
 11 12  2  0
 11 13  1  0
 13 14  1  0
 14 15  2  0
 15 16  1  0
 16 17  2  0
 17 18  1  0
 18 19  1  0
 17 20  1  0
 20 21  2  0
  9 22  2  0
 22 23  1  0
 22 24  1  0
 24 25  1  0
 25  3  2  0
 24  5  1  0
 21 14  1  0
  1 26  1  0
  1 27  1  0
  1 28  1  0
  2 29  1  0
  2 30  1  0
  8 31  1  0
  8 32  1  0
  8 33  1  0
 10 34  1  0
 10 35  1  0
 13 36  1  0
 15 37  1  0
 16 38  1  0
 19 39  1  0
 19 40  1  0
 19 41  1  0
 20 42  1  0
 21 43  1  0
 23 44  1  0
 23 45  1  0
 23 46  1  0
M  END
$$$$
