
     RDKit          3D

 49 51  0  0  0  0  0  0  0  0999 V2000
    6.8593    0.7945   -1.6955 C   0  0  0  0  0  0  0  0  0  0  0  0
    6.4627    0.5503   -0.3543 O   0  0  0  0  0  0  0  0  0  0  0  0
    5.1196    0.4370   -0.0924 C   0  0  0  0  0  0  0  0  0  0  0  0
    4.1096    0.5849   -1.0507 C   0  0  0  0  0  0  0  0  0  0  0  0
    2.7540    0.4474   -0.7071 C   0  0  0  0  0  0  0  0  0  0  0  0
    2.4107    0.1831    0.6210 C   0  0  0  0  0  0  0  0  0  0  0  0
    3.4229    0.0335    1.5862 C   0  0  0  0  0  0  0  0  0  0  0  0
    4.7724    0.1522    1.2397 C   0  0  0  0  0  0  0  0  0  0  0  0
    5.8154    0.0226    2.1224 O   0  0  0  0  0  0  0  0  0  0  0  0
    5.5115   -0.3863    3.4482 C   0  0  0  0  0  0  0  0  0  0  0  0
    0.9696    0.1029    1.0299 C   0  0  0  0  0  0  0  0  0  0  0  0
    0.2006   -1.0134    0.3554 C   0  0  0  0  0  0  0  0  0  0  0  0
   -0.3033   -1.9086    1.0392 O   0  0  0  0  0  0  0  0  0  0  0  0
   -0.0358   -0.9034   -1.0170 N   0  0  0  0  0  0  0  0  0  0  0  0
   -1.0311   -1.8321   -1.5892 C   0  0  0  0  0  0  0  0  0  0  0  0
   -2.4832   -1.3363   -1.5505 C   0  0  0  0  0  0  0  0  0  0  0  0
   -3.4086   -2.0261   -1.9755 O   0  0  0  0  0  0  0  0  0  0  0  0
   -2.6768   -0.0676   -1.0497 N   0  0  0  0  0  0  0  0  0  0  0  0
   -4.0031    0.4964   -0.8772 C   0  0  0  0  0  0  0  0  0  0  0  0
   -4.7137   -0.0537    0.3599 C   0  0  0  0  0  0  0  0  0  0  0  0
   -6.0412    0.5829    0.5441 C   0  0  0  0  0  0  0  0  0  0  0  0
   -7.3325    0.1725    0.2895 C   0  0  0  0  0  0  0  0  0  0  0  0
   -8.1736    1.2403    0.6845 C   0  0  0  0  0  0  0  0  0  0  0  0
   -7.3424    2.2301    1.1537 C   0  0  0  0  0  0  0  0  0  0  0  0
   -6.0444    1.8402    1.0711 O   0  0  0  0  0  0  0  0  0  0  0  0
    0.5721   -0.0155   -1.8914 C   0  0  0  0  0  0  0  0  0  0  0  0
    1.7491    0.6133   -1.7653 C   0  0  0  0  0  0  0  0  0  0  0  0
    6.5434   -0.0196   -2.3561 H   0  0  0  0  0  0  0  0  0  0  0  0
    7.9526    0.8354   -1.7190 H   0  0  0  0  0  0  0  0  0  0  0  0
    6.4835    1.7604   -2.0484 H   0  0  0  0  0  0  0  0  0  0  0  0
    4.3617    0.7977   -2.0847 H   0  0  0  0  0  0  0  0  0  0  0  0
    3.1306   -0.1692    2.6122 H   0  0  0  0  0  0  0  0  0  0  0  0
    5.0035   -1.3564    3.4587 H   0  0  0  0  0  0  0  0  0  0  0  0
    4.9226    0.3757    3.9690 H   0  0  0  0  0  0  0  0  0  0  0  0
    6.4567   -0.5008    3.9877 H   0  0  0  0  0  0  0  0  0  0  0  0
    0.8916   -0.0550    2.1134 H   0  0  0  0  0  0  0  0  0  0  0  0
    0.4658    1.0583    0.8365 H   0  0  0  0  0  0  0  0  0  0  0  0
   -0.7715   -2.0361   -2.6352 H   0  0  0  0  0  0  0  0  0  0  0  0
   -0.9963   -2.7859   -1.0507 H   0  0  0  0  0  0  0  0  0  0  0  0
   -1.8954    0.3869   -0.5958 H   0  0  0  0  0  0  0  0  0  0  0  0
   -4.5905    0.2886   -1.7796 H   0  0  0  0  0  0  0  0  0  0  0  0
   -3.8779    1.5826   -0.8046 H   0  0  0  0  0  0  0  0  0  0  0  0
   -4.8348   -1.1402    0.2757 H   0  0  0  0  0  0  0  0  0  0  0  0
   -4.0972    0.1195    1.2506 H   0  0  0  0  0  0  0  0  0  0  0  0
   -7.6271   -0.7802   -0.1291 H   0  0  0  0  0  0  0  0  0  0  0  0
   -9.2524    1.2834    0.6353 H   0  0  0  0  0  0  0  0  0  0  0  0
   -7.5086    3.2179    1.5600 H   0  0  0  0  0  0  0  0  0  0  0  0
    0.0396    0.1247   -2.8336 H   0  0  0  0  0  0  0  0  0  0  0  0
    2.0607    1.2527   -2.5911 H   0  0  0  0  0  0  0  0  0  0  0  0
  1  2  1  0
  2  3  1  0
  3  4  2  0
  4  5  1  0
  5  6  2  0
  6  7  1  0
  7  8  2  0
  8  9  1  0
  9 10  1  0
  6 11  1  0
 11 12  1  0
 12 13  2  0
 12 14  1  0
 14 15  1  0
 15 16  1  0
 16 17  2  0
 16 18  1  0
 18 19  1  0
 19 20  1  0
 20 21  1  0
 21 22  2  0
 22 23  1  0
 23 24  2  0
 24 25  1  0
 14 26  1  0
 26 27  2  0
  8  3  1  0
 25 21  1  0
 27  5  1  0
  1 28  1  0
  1 29  1  0
  1 30  1  0
  4 31  1  0
  7 32  1  0
 10 33  1  0
 10 34  1  0
 10 35  1  0
 11 36  1  0
 11 37  1  0
 15 38  1  0
 15 39  1  0
 18 40  1  0
 19 41  1  0
 19 42  1  0
 20 43  1  0
 20 44  1  0
 22 45  1  0
 23 46  1  0
 24 47  1  0
 26 48  1  0
 27 49  1  0
M  END
$$$$
