
     RDKit          3D

 60 62  0  0  0  0  0  0  0  0999 V2000
   -1.4024   -4.4673   -0.3123 C   0  0  0  0  0  0  0  0  0  0  0  0
   -1.5472   -3.1046   -0.9651 C   0  0  0  0  0  0  0  0  0  0  0  0
   -0.6871   -2.1071   -0.3559 N   0  0  0  0  0  0  0  0  0  0  0  0
   -0.9945   -1.2880    0.7133 C   0  0  0  0  0  0  0  0  0  0  0  0
   -2.2939   -1.3206    1.4738 C   0  0  0  0  0  0  0  0  0  0  0  0
   -3.0585   -0.0676    1.3653 N   0  0  0  0  0  0  0  0  0  0  0  0
   -3.5766    0.2119    0.0164 C   0  0  0  0  0  0  0  0  0  0  0  0
   -5.0625   -0.1306   -0.1995 C   0  0  0  0  0  0  0  0  0  0  0  0
   -5.9376    0.5352    0.8031 N   0  0  0  0  0  0  0  0  0  0  0  0
   -7.2152    1.4780    0.2530 S   0  0  0  0  0  6  0  0  0  0  0  0
   -6.3889    2.9165   -0.3995 C   0  0  0  0  0  0  0  0  0  0  0  0
   -7.9907    1.8934    1.4015 O   0  0  0  0  0  0  0  0  0  0  0  0
   -7.8298    0.7813   -0.8567 O   0  0  0  0  0  0  0  0  0  0  0  0
   -5.2525    0.9608    2.0524 C   0  0  0  0  0  0  0  0  0  0  0  0
   -4.1180   -0.0213    2.3926 C   0  0  0  0  0  0  0  0  0  0  0  0
    0.0267   -0.4979    0.9932 N   0  0  0  0  0  0  0  0  0  0  0  0
    1.0115   -0.8050    0.0917 C   0  0  0  0  0  0  0  0  0  0  0  0
    2.2986   -0.2558   -0.0446 C   0  0  0  0  0  0  0  0  0  0  0  0
    3.1468   -0.7407   -1.0466 C   0  0  0  0  0  0  0  0  0  0  0  0
    4.4566   -0.2600   -1.2692 N   0  0  0  0  0  0  0  0  0  0  0  0
    5.1192    0.7444   -0.5787 C   0  0  0  0  0  0  0  0  0  0  0  0
    4.6707    1.3956    0.3546 O   0  0  0  0  0  0  0  0  0  0  0  0
    6.5258    0.9525   -1.1364 C   0  0  0  0  0  0  0  0  0  0  0  0
    7.3888    2.0358   -0.4689 C   0  0  0  0  0  0  0  0  0  0  0  0
    6.8069    3.4406   -0.6382 C   0  0  0  0  0  0  0  0  0  0  0  0
    7.6938    1.7327    0.9985 C   0  0  0  0  0  0  0  0  0  0  0  0
    2.6992   -1.7651   -1.8947 C   0  0  0  0  0  0  0  0  0  0  0  0
    1.4196   -2.3260   -1.7749 C   0  0  0  0  0  0  0  0  0  0  0  0
    0.5965   -1.8158   -0.7669 C   0  0  0  0  0  0  0  0  0  0  0  0
   -0.3773   -4.8407   -0.4040 H   0  0  0  0  0  0  0  0  0  0  0  0
   -2.0717   -5.1895   -0.7893 H   0  0  0  0  0  0  0  0  0  0  0  0
   -1.6492   -4.4258    0.7534 H   0  0  0  0  0  0  0  0  0  0  0  0
   -1.2982   -3.1621   -2.0300 H   0  0  0  0  0  0  0  0  0  0  0  0
   -2.5811   -2.7513   -0.9083 H   0  0  0  0  0  0  0  0  0  0  0  0
   -2.9163   -2.1760    1.1887 H   0  0  0  0  0  0  0  0  0  0  0  0
   -2.0190   -1.4824    2.5255 H   0  0  0  0  0  0  0  0  0  0  0  0
   -2.9800   -0.2686   -0.7669 H   0  0  0  0  0  0  0  0  0  0  0  0
   -3.4531    1.2899   -0.1526 H   0  0  0  0  0  0  0  0  0  0  0  0
   -5.3434    0.1554   -1.2183 H   0  0  0  0  0  0  0  0  0  0  0  0
   -5.2147   -1.2138   -0.1171 H   0  0  0  0  0  0  0  0  0  0  0  0
   -5.6893    2.6099   -1.1779 H   0  0  0  0  0  0  0  0  0  0  0  0
   -5.8756    3.4376    0.4088 H   0  0  0  0  0  0  0  0  0  0  0  0
   -7.1502    3.5700   -0.8301 H   0  0  0  0  0  0  0  0  0  0  0  0
   -4.8492    1.9730    1.9423 H   0  0  0  0  0  0  0  0  0  0  0  0
   -5.9738    0.9610    2.8762 H   0  0  0  0  0  0  0  0  0  0  0  0
   -4.5646   -1.0166    2.5285 H   0  0  0  0  0  0  0  0  0  0  0  0
   -3.6684    0.2674    3.3507 H   0  0  0  0  0  0  0  0  0  0  0  0
    2.5856    0.5284    0.6437 H   0  0  0  0  0  0  0  0  0  0  0  0
    4.9675   -0.7010   -2.0234 H   0  0  0  0  0  0  0  0  0  0  0  0
    6.4249    1.1921   -2.2034 H   0  0  0  0  0  0  0  0  0  0  0  0
    7.0523   -0.0086   -1.0689 H   0  0  0  0  0  0  0  0  0  0  0  0
    8.3517    2.0277   -0.9978 H   0  0  0  0  0  0  0  0  0  0  0  0
    5.8790    3.5749   -0.0753 H   0  0  0  0  0  0  0  0  0  0  0  0
    6.6001    3.6506   -1.6932 H   0  0  0  0  0  0  0  0  0  0  0  0
    7.5181    4.1950   -0.2814 H   0  0  0  0  0  0  0  0  0  0  0  0
    6.8072    1.8176    1.6342 H   0  0  0  0  0  0  0  0  0  0  0  0
    8.0975    0.7213    1.1099 H   0  0  0  0  0  0  0  0  0  0  0  0
    8.4407    2.4330    1.3859 H   0  0  0  0  0  0  0  0  0  0  0  0
    3.3489   -2.1528   -2.6766 H   0  0  0  0  0  0  0  0  0  0  0  0
    1.0965   -3.1210   -2.4380 H   0  0  0  0  0  0  0  0  0  0  0  0
  1  2  1  0
  2  3  1  0
  3  4  1  0
  4  5  1  0
  5  6  1  0
  6  7  1  0
  7  8  1  0
  8  9  1  0
  9 10  1  0
 10 11  1  0
 10 12  2  0
 10 13  2  0
  9 14  1  0
 14 15  1  0
  4 16  2  0
 16 17  1  0
 17 18  2  0
 18 19  1  0
 19 20  1  0
 20 21  1  0
 21 22  2  0
 21 23  1  0
 23 24  1  0
 24 25  1  0
 24 26  1  0
 19 27  2  0
 27 28  1  0
 28 29  2  0
 29  3  1  0
 15  6  1  0
 29 17  1  0
  1 30  1  0
  1 31  1  0
  1 32  1  0
  2 33  1  0
  2 34  1  0
  5 35  1  0
  5 36  1  0
  7 37  1  0
  7 38  1  0
  8 39  1  0
  8 40  1  0
 11 41  1  0
 11 42  1  0
 11 43  1  0
 14 44  1  0
 14 45  1  0
 15 46  1  0
 15 47  1  0
 18 48  1  0
 20 49  1  0
 23 50  1  0
 23 51  1  0
 24 52  1  0
 25 53  1  0
 25 54  1  0
 25 55  1  0
 26 56  1  0
 26 57  1  0
 26 58  1  0
 27 59  1  0
 28 60  1  0
M  END
$$$$
