
     RDKit          3D

 41 43  0  0  0  0  0  0  0  0999 V2000
    6.2154    2.6922   -0.2576 C   0  0  0  0  0  0  0  0  0  0  0  0
    5.3383    1.4542   -0.1879 C   0  0  0  0  0  0  0  0  0  0  0  0
    4.2139    1.7614    0.6418 O   0  0  0  0  0  0  0  0  0  0  0  0
    3.0679    1.0373    0.3938 C   0  0  0  0  0  0  0  0  0  0  0  0
    1.9103    1.7987    0.5582 C   0  0  0  0  0  0  0  0  0  0  0  0
    0.6595    1.2324    0.3557 C   0  0  0  0  0  0  0  0  0  0  0  0
    0.5399   -0.1119   -0.0016 C   0  0  0  0  0  0  0  0  0  0  0  0
   -0.7398   -0.7045   -0.1933 N   0  0  0  0  0  0  0  0  0  0  0  0
   -1.9806   -0.0723   -0.2374 C   0  0  0  0  0  0  0  0  0  0  0  0
   -2.1754    1.1376   -0.1900 O   0  0  0  0  0  0  0  0  0  0  0  0
   -3.1115   -1.0824   -0.4151 C   0  0  0  0  0  0  0  0  0  0  0  0
   -4.4767   -0.5676   -0.0312 C   0  0  0  0  0  0  0  0  0  0  0  0
   -4.8891   -0.5754    1.3089 C   0  0  0  0  0  0  0  0  0  0  0  0
   -6.1513   -0.0947    1.6633 C   0  0  0  0  0  0  0  0  0  0  0  0
   -7.0101    0.4012    0.6839 C   0  0  0  0  0  0  0  0  0  0  0  0
   -6.6054    0.4244   -0.6497 C   0  0  0  0  0  0  0  0  0  0  0  0
   -5.3441   -0.0556   -1.0064 C   0  0  0  0  0  0  0  0  0  0  0  0
    1.7245   -0.9094   -0.1471 C   0  0  0  0  0  0  0  0  0  0  0  0
    1.7168   -2.2842   -0.5005 C   0  0  0  0  0  0  0  0  0  0  0  0
    2.8928   -3.0169   -0.6127 C   0  0  0  0  0  0  0  0  0  0  0  0
    4.0736   -2.3646   -0.3678 C   0  0  0  0  0  0  0  0  0  0  0  0
    4.1408   -1.0606   -0.0413 N   0  0  0  0  0  0  0  0  0  0  0  0
    3.0055   -0.3258    0.0622 C   0  0  0  0  0  0  0  0  0  0  0  0
    7.0772    2.5214   -0.9104 H   0  0  0  0  0  0  0  0  0  0  0  0
    6.5812    2.9605    0.7392 H   0  0  0  0  0  0  0  0  0  0  0  0
    5.6444    3.5491   -0.6352 H   0  0  0  0  0  0  0  0  0  0  0  0
    5.9177    0.6419    0.2608 H   0  0  0  0  0  0  0  0  0  0  0  0
    5.0281    1.1872   -1.2043 H   0  0  0  0  0  0  0  0  0  0  0  0
    1.9874    2.8489    0.8380 H   0  0  0  0  0  0  0  0  0  0  0  0
   -0.2030    1.8745    0.5032 H   0  0  0  0  0  0  0  0  0  0  0  0
   -0.7539   -1.6963   -0.3730 H   0  0  0  0  0  0  0  0  0  0  0  0
   -2.8983   -1.9787    0.1800 H   0  0  0  0  0  0  0  0  0  0  0  0
   -3.1131   -1.4005   -1.4659 H   0  0  0  0  0  0  0  0  0  0  0  0
   -4.2285   -0.9484    2.0878 H   0  0  0  0  0  0  0  0  0  0  0  0
   -6.4614   -0.0987    2.7049 H   0  0  0  0  0  0  0  0  0  0  0  0
   -7.9906    0.7807    0.9603 H   0  0  0  0  0  0  0  0  0  0  0  0
   -7.2695    0.8247   -1.4120 H   0  0  0  0  0  0  0  0  0  0  0  0
   -5.0395   -0.0173   -2.0502 H   0  0  0  0  0  0  0  0  0  0  0  0
    0.7961   -2.8187   -0.7004 H   0  0  0  0  0  0  0  0  0  0  0  0
    2.8815   -4.0653   -0.8802 H   0  0  0  0  0  0  0  0  0  0  0  0
    5.0288   -2.8785   -0.4300 H   0  0  0  0  0  0  0  0  0  0  0  0
  1  2  1  0
  2  3  1  0
  3  4  1  0
  4  5  2  0
  5  6  1  0
  6  7  2  0
  7  8  1  0
  8  9  1  0
  9 10  2  0
  9 11  1  0
 11 12  1  0
 12 13  2  0
 13 14  1  0
 14 15  2  0
 15 16  1  0
 16 17  2  0
  7 18  1  0
 18 19  2  0
 19 20  1  0
 20 21  2  0
 21 22  1  0
 22 23  2  0
 23  4  1  0
 17 12  1  0
 23 18  1  0
  1 24  1  0
  1 25  1  0
  1 26  1  0
  2 27  1  0
  2 28  1  0
  5 29  1  0
  6 30  1  0
  8 31  1  0
 11 32  1  0
 11 33  1  0
 13 34  1  0
 14 35  1  0
 15 36  1  0
 16 37  1  0
 17 38  1  0
 19 39  1  0
 20 40  1  0
 21 41  1  0
M  END
$$$$
