
     RDKit          3D

 41 43  0  0  0  0  0  0  0  0999 V2000
    3.2348    2.2800   -0.7727 C   0  0  0  0  0  0  0  0  0  0  0  0
    2.2051    1.3786   -0.1096 C   0  0  0  0  0  0  0  0  0  0  0  0
    2.5331   -0.0963   -0.2857 C   0  0  0  0  0  0  0  0  0  0  0  0
    3.4427   -0.4698   -1.0283 O   0  0  0  0  0  0  0  0  0  0  0  0
    1.7508   -1.0096    0.3983 N   0  0  0  0  0  0  0  0  0  0  0  0
    2.1739   -2.4010    0.4693 C   0  0  0  0  0  0  0  0  0  0  0  0
    1.6698   -2.8914    1.8189 C   0  0  0  0  0  0  0  0  0  0  0  0
    0.3991   -2.0813    2.0330 C   0  0  0  0  0  0  0  0  0  0  0  0
    0.7553   -0.7186    1.4288 C   0  0  0  0  0  0  0  0  0  0  0  0
   -0.4514    0.0271    0.9389 C   0  0  0  0  0  0  0  0  0  0  0  0
   -0.9310    1.0874    1.5676 N   0  0  0  0  0  0  0  0  0  0  0  0
   -2.0306    1.4928    0.8629 C   0  0  0  0  0  0  0  0  0  0  0  0
   -2.9019    2.5635    1.1102 C   0  0  0  0  0  0  0  0  0  0  0  0
   -3.9749    2.7756    0.2370 C   0  0  0  0  0  0  0  0  0  0  0  0
   -4.1752    1.9370   -0.8599 C   0  0  0  0  0  0  0  0  0  0  0  0
   -3.3139    0.8646   -1.1207 C   0  0  0  0  0  0  0  0  0  0  0  0
   -2.2446    0.6706   -0.2353 C   0  0  0  0  0  0  0  0  0  0  0  0
   -1.2168   -0.2516   -0.1803 N   0  0  0  0  0  0  0  0  0  0  0  0
   -1.0467   -1.3232   -1.1434 C   0  0  0  0  0  0  0  0  0  0  0  0
   -0.4175   -0.8619   -2.4476 C   0  0  0  0  0  0  0  0  0  0  0  0
    2.9759    3.3319   -0.6171 H   0  0  0  0  0  0  0  0  0  0  0  0
    4.2333    2.1075   -0.3577 H   0  0  0  0  0  0  0  0  0  0  0  0
    3.2825    2.0969   -1.8513 H   0  0  0  0  0  0  0  0  0  0  0  0
    1.2291    1.5784   -0.5608 H   0  0  0  0  0  0  0  0  0  0  0  0
    2.1665    1.6187    0.9571 H   0  0  0  0  0  0  0  0  0  0  0  0
    3.2591   -2.5067    0.3766 H   0  0  0  0  0  0  0  0  0  0  0  0
    1.6959   -2.9401   -0.3550 H   0  0  0  0  0  0  0  0  0  0  0  0
    2.3983   -2.6467    2.6014 H   0  0  0  0  0  0  0  0  0  0  0  0
    1.4976   -3.9710    1.8378 H   0  0  0  0  0  0  0  0  0  0  0  0
   -0.4378   -2.5630    1.5150 H   0  0  0  0  0  0  0  0  0  0  0  0
    0.1263   -2.0052    3.0906 H   0  0  0  0  0  0  0  0  0  0  0  0
    1.2624   -0.1150    2.1930 H   0  0  0  0  0  0  0  0  0  0  0  0
   -2.7390    3.2089    1.9659 H   0  0  0  0  0  0  0  0  0  0  0  0
   -4.6571    3.6025    0.4182 H   0  0  0  0  0  0  0  0  0  0  0  0
   -5.0157    2.1204   -1.5263 H   0  0  0  0  0  0  0  0  0  0  0  0
   -3.4764    0.2200   -1.9776 H   0  0  0  0  0  0  0  0  0  0  0  0
   -0.4536   -2.1195   -0.6951 H   0  0  0  0  0  0  0  0  0  0  0  0
   -2.0376   -1.7516   -1.3340 H   0  0  0  0  0  0  0  0  0  0  0  0
   -1.0398   -0.1143   -2.9496 H   0  0  0  0  0  0  0  0  0  0  0  0
   -0.2961   -1.7104   -3.1282 H   0  0  0  0  0  0  0  0  0  0  0  0
    0.5660   -0.4142   -2.2844 H   0  0  0  0  0  0  0  0  0  0  0  0
  1  2  1  0
  2  3  1  0
  3  4  2  0
  3  5  1  0
  5  6  1  0
  6  7  1  0
  7  8  1  0
  8  9  1  0
  9 10  1  0
 10 11  2  0
 11 12  1  0
 12 13  2  0
 13 14  1  0
 14 15  2  0
 15 16  1  0
 16 17  2  0
 17 18  1  0
 18 19  1  0
 19 20  1  0
  9  5  1  0
 18 10  1  0
 17 12  1  0
  1 21  1  0
  1 22  1  0
  1 23  1  0
  2 24  1  0
  2 25  1  0
  6 26  1  0
  6 27  1  0
  7 28  1  0
  7 29  1  0
  8 30  1  0
  8 31  1  0
  9 32  1  0
 13 33  1  0
 14 34  1  0
 15 35  1  0
 16 36  1  0
 19 37  1  0
 19 38  1  0
 20 39  1  0
 20 40  1  0
 20 41  1  0
M  END
$$$$
