
     RDKit          3D

 42 44  0  0  0  0  0  0  0  0999 V2000
   -5.8547    0.7033   -2.0117 C   0  0  0  0  0  0  0  0  0  0  0  0
   -5.9487   -0.0155   -0.7880 O   0  0  0  0  0  0  0  0  0  0  0  0
   -4.7824   -0.3056   -0.1273 C   0  0  0  0  0  0  0  0  0  0  0  0
   -3.5060    0.0572   -0.5745 C   0  0  0  0  0  0  0  0  0  0  0  0
   -2.3648   -0.2800    0.1640 C   0  0  0  0  0  0  0  0  0  0  0  0
   -1.0473    0.0561   -0.2316 N   0  0  0  0  0  0  0  0  0  0  0  0
   -0.6318    0.7400   -1.3505 C   0  0  0  0  0  0  0  0  0  0  0  0
   -1.3731    1.1871   -2.2225 O   0  0  0  0  0  0  0  0  0  0  0  0
    0.8501    0.9262   -1.4654 C   0  0  0  0  0  0  0  0  0  0  0  0
    1.3217    1.5866   -2.5361 C   0  0  0  0  0  0  0  0  0  0  0  0
    2.6420    1.8465   -2.8001 N   0  0  0  0  0  0  0  0  0  0  0  0
    3.4784    1.4058   -1.9260 C   0  0  0  0  0  0  0  0  0  0  0  0
    5.2057    1.6198   -2.0546 S   0  0  0  0  0  0  0  0  0  0  0  0
    5.4579    0.7644   -0.5480 C   0  0  0  0  0  0  0  0  0  0  0  0
    6.8529    0.5858   -0.0474 C   0  0  0  0  0  0  0  0  0  0  0  0
    4.2897    0.3569   -0.0090 C   0  0  0  0  0  0  0  0  0  0  0  0
    4.1304   -0.4011    1.2729 C   0  0  0  0  0  0  0  0  0  0  0  0
    3.1730    0.7121   -0.7749 N   0  0  0  0  0  0  0  0  0  0  0  0
    1.8499    0.4332   -0.4786 C   0  0  0  0  0  0  0  0  0  0  0  0
    1.4628   -0.1772    0.5179 O   0  0  0  0  0  0  0  0  0  0  0  0
   -2.5011   -0.9941    1.3735 C   0  0  0  0  0  0  0  0  0  0  0  0
   -1.3250   -1.2785    2.0259 O   0  0  0  0  0  0  0  0  0  0  0  0
   -1.4115   -1.9970    3.2501 C   0  0  0  0  0  0  0  0  0  0  0  0
   -3.7696   -1.3583    1.8242 C   0  0  0  0  0  0  0  0  0  0  0  0
   -4.9001   -1.0150    1.0769 C   0  0  0  0  0  0  0  0  0  0  0  0
   -6.4457   -1.4967    1.6913 Cl  0  0  0  0  0  0  0  0  0  0  0  0
   -6.8702    0.8439   -2.3944 H   0  0  0  0  0  0  0  0  0  0  0  0
   -5.2933    0.1357   -2.7610 H   0  0  0  0  0  0  0  0  0  0  0  0
   -5.4190    1.6955   -1.8543 H   0  0  0  0  0  0  0  0  0  0  0  0
   -3.3995    0.6046   -1.5014 H   0  0  0  0  0  0  0  0  0  0  0  0
   -0.3310   -0.2684    0.4261 H   0  0  0  0  0  0  0  0  0  0  0  0
    0.6355    1.9702   -3.2911 H   0  0  0  0  0  0  0  0  0  0  0  0
    6.9013    0.0404    0.8976 H   0  0  0  0  0  0  0  0  0  0  0  0
    7.4519    0.0280   -0.7753 H   0  0  0  0  0  0  0  0  0  0  0  0
    7.3285    1.5592    0.1148 H   0  0  0  0  0  0  0  0  0  0  0  0
    3.5285    0.1704    1.9870 H   0  0  0  0  0  0  0  0  0  0  0  0
    3.6526   -1.3695    1.0919 H   0  0  0  0  0  0  0  0  0  0  0  0
    5.0839   -0.6096    1.7640 H   0  0  0  0  0  0  0  0  0  0  0  0
   -1.9720   -1.4307    4.0010 H   0  0  0  0  0  0  0  0  0  0  0  0
   -0.3940   -2.1350    3.6284 H   0  0  0  0  0  0  0  0  0  0  0  0
   -1.8463   -2.9898    3.0948 H   0  0  0  0  0  0  0  0  0  0  0  0
   -3.9097   -1.9071    2.7489 H   0  0  0  0  0  0  0  0  0  0  0  0
  1  2  1  0
  2  3  1  0
  3  4  2  0
  4  5  1  0
  5  6  1  0
  6  7  1  0
  7  8  2  0
  7  9  1  0
  9 10  2  0
 10 11  1  0
 11 12  2  0
 12 13  1  0
 13 14  1  0
 14 15  1  0
 14 16  2  0
 16 17  1  0
 16 18  1  0
 18 19  1  0
 19 20  2  0
  5 21  2  0
 21 22  1  0
 22 23  1  0
 21 24  1  0
 24 25  2  0
 25 26  1  0
 25  3  1  0
 19  9  1  0
 18 12  1  0
  1 27  1  0
  1 28  1  0
  1 29  1  0
  4 30  1  0
  6 31  1  0
 10 32  1  0
 15 33  1  0
 15 34  1  0
 15 35  1  0
 17 36  1  0
 17 37  1  0
 17 38  1  0
 23 39  1  0
 23 40  1  0
 23 41  1  0
 24 42  1  0
M  END
$$$$
