
     RDKit          3D

 51 52  0  0  0  0  0  0  0  0999 V2000
    7.2516    0.0713   -1.5685 C   0  0  0  0  0  0  0  0  0  0  0  0
    6.6575   -0.8095   -0.6254 O   0  0  0  0  0  0  0  0  0  0  0  0
    5.3260   -0.6364   -0.3372 C   0  0  0  0  0  0  0  0  0  0  0  0
    4.5374    0.4083   -0.8333 C   0  0  0  0  0  0  0  0  0  0  0  0
    3.1770    0.5142   -0.4989 C   0  0  0  0  0  0  0  0  0  0  0  0
    2.6080   -0.4310    0.3586 C   0  0  0  0  0  0  0  0  0  0  0  0
    3.3997   -1.4779    0.8650 C   0  0  0  0  0  0  0  0  0  0  0  0
    4.7521   -1.5868    0.5259 C   0  0  0  0  0  0  0  0  0  0  0  0
    5.5879   -2.5800    0.9738 O   0  0  0  0  0  0  0  0  0  0  0  0
    5.0849   -3.4740    1.9559 C   0  0  0  0  0  0  0  0  0  0  0  0
    1.1705   -0.3093    0.7726 C   0  0  0  0  0  0  0  0  0  0  0  0
    0.1903   -0.3969   -0.3783 C   0  0  0  0  0  0  0  0  0  0  0  0
   -0.6692   -1.2868   -0.3897 O   0  0  0  0  0  0  0  0  0  0  0  0
    0.1934    0.6288   -1.3243 N   0  0  0  0  0  0  0  0  0  0  0  0
   -0.9629    0.6770   -2.2285 C   0  0  0  0  0  0  0  0  0  0  0  0
   -2.1491    1.3314   -1.5209 C   0  0  0  0  0  0  0  0  0  0  0  0
   -2.3257    2.5469   -1.5215 O   0  0  0  0  0  0  0  0  0  0  0  0
   -2.9472    0.4382   -0.8335 N   0  0  0  0  0  0  0  0  0  0  0  0
   -3.9981    0.8961    0.0531 C   0  0  0  0  0  0  0  0  0  0  0  0
   -5.0362   -0.2029    0.2751 C   0  0  0  0  0  0  0  0  0  0  0  0
   -6.1666    0.1478    1.2584 C   0  0  0  0  0  0  0  0  0  0  0  0
   -5.6531    0.3269    2.6870 C   0  0  0  0  0  0  0  0  0  0  0  0
   -6.9647    1.3756    0.8198 C   0  0  0  0  0  0  0  0  0  0  0  0
    1.1275    1.6448   -1.4336 C   0  0  0  0  0  0  0  0  0  0  0  0
    2.4112    1.6395   -1.0495 C   0  0  0  0  0  0  0  0  0  0  0  0
    8.2894   -0.2437   -1.7124 H   0  0  0  0  0  0  0  0  0  0  0  0
    6.7484    0.0114   -2.5396 H   0  0  0  0  0  0  0  0  0  0  0  0
    7.2665    1.0992   -1.1915 H   0  0  0  0  0  0  0  0  0  0  0  0
    4.9648    1.1526   -1.4973 H   0  0  0  0  0  0  0  0  0  0  0  0
    2.9348   -2.2021    1.5271 H   0  0  0  0  0  0  0  0  0  0  0  0
    5.8989   -4.1463    2.2430 H   0  0  0  0  0  0  0  0  0  0  0  0
    4.2741   -4.0885    1.5507 H   0  0  0  0  0  0  0  0  0  0  0  0
    4.7645   -2.9380    2.8553 H   0  0  0  0  0  0  0  0  0  0  0  0
    0.9134   -1.1080    1.4799 H   0  0  0  0  0  0  0  0  0  0  0  0
    1.0085    0.6298    1.3165 H   0  0  0  0  0  0  0  0  0  0  0  0
   -0.7274    1.2461   -3.1362 H   0  0  0  0  0  0  0  0  0  0  0  0
   -1.2328   -0.3362   -2.5500 H   0  0  0  0  0  0  0  0  0  0  0  0
   -2.5185   -0.4660   -0.6275 H   0  0  0  0  0  0  0  0  0  0  0  0
   -3.5155    1.1847    0.9923 H   0  0  0  0  0  0  0  0  0  0  0  0
   -4.4594    1.7891   -0.3805 H   0  0  0  0  0  0  0  0  0  0  0  0
   -4.5305   -1.1124    0.6263 H   0  0  0  0  0  0  0  0  0  0  0  0
   -5.4805   -0.4658   -0.6934 H   0  0  0  0  0  0  0  0  0  0  0  0
   -6.8574   -0.7072    1.2647 H   0  0  0  0  0  0  0  0  0  0  0  0
   -5.0134    1.2113    2.7833 H   0  0  0  0  0  0  0  0  0  0  0  0
   -6.4899    0.4468    3.3818 H   0  0  0  0  0  0  0  0  0  0  0  0
   -5.0775   -0.5485    3.0075 H   0  0  0  0  0  0  0  0  0  0  0  0
   -7.3112    1.2685   -0.2137 H   0  0  0  0  0  0  0  0  0  0  0  0
   -7.8469    1.5045    1.4558 H   0  0  0  0  0  0  0  0  0  0  0  0
   -6.3703    2.2931    0.8895 H   0  0  0  0  0  0  0  0  0  0  0  0
    0.7703    2.5323   -1.9595 H   0  0  0  0  0  0  0  0  0  0  0  0
    2.9953    2.5376   -1.2481 H   0  0  0  0  0  0  0  0  0  0  0  0
  1  2  1  0
  2  3  1  0
  3  4  2  0
  4  5  1  0
  5  6  2  0
  6  7  1  0
  7  8  2  0
  8  9  1  0
  9 10  1  0
  6 11  1  0
 11 12  1  0
 12 13  2  0
 12 14  1  0
 14 15  1  0
 15 16  1  0
 16 17  2  0
 16 18  1  0
 18 19  1  0
 19 20  1  0
 20 21  1  0
 21 22  1  0
 21 23  1  0
 14 24  1  0
 24 25  2  0
  8  3  1  0
 25  5  1  0
  1 26  1  0
  1 27  1  0
  1 28  1  0
  4 29  1  0
  7 30  1  0
 10 31  1  0
 10 32  1  0
 10 33  1  0
 11 34  1  0
 11 35  1  0
 15 36  1  0
 15 37  1  0
 18 38  1  0
 19 39  1  0
 19 40  1  0
 20 41  1  0
 20 42  1  0
 21 43  1  0
 22 44  1  0
 22 45  1  0
 22 46  1  0
 23 47  1  0
 23 48  1  0
 23 49  1  0
 24 50  1  0
 25 51  1  0
M  END
$$$$
