
     RDKit          3D

 55 56  0  0  0  0  0  0  0  0999 V2000
   -3.0073   -2.1998    3.5695 C   0  0  0  0  0  0  0  0  0  0  0  0
   -3.8518   -2.0023    2.4448 O   0  0  0  0  0  0  0  0  0  0  0  0
   -3.5710   -0.9514    1.6066 C   0  0  0  0  0  0  0  0  0  0  0  0
   -2.4896   -0.0765    1.7667 C   0  0  0  0  0  0  0  0  0  0  0  0
   -2.2612    0.9709    0.8588 C   0  0  0  0  0  0  0  0  0  0  0  0
   -3.1444    1.1512   -0.2102 C   0  0  0  0  0  0  0  0  0  0  0  0
   -4.2313    0.2743   -0.3748 C   0  0  0  0  0  0  0  0  0  0  0  0
   -4.4488   -0.7766    0.5217 C   0  0  0  0  0  0  0  0  0  0  0  0
   -5.4852   -1.6719    0.4331 O   0  0  0  0  0  0  0  0  0  0  0  0
   -6.3536   -1.5711   -0.6871 C   0  0  0  0  0  0  0  0  0  0  0  0
   -2.9503    2.2932   -1.1644 C   0  0  0  0  0  0  0  0  0  0  0  0
   -1.6375    2.2134   -1.9136 C   0  0  0  0  0  0  0  0  0  0  0  0
   -1.6218    1.9728   -3.1232 O   0  0  0  0  0  0  0  0  0  0  0  0
   -0.4741    2.4917   -1.1963 N   0  0  0  0  0  0  0  0  0  0  0  0
    0.7371    2.7954   -1.9824 C   0  0  0  0  0  0  0  0  0  0  0  0
    1.6969    1.6078   -2.1309 C   0  0  0  0  0  0  0  0  0  0  0  0
    2.8909    1.7756   -2.3775 O   0  0  0  0  0  0  0  0  0  0  0  0
    1.1224    0.3604   -2.0474 N   0  0  0  0  0  0  0  0  0  0  0  0
    1.8706   -0.8704   -2.1860 C   0  0  0  0  0  0  0  0  0  0  0  0
    2.3118   -1.4392   -0.8421 C   0  0  0  0  0  0  0  0  0  0  0  0
    3.4094   -0.6174   -0.1755 C   0  0  0  0  0  0  0  0  0  0  0  0
    3.7838   -1.2859    1.0326 O   0  0  0  0  0  0  0  0  0  0  0  0
    4.7858   -0.5902    1.7810 C   0  0  0  0  0  0  0  0  0  0  0  0
    4.7045   -1.1057    3.2136 C   0  0  0  0  0  0  0  0  0  0  0  0
    6.1725   -0.8542    1.2023 C   0  0  0  0  0  0  0  0  0  0  0  0
   -0.3407    2.4744    0.1849 C   0  0  0  0  0  0  0  0  0  0  0  0
   -1.1108    1.8556    1.0920 C   0  0  0  0  0  0  0  0  0  0  0  0
   -3.0376   -1.3372    4.2444 H   0  0  0  0  0  0  0  0  0  0  0  0
   -3.3854   -3.0663    4.1225 H   0  0  0  0  0  0  0  0  0  0  0  0
   -1.9816   -2.4254    3.2586 H   0  0  0  0  0  0  0  0  0  0  0  0
   -1.7987   -0.2036    2.5945 H   0  0  0  0  0  0  0  0  0  0  0  0
   -4.9024    0.4363   -1.2132 H   0  0  0  0  0  0  0  0  0  0  0  0
   -7.0894   -2.3779   -0.6130 H   0  0  0  0  0  0  0  0  0  0  0  0
   -6.9003   -0.6223   -0.6785 H   0  0  0  0  0  0  0  0  0  0  0  0
   -5.8060   -1.7058   -1.6259 H   0  0  0  0  0  0  0  0  0  0  0  0
   -3.7546    2.3149   -1.9105 H   0  0  0  0  0  0  0  0  0  0  0  0
   -3.0161    3.2512   -0.6339 H   0  0  0  0  0  0  0  0  0  0  0  0
    1.2749    3.6161   -1.4920 H   0  0  0  0  0  0  0  0  0  0  0  0
    0.4666    3.1333   -2.9890 H   0  0  0  0  0  0  0  0  0  0  0  0
    0.1215    0.3054   -1.8952 H   0  0  0  0  0  0  0  0  0  0  0  0
    2.7319   -0.7098   -2.8435 H   0  0  0  0  0  0  0  0  0  0  0  0
    1.2014   -1.5837   -2.6794 H   0  0  0  0  0  0  0  0  0  0  0  0
    1.4554   -1.5241   -0.1609 H   0  0  0  0  0  0  0  0  0  0  0  0
    2.6798   -2.4624   -0.9895 H   0  0  0  0  0  0  0  0  0  0  0  0
    3.0430    0.3840    0.0724 H   0  0  0  0  0  0  0  0  0  0  0  0
    4.2724   -0.5332   -0.8430 H   0  0  0  0  0  0  0  0  0  0  0  0
    4.5728    0.4856    1.7847 H   0  0  0  0  0  0  0  0  0  0  0  0
    3.7042   -0.9301    3.6251 H   0  0  0  0  0  0  0  0  0  0  0  0
    5.4368   -0.6113    3.8583 H   0  0  0  0  0  0  0  0  0  0  0  0
    4.8750   -2.1871    3.2522 H   0  0  0  0  0  0  0  0  0  0  0  0
    6.3723   -1.9311    1.1476 H   0  0  0  0  0  0  0  0  0  0  0  0
    6.9505   -0.3828    1.8113 H   0  0  0  0  0  0  0  0  0  0  0  0
    6.2590   -0.4655    0.1826 H   0  0  0  0  0  0  0  0  0  0  0  0
    0.5555    2.9712    0.5600 H   0  0  0  0  0  0  0  0  0  0  0  0
   -0.8074    1.9375    2.1358 H   0  0  0  0  0  0  0  0  0  0  0  0
  1  2  1  0
  2  3  1  0
  3  4  2  0
  4  5  1  0
  5  6  2  0
  6  7  1  0
  7  8  2  0
  8  9  1  0
  9 10  1  0
  6 11  1  0
 11 12  1  0
 12 13  2  0
 12 14  1  0
 14 15  1  0
 15 16  1  0
 16 17  2  0
 16 18  1  0
 18 19  1  0
 19 20  1  0
 20 21  1  0
 21 22  1  0
 22 23  1  0
 23 24  1  0
 23 25  1  0
 14 26  1  0
 26 27  2  0
  8  3  1  0
 27  5  1  0
  1 28  1  0
  1 29  1  0
  1 30  1  0
  4 31  1  0
  7 32  1  0
 10 33  1  0
 10 34  1  0
 10 35  1  0
 11 36  1  0
 11 37  1  0
 15 38  1  0
 15 39  1  0
 18 40  1  0
 19 41  1  0
 19 42  1  0
 20 43  1  0
 20 44  1  0
 21 45  1  0
 21 46  1  0
 23 47  1  0
 24 48  1  0
 24 49  1  0
 24 50  1  0
 25 51  1  0
 25 52  1  0
 25 53  1  0
 26 54  1  0
 27 55  1  0
M  END
$$$$
