
     RDKit          3D

 47 49  0  0  0  0  0  0  0  0999 V2000
    6.6858   -1.8993   -0.1265 C   0  0  0  0  0  0  0  0  0  0  0  0
    5.9101   -0.6490   -0.5050 C   0  0  0  0  0  0  0  0  0  0  0  0
    6.4405    0.5936    0.2122 C   0  0  0  0  0  0  0  0  0  0  0  0
    5.0652    1.7111    0.3079 S   0  0  0  0  0  6  0  0  0  0  0  0
    4.9344    2.3884   -0.9628 O   0  0  0  0  0  0  0  0  0  0  0  0
    5.1028    2.4081    1.5727 O   0  0  0  0  0  0  0  0  0  0  0  0
    3.9472    0.4523    0.3821 N   0  0  0  0  0  0  0  0  0  0  0  0
    2.5580    0.7597    0.3244 C   0  0  0  0  0  0  0  0  0  0  0  0
    1.9495    1.3379    1.4443 C   0  0  0  0  0  0  0  0  0  0  0  0
    0.6009    1.6986    1.4084 C   0  0  0  0  0  0  0  0  0  0  0  0
   -0.1356    1.4875    0.2401 C   0  0  0  0  0  0  0  0  0  0  0  0
   -1.8550    1.9384    0.1987 S   0  0  0  0  0  6  0  0  0  0  0  0
   -2.0383    3.0587    1.0944 O   0  0  0  0  0  0  0  0  0  0  0  0
   -2.2751    1.9806   -1.1833 O   0  0  0  0  0  0  0  0  0  0  0  0
   -2.5815    0.6211    0.9333 N   0  0  0  0  0  0  0  0  0  0  0  0
   -2.4551   -0.7144    0.3442 C   0  0  0  0  0  0  0  0  0  0  0  0
   -3.6205   -1.6106    0.7773 C   0  0  0  0  0  0  0  0  0  0  0  0
   -4.9497   -1.2018    0.1859 C   0  0  0  0  0  0  0  0  0  0  0  0
   -5.8741   -0.4721    0.9495 C   0  0  0  0  0  0  0  0  0  0  0  0
   -7.0990   -0.0914    0.4002 C   0  0  0  0  0  0  0  0  0  0  0  0
   -7.3986   -0.4359   -0.9120 C   0  0  0  0  0  0  0  0  0  0  0  0
   -8.5766   -0.0728   -1.4363 F   0  0  0  0  0  0  0  0  0  0  0  0
   -6.4950   -1.1530   -1.6871 C   0  0  0  0  0  0  0  0  0  0  0  0
   -5.2696   -1.5359   -1.1399 C   0  0  0  0  0  0  0  0  0  0  0  0
    0.4741    0.9589   -0.9005 C   0  0  0  0  0  0  0  0  0  0  0  0
    1.8237    0.6005   -0.8565 C   0  0  0  0  0  0  0  0  0  0  0  0
    4.4315   -0.7654   -0.1483 C   0  0  0  0  0  0  0  0  0  0  0  0
    3.7586   -1.7682   -0.3356 O   0  0  0  0  0  0  0  0  0  0  0  0
    6.5721   -2.1332    0.9372 H   0  0  0  0  0  0  0  0  0  0  0  0
    6.3247   -2.7651   -0.6905 H   0  0  0  0  0  0  0  0  0  0  0  0
    7.7521   -1.7770   -0.3401 H   0  0  0  0  0  0  0  0  0  0  0  0
    5.9598   -0.4927   -1.5900 H   0  0  0  0  0  0  0  0  0  0  0  0
    6.7526    0.3699    1.2382 H   0  0  0  0  0  0  0  0  0  0  0  0
    7.2630    1.0692   -0.3275 H   0  0  0  0  0  0  0  0  0  0  0  0
    2.5229    1.5117    2.3527 H   0  0  0  0  0  0  0  0  0  0  0  0
    0.1394    2.1481    2.2844 H   0  0  0  0  0  0  0  0  0  0  0  0
   -2.7356    0.7240    1.9339 H   0  0  0  0  0  0  0  0  0  0  0  0
   -1.5218   -1.1611    0.7040 H   0  0  0  0  0  0  0  0  0  0  0  0
   -2.4081   -0.6571   -0.7482 H   0  0  0  0  0  0  0  0  0  0  0  0
   -3.4111   -2.6447    0.4716 H   0  0  0  0  0  0  0  0  0  0  0  0
   -3.6935   -1.6308    1.8725 H   0  0  0  0  0  0  0  0  0  0  0  0
   -5.6447   -0.1903    1.9739 H   0  0  0  0  0  0  0  0  0  0  0  0
   -7.8179    0.4746    0.9841 H   0  0  0  0  0  0  0  0  0  0  0  0
   -6.7487   -1.4049   -2.7118 H   0  0  0  0  0  0  0  0  0  0  0  0
   -4.5664   -2.0931   -1.7553 H   0  0  0  0  0  0  0  0  0  0  0  0
   -0.0879    0.8281   -1.8228 H   0  0  0  0  0  0  0  0  0  0  0  0
    2.2904    0.1987   -1.7519 H   0  0  0  0  0  0  0  0  0  0  0  0
  1  2  1  0
  2  3  1  0
  3  4  1  0
  4  5  2  0
  4  6  2  0
  4  7  1  0
  7  8  1  0
  8  9  2  0
  9 10  1  0
 10 11  2  0
 11 12  1  0
 12 13  2  0
 12 14  2  0
 12 15  1  0
 15 16  1  0
 16 17  1  0
 17 18  1  0
 18 19  2  0
 19 20  1  0
 20 21  2  0
 21 22  1  0
 21 23  1  0
 23 24  2  0
 11 25  1  0
 25 26  2  0
  7 27  1  0
 27 28  2  0
 27  2  1  0
 26  8  1  0
 24 18  1  0
  1 29  1  0
  1 30  1  0
  1 31  1  0
  2 32  1  0
  3 33  1  0
  3 34  1  0
  9 35  1  0
 10 36  1  0
 15 37  1  0
 16 38  1  0
 16 39  1  0
 17 40  1  0
 17 41  1  0
 19 42  1  0
 20 43  1  0
 23 44  1  0
 24 45  1  0
 25 46  1  0
 26 47  1  0
M  END
$$$$
