
     RDKit          3D

 53 56  0  0  0  0  0  0  0  0999 V2000
    5.7506    1.4715   -2.0345 C   0  0  0  0  0  0  0  0  0  0  0  0
    6.1100    0.1956   -0.8467 S   0  0  0  0  0  6  0  0  0  0  0  0
    5.9471   -1.0842   -1.5004 O   0  0  0  0  0  0  0  0  0  0  0  0
    7.3714    0.5534   -0.2267 O   0  0  0  0  0  0  0  0  0  0  0  0
    4.8515    0.4826    0.2777 N   0  0  0  0  0  0  0  0  0  0  0  0
    5.2996    1.1383    1.5333 C   0  0  0  0  0  0  0  0  0  0  0  0
    4.1233    1.5184    2.4129 C   0  0  0  0  0  0  0  0  0  0  0  0
    3.3083    0.2760    2.7229 C   0  0  0  0  0  0  0  0  0  0  0  0
    2.8474   -0.3692    1.4427 C   0  0  0  0  0  0  0  0  0  0  0  0
    1.6352   -1.0810    1.4501 C   0  0  0  0  0  0  0  0  0  0  0  0
    1.1517   -1.6414    0.2699 C   0  0  0  0  0  0  0  0  0  0  0  0
   -0.1288   -2.3726    0.2692 C   0  0  0  0  0  0  0  0  0  0  0  0
   -0.0851   -3.5990    0.2694 O   0  0  0  0  0  0  0  0  0  0  0  0
   -1.3029   -1.6294    0.2571 N   0  0  0  0  0  0  0  0  0  0  0  0
   -1.3615   -0.1724    0.0849 C   0  0  0  0  0  0  0  0  0  0  0  0
   -2.7665    0.4197    0.3077 C   0  0  0  0  0  0  0  0  0  0  0  0
   -3.7699   -0.2527   -0.5304 N   0  0  0  0  0  0  0  0  0  0  0  0
   -4.9588    0.3688   -0.8858 C   0  0  0  0  0  0  0  0  0  0  0  0
   -5.7515   -0.1104   -1.9435 C   0  0  0  0  0  0  0  0  0  0  0  0
   -6.9504    0.5110   -2.3168 C   0  0  0  0  0  0  0  0  0  0  0  0
   -7.3915    1.6395   -1.6365 C   0  0  0  0  0  0  0  0  0  0  0  0
   -6.6306    2.1431   -0.5894 C   0  0  0  0  0  0  0  0  0  0  0  0
   -5.4315    1.5149   -0.2248 C   0  0  0  0  0  0  0  0  0  0  0  0
   -3.5619   -1.6870   -0.8130 C   0  0  0  0  0  0  0  0  0  0  0  0
   -2.5849   -2.3348    0.1856 C   0  0  0  0  0  0  0  0  0  0  0  0
    1.8760   -1.5285   -0.9126 C   0  0  0  0  0  0  0  0  0  0  0  0
    3.0932   -0.8380   -0.9135 C   0  0  0  0  0  0  0  0  0  0  0  0
    3.6208   -0.2850    0.2637 C   0  0  0  0  0  0  0  0  0  0  0  0
    5.7848    2.4436   -1.5363 H   0  0  0  0  0  0  0  0  0  0  0  0
    4.7684    1.2950   -2.4762 H   0  0  0  0  0  0  0  0  0  0  0  0
    6.5156    1.4314   -2.8136 H   0  0  0  0  0  0  0  0  0  0  0  0
    5.8549    2.0517    1.2909 H   0  0  0  0  0  0  0  0  0  0  0  0
    5.9662    0.4595    2.0803 H   0  0  0  0  0  0  0  0  0  0  0  0
    3.4996    2.2645    1.9027 H   0  0  0  0  0  0  0  0  0  0  0  0
    4.4806    1.9763    3.3430 H   0  0  0  0  0  0  0  0  0  0  0  0
    2.4461    0.5651    3.3361 H   0  0  0  0  0  0  0  0  0  0  0  0
    3.9005   -0.4475    3.2965 H   0  0  0  0  0  0  0  0  0  0  0  0
    1.0626   -1.1887    2.3683 H   0  0  0  0  0  0  0  0  0  0  0  0
   -1.0321    0.0372   -0.9405 H   0  0  0  0  0  0  0  0  0  0  0  0
   -0.6532    0.3079    0.7651 H   0  0  0  0  0  0  0  0  0  0  0  0
   -2.7095    1.4885    0.0709 H   0  0  0  0  0  0  0  0  0  0  0  0
   -3.0488    0.3143    1.3626 H   0  0  0  0  0  0  0  0  0  0  0  0
   -5.4361   -0.9762   -2.5210 H   0  0  0  0  0  0  0  0  0  0  0  0
   -7.5323    0.1096   -3.1413 H   0  0  0  0  0  0  0  0  0  0  0  0
   -8.3217    2.1242   -1.9219 H   0  0  0  0  0  0  0  0  0  0  0  0
   -6.9665    3.0232   -0.0477 H   0  0  0  0  0  0  0  0  0  0  0  0
   -4.8842    1.9374    0.6124 H   0  0  0  0  0  0  0  0  0  0  0  0
   -3.1639   -1.7894   -1.8306 H   0  0  0  0  0  0  0  0  0  0  0  0
   -4.5072   -2.2405   -0.7551 H   0  0  0  0  0  0  0  0  0  0  0  0
   -3.0121   -2.3057    1.1956 H   0  0  0  0  0  0  0  0  0  0  0  0
   -2.4370   -3.3877   -0.0776 H   0  0  0  0  0  0  0  0  0  0  0  0
    1.5031   -1.9773   -1.8299 H   0  0  0  0  0  0  0  0  0  0  0  0
    3.6118   -0.7634   -1.8636 H   0  0  0  0  0  0  0  0  0  0  0  0
  1  2  1  0
  2  3  2  0
  2  4  2  0
  2  5  1  0
  5  6  1  0
  6  7  1  0
  7  8  1  0
  8  9  1  0
  9 10  2  0
 10 11  1  0
 11 12  1  0
 12 13  2  0
 12 14  1  0
 14 15  1  0
 15 16  1  0
 16 17  1  0
 17 18  1  0
 18 19  2  0
 19 20  1  0
 20 21  2  0
 21 22  1  0
 22 23  2  0
 17 24  1  0
 24 25  1  0
 11 26  2  0
 26 27  1  0
 27 28  2  0
 28  5  1  0
 28  9  1  0
 25 14  1  0
 23 18  1  0
  1 29  1  0
  1 30  1  0
  1 31  1  0
  6 32  1  0
  6 33  1  0
  7 34  1  0
  7 35  1  0
  8 36  1  0
  8 37  1  0
 10 38  1  0
 15 39  1  0
 15 40  1  0
 16 41  1  0
 16 42  1  0
 19 43  1  0
 20 44  1  0
 21 45  1  0
 22 46  1  0
 23 47  1  0
 24 48  1  0
 24 49  1  0
 25 50  1  0
 25 51  1  0
 26 52  1  0
 27 53  1  0
M  END
$$$$
