
     RDKit          3D

 33 34  0  0  0  0  0  0  0  0999 V2000
   -4.0341    1.0602    0.8781 C   0  0  0  0  0  0  0  0  0  0  0  0
   -3.2102   -0.2146    1.0031 C   0  0  0  0  0  0  0  0  0  0  0  0
   -1.9751   -0.0363    1.8768 C   0  0  0  0  0  0  0  0  0  0  0  0
   -0.5489    0.6593    1.0384 S   0  0  0  0  0  6  0  0  0  0  0  0
   -0.9846    1.4340   -0.1015 O   0  0  0  0  0  0  0  0  0  0  0  0
    0.2879    1.2445    2.0672 O   0  0  0  0  0  0  0  0  0  0  0  0
    0.2389   -0.7118    0.4822 N   0  0  0  0  0  0  0  0  0  0  0  0
   -0.3683   -1.5528   -0.5645 C   0  0  0  0  0  0  0  0  0  0  0  0
    0.7715   -2.3853   -1.1476 C   0  0  0  0  0  0  0  0  0  0  0  0
    1.9973   -2.0558   -0.3061 C   0  0  0  0  0  0  0  0  0  0  0  0
    1.7065   -0.6832    0.3020 C   0  0  0  0  0  0  0  0  0  0  0  0
    2.2085    0.4944   -0.5037 C   0  0  0  0  0  0  0  0  0  0  0  0
    2.8649    1.6068   -0.0002 C   0  0  0  0  0  0  0  0  0  0  0  0
    3.2104    2.5535   -1.0055 C   0  0  0  0  0  0  0  0  0  0  0  0
    2.8091    2.1415   -2.2541 C   0  0  0  0  0  0  0  0  0  0  0  0
    2.0221    0.6283   -2.2053 S   0  0  0  0  0  0  0  0  0  0  0  0
   -3.4706    1.8667    0.4023 H   0  0  0  0  0  0  0  0  0  0  0  0
   -4.9262    0.8719    0.2722 H   0  0  0  0  0  0  0  0  0  0  0  0
   -4.3647    1.4093    1.8617 H   0  0  0  0  0  0  0  0  0  0  0  0
   -3.8499   -0.9781    1.4618 H   0  0  0  0  0  0  0  0  0  0  0  0
   -2.9479   -0.5773    0.0051 H   0  0  0  0  0  0  0  0  0  0  0  0
   -1.6526   -0.9956    2.2961 H   0  0  0  0  0  0  0  0  0  0  0  0
   -2.1934    0.6222    2.7250 H   0  0  0  0  0  0  0  0  0  0  0  0
   -1.1211   -2.2086   -0.1167 H   0  0  0  0  0  0  0  0  0  0  0  0
   -0.8394   -0.9521   -1.3481 H   0  0  0  0  0  0  0  0  0  0  0  0
    0.9309   -2.1298   -2.2002 H   0  0  0  0  0  0  0  0  0  0  0  0
    0.5435   -3.4562   -1.1192 H   0  0  0  0  0  0  0  0  0  0  0  0
    2.0722   -2.7978    0.4997 H   0  0  0  0  0  0  0  0  0  0  0  0
    2.9283   -2.1041   -0.8797 H   0  0  0  0  0  0  0  0  0  0  0  0
    2.1795   -0.6513    1.2923 H   0  0  0  0  0  0  0  0  0  0  0  0
    3.0684    1.7432    1.0562 H   0  0  0  0  0  0  0  0  0  0  0  0
    3.7155    3.4930   -0.8189 H   0  0  0  0  0  0  0  0  0  0  0  0
    2.9316    2.6618   -3.1939 H   0  0  0  0  0  0  0  0  0  0  0  0
  1  2  1  0
  2  3  1  0
  3  4  1  0
  4  5  2  0
  4  6  2  0
  4  7  1  0
  7  8  1  0
  8  9  1  0
  9 10  1  0
 10 11  1  0
 11 12  1  0
 12 13  2  0
 13 14  1  0
 14 15  2  0
 15 16  1  0
 11  7  1  0
 16 12  1  0
  1 17  1  0
  1 18  1  0
  1 19  1  0
  2 20  1  0
  2 21  1  0
  3 22  1  0
  3 23  1  0
  8 24  1  0
  8 25  1  0
  9 26  1  0
  9 27  1  0
 10 28  1  0
 10 29  1  0
 11 30  1  0
 13 31  1  0
 14 32  1  0
 15 33  1  0
M  END
$$$$
