
     RDKit          3D

 55 57  0  0  0  0  0  0  0  0999 V2000
   -9.4157    0.0741    0.4523 C   0  0  0  0  0  0  0  0  0  0  0  0
   -7.9342   -0.1491    0.5234 C   0  0  0  0  0  0  0  0  0  0  0  0
   -7.3972   -1.4351    0.3964 C   0  0  0  0  0  0  0  0  0  0  0  0
   -6.0181   -1.6410    0.4928 C   0  0  0  0  0  0  0  0  0  0  0  0
   -5.1542   -0.5657    0.7353 C   0  0  0  0  0  0  0  0  0  0  0  0
   -3.6637   -0.7722    0.8157 C   0  0  0  0  0  0  0  0  0  0  0  0
   -3.0387   -0.4666   -0.4523 N   0  0  0  0  0  0  0  0  0  0  0  0
   -2.4268    0.7443   -0.6851 C   0  0  0  0  0  0  0  0  0  0  0  0
   -2.2883    1.6133    0.1679 O   0  0  0  0  0  0  0  0  0  0  0  0
   -1.9816    0.9148   -2.1227 C   0  0  0  0  0  0  0  0  0  0  0  0
   -1.0615    2.1176   -2.3006 C   0  0  0  0  0  0  0  0  0  0  0  0
    0.2845    1.8866   -1.7224 C   0  0  0  0  0  0  0  0  0  0  0  0
    0.9874    0.7799   -1.6409 N   0  0  0  0  0  0  0  0  0  0  0  0
    2.1557    1.2083   -1.0279 C   0  0  0  0  0  0  0  0  0  0  0  0
    3.1916    0.2465   -0.7757 C   0  0  0  0  0  0  0  0  0  0  0  0
    3.2362   -0.9441   -1.3992 C   0  0  0  0  0  0  0  0  0  0  0  0
    4.2799   -1.8969   -1.1623 C   0  0  0  0  0  0  0  0  0  0  0  0
    5.2809   -1.6366   -0.3081 C   0  0  0  0  0  0  0  0  0  0  0  0
    6.3559   -2.6702   -0.1024 C   0  0  0  0  0  0  0  0  0  0  0  0
    5.3068   -0.4163    0.3841 N   0  0  0  0  0  0  0  0  0  0  0  0
    6.3964   -0.1140    1.3490 C   0  0  0  0  0  0  0  0  0  0  0  0
    5.8955   -0.0517    2.7951 C   0  0  0  0  0  0  0  0  0  0  0  0
    7.1936    1.1385    0.9679 C   0  0  0  0  0  0  0  0  0  0  0  0
    4.2800    0.5481    0.2252 C   0  0  0  0  0  0  0  0  0  0  0  0
    4.2539    1.5902    0.8789 O   0  0  0  0  0  0  0  0  0  0  0  0
    2.1820    2.5306   -0.8017 N   0  0  0  0  0  0  0  0  0  0  0  0
    0.9418    2.9778   -1.2436 O   0  0  0  0  0  0  0  0  0  0  0  0
   -5.6948    0.7207    0.8676 C   0  0  0  0  0  0  0  0  0  0  0  0
   -7.0726    0.9258    0.7695 C   0  0  0  0  0  0  0  0  0  0  0  0
   -9.8334    0.1394    1.4620 H   0  0  0  0  0  0  0  0  0  0  0  0
   -9.6398    0.9997   -0.0880 H   0  0  0  0  0  0  0  0  0  0  0  0
   -9.9146   -0.7427   -0.0805 H   0  0  0  0  0  0  0  0  0  0  0  0
   -8.0501   -2.2868    0.2202 H   0  0  0  0  0  0  0  0  0  0  0  0
   -5.6258   -2.6498    0.3836 H   0  0  0  0  0  0  0  0  0  0  0  0
   -3.4349   -1.8187    1.0460 H   0  0  0  0  0  0  0  0  0  0  0  0
   -3.2370   -0.1620    1.6197 H   0  0  0  0  0  0  0  0  0  0  0  0
   -3.2781   -1.0540   -1.2381 H   0  0  0  0  0  0  0  0  0  0  0  0
   -1.4971   -0.0065   -2.4665 H   0  0  0  0  0  0  0  0  0  0  0  0
   -2.8864    1.0641   -2.7244 H   0  0  0  0  0  0  0  0  0  0  0  0
   -1.5109    3.0161   -1.8615 H   0  0  0  0  0  0  0  0  0  0  0  0
   -0.9396    2.3140   -3.3724 H   0  0  0  0  0  0  0  0  0  0  0  0
    2.4766   -1.2203   -2.1260 H   0  0  0  0  0  0  0  0  0  0  0  0
    4.2280   -2.8332   -1.7110 H   0  0  0  0  0  0  0  0  0  0  0  0
    6.3902   -2.9931    0.9431 H   0  0  0  0  0  0  0  0  0  0  0  0
    6.1812   -3.5692   -0.7051 H   0  0  0  0  0  0  0  0  0  0  0  0
    7.3348   -2.2786   -0.3976 H   0  0  0  0  0  0  0  0  0  0  0  0
    7.1272   -0.9258    1.3294 H   0  0  0  0  0  0  0  0  0  0  0  0
    6.7388    0.0415    3.4883 H   0  0  0  0  0  0  0  0  0  0  0  0
    5.2302    0.7974    2.9749 H   0  0  0  0  0  0  0  0  0  0  0  0
    5.3473   -0.9648    3.0521 H   0  0  0  0  0  0  0  0  0  0  0  0
    8.0840    1.2292    1.5997 H   0  0  0  0  0  0  0  0  0  0  0  0
    6.6176    2.0599    1.0884 H   0  0  0  0  0  0  0  0  0  0  0  0
    7.5247    1.0829   -0.0746 H   0  0  0  0  0  0  0  0  0  0  0  0
   -5.0392    1.5716    1.0492 H   0  0  0  0  0  0  0  0  0  0  0  0
   -7.4683    1.9322    0.8861 H   0  0  0  0  0  0  0  0  0  0  0  0
  1  2  1  0
  2  3  2  0
  3  4  1  0
  4  5  2  0
  5  6  1  0
  6  7  1  0
  7  8  1  0
  8  9  2  0
  8 10  1  0
 10 11  1  0
 11 12  1  0
 12 13  2  0
 13 14  1  0
 14 15  1  0
 15 16  2  0
 16 17  1  0
 17 18  2  0
 18 19  1  0
 18 20  1  0
 20 21  1  0
 21 22  1  0
 21 23  1  0
 20 24  1  0
 24 25  2  0
 14 26  2  0
 26 27  1  0
  5 28  1  0
 28 29  2  0
 29  2  1  0
 27 12  1  0
 24 15  1  0
  1 30  1  0
  1 31  1  0
  1 32  1  0
  3 33  1  0
  4 34  1  0
  6 35  1  0
  6 36  1  0
  7 37  1  0
 10 38  1  0
 10 39  1  0
 11 40  1  0
 11 41  1  0
 16 42  1  0
 17 43  1  0
 19 44  1  0
 19 45  1  0
 19 46  1  0
 21 47  1  0
 22 48  1  0
 22 49  1  0
 22 50  1  0
 23 51  1  0
 23 52  1  0
 23 53  1  0
 28 54  1  0
 29 55  1  0
M  END
$$$$
