
     RDKit          3D

 49 51  0  0  0  0  0  0  0  0999 V2000
   -6.3116   -3.0701   -1.6945 C   0  0  0  0  0  0  0  0  0  0  0  0
   -6.0502   -1.6995   -1.9611 O   0  0  0  0  0  0  0  0  0  0  0  0
   -5.1187   -1.0639   -1.1786 C   0  0  0  0  0  0  0  0  0  0  0  0
   -4.3306   -1.7001   -0.2152 C   0  0  0  0  0  0  0  0  0  0  0  0
   -3.4011   -0.9695    0.5313 C   0  0  0  0  0  0  0  0  0  0  0  0
   -3.2476    0.4078    0.3327 C   0  0  0  0  0  0  0  0  0  0  0  0
   -2.2818    1.1601    1.1280 C   0  0  0  0  0  0  0  0  0  0  0  0
   -2.1962    2.5009    1.1365 N   0  0  0  0  0  0  0  0  0  0  0  0
   -1.1595    2.7633    2.0280 O   0  0  0  0  0  0  0  0  0  0  0  0
   -0.7117    1.5544    2.4652 C   0  0  0  0  0  0  0  0  0  0  0  0
    0.4274    1.5586    3.4114 C   0  0  0  0  0  0  0  0  0  0  0  0
    1.7754    1.6702    2.7008 C   0  0  0  0  0  0  0  0  0  0  0  0
    2.0850    0.4700    1.8024 C   0  0  0  0  0  0  0  0  0  0  0  0
    3.4810    0.5515    1.2000 C   0  0  0  0  0  0  0  0  0  0  0  0
    4.3054    1.3727    1.5868 O   0  0  0  0  0  0  0  0  0  0  0  0
    3.6661   -0.4087    0.2179 N   0  0  0  0  0  0  0  0  0  0  0  0
    4.8240   -0.6371   -0.5541 C   0  0  0  0  0  0  0  0  0  0  0  0
    4.7556   -1.6492   -1.5225 C   0  0  0  0  0  0  0  0  0  0  0  0
    5.8588   -1.9370   -2.3299 C   0  0  0  0  0  0  0  0  0  0  0  0
    7.0350   -1.2167   -2.1685 C   0  0  0  0  0  0  0  0  0  0  0  0
    8.0889   -1.5319   -2.9733 O   0  0  0  0  0  0  0  0  0  0  0  0
    7.1241   -0.2100   -1.2142 C   0  0  0  0  0  0  0  0  0  0  0  0
    6.0162    0.0789   -0.4084 C   0  0  0  0  0  0  0  0  0  0  0  0
   -1.3602    0.5382    1.9463 N   0  0  0  0  0  0  0  0  0  0  0  0
   -4.0376    1.0444   -0.6375 C   0  0  0  0  0  0  0  0  0  0  0  0
   -4.9652    0.3203   -1.3974 C   0  0  0  0  0  0  0  0  0  0  0  0
   -5.7726    0.8705   -2.3634 O   0  0  0  0  0  0  0  0  0  0  0  0
   -5.5652    2.2348   -2.6994 C   0  0  0  0  0  0  0  0  0  0  0  0
   -6.6610   -3.2155   -0.6663 H   0  0  0  0  0  0  0  0  0  0  0  0
   -5.4322   -3.6871   -1.9054 H   0  0  0  0  0  0  0  0  0  0  0  0
   -7.1125   -3.3948   -2.3660 H   0  0  0  0  0  0  0  0  0  0  0  0
   -4.4119   -2.7640   -0.0206 H   0  0  0  0  0  0  0  0  0  0  0  0
   -2.8007   -1.4866    1.2780 H   0  0  0  0  0  0  0  0  0  0  0  0
    0.4008    0.6474    4.0187 H   0  0  0  0  0  0  0  0  0  0  0  0
    0.3173    2.4015    4.1029 H   0  0  0  0  0  0  0  0  0  0  0  0
    1.8105    2.5894    2.1023 H   0  0  0  0  0  0  0  0  0  0  0  0
    2.5582    1.7668    3.4641 H   0  0  0  0  0  0  0  0  0  0  0  0
    2.0236   -0.4581    2.3810 H   0  0  0  0  0  0  0  0  0  0  0  0
    1.3592    0.4160    0.9836 H   0  0  0  0  0  0  0  0  0  0  0  0
    2.8737   -1.0053    0.0098 H   0  0  0  0  0  0  0  0  0  0  0  0
    3.8460   -2.2265   -1.6670 H   0  0  0  0  0  0  0  0  0  0  0  0
    5.7998   -2.7211   -3.0801 H   0  0  0  0  0  0  0  0  0  0  0  0
    8.8524   -0.9908   -2.7114 H   0  0  0  0  0  0  0  0  0  0  0  0
    8.0363    0.3631   -1.0789 H   0  0  0  0  0  0  0  0  0  0  0  0
    6.1193    0.8714    0.3267 H   0  0  0  0  0  0  0  0  0  0  0  0
   -3.9151    2.1134   -0.7851 H   0  0  0  0  0  0  0  0  0  0  0  0
   -5.8064    2.8894   -1.8554 H   0  0  0  0  0  0  0  0  0  0  0  0
   -4.5430    2.4040   -3.0545 H   0  0  0  0  0  0  0  0  0  0  0  0
   -6.2473    2.4847   -3.5180 H   0  0  0  0  0  0  0  0  0  0  0  0
  1  2  1  0
  2  3  1  0
  3  4  2  0
  4  5  1  0
  5  6  2  0
  6  7  1  0
  7  8  2  0
  8  9  1  0
  9 10  1  0
 10 11  1  0
 11 12  1  0
 12 13  1  0
 13 14  1  0
 14 15  2  0
 14 16  1  0
 16 17  1  0
 17 18  2  0
 18 19  1  0
 19 20  2  0
 20 21  1  0
 20 22  1  0
 22 23  2  0
 10 24  2  0
  6 25  1  0
 25 26  2  0
 26 27  1  0
 27 28  1  0
 26  3  1  0
 24  7  1  0
 23 17  1  0
  1 29  1  0
  1 30  1  0
  1 31  1  0
  4 32  1  0
  5 33  1  0
 11 34  1  0
 11 35  1  0
 12 36  1  0
 12 37  1  0
 13 38  1  0
 13 39  1  0
 16 40  1  0
 18 41  1  0
 19 42  1  0
 21 43  1  0
 22 44  1  0
 23 45  1  0
 25 46  1  0
 28 47  1  0
 28 48  1  0
 28 49  1  0
M  END
$$$$
