
     RDKit          3D

 46 48  0  0  0  0  0  0  0  0999 V2000
   -3.9183    1.2246   -1.7772 C   0  0  0  0  0  0  0  0  0  0  0  0
   -3.5576   -0.1752   -1.3129 C   0  0  0  0  0  0  0  0  0  0  0  0
   -2.7591   -0.0565   -0.1341 O   0  0  0  0  0  0  0  0  0  0  0  0
   -2.2546   -1.2273    0.3902 C   0  0  0  0  0  0  0  0  0  0  0  0
   -2.6090   -2.5113   -0.0333 C   0  0  0  0  0  0  0  0  0  0  0  0
   -2.0147   -3.6307    0.5526 C   0  0  0  0  0  0  0  0  0  0  0  0
   -1.0667   -3.4728    1.5603 C   0  0  0  0  0  0  0  0  0  0  0  0
   -0.7084   -2.1947    1.9930 C   0  0  0  0  0  0  0  0  0  0  0  0
   -1.3008   -1.0688    1.4193 C   0  0  0  0  0  0  0  0  0  0  0  0
   -0.9875    0.2548    1.7932 N   0  0  0  0  0  0  0  0  0  0  0  0
    0.0669    0.7019    2.5713 C   0  0  0  0  0  0  0  0  0  0  0  0
    0.8216   -0.0150    3.2233 O   0  0  0  0  0  0  0  0  0  0  0  0
    0.1740    2.2369    2.6090 C   0  0  0  0  0  0  0  0  0  0  0  0
    1.4620    2.7208    3.2658 C   0  0  0  0  0  0  0  0  0  0  0  0
   -0.0506    3.0137    0.9578 S   0  0  0  0  0  0  0  0  0  0  0  0
    0.8424    1.9148   -0.0474 C   0  0  0  0  0  0  0  0  0  0  0  0
    2.0316    1.5082    0.2468 N   0  0  0  0  0  0  0  0  0  0  0  0
    2.5555    0.6026   -0.6295 C   0  0  0  0  0  0  0  0  0  0  0  0
    1.9471    0.1236   -1.7155 C   0  0  0  0  0  0  0  0  0  0  0  0
    0.6055    0.6021   -2.0333 C   0  0  0  0  0  0  0  0  0  0  0  0
   -0.0360    0.2020   -2.9954 O   0  0  0  0  0  0  0  0  0  0  0  0
    0.1344    1.5335   -1.1504 N   0  0  0  0  0  0  0  0  0  0  0  0
    2.7521   -0.8731   -2.4535 C   0  0  0  0  0  0  0  0  0  0  0  0
    4.1331   -0.6929   -1.8081 C   0  0  0  0  0  0  0  0  0  0  0  0
    3.9036   -0.0099   -0.4513 C   0  0  0  0  0  0  0  0  0  0  0  0
   -3.0166    1.8039   -1.9981 H   0  0  0  0  0  0  0  0  0  0  0  0
   -4.5414    1.1883   -2.6751 H   0  0  0  0  0  0  0  0  0  0  0  0
   -4.4592    1.7640   -0.9924 H   0  0  0  0  0  0  0  0  0  0  0  0
   -2.9960   -0.6821   -2.1060 H   0  0  0  0  0  0  0  0  0  0  0  0
   -4.4800   -0.7231   -1.0906 H   0  0  0  0  0  0  0  0  0  0  0  0
   -3.3407   -2.6785   -0.8159 H   0  0  0  0  0  0  0  0  0  0  0  0
   -2.2907   -4.6287    0.2205 H   0  0  0  0  0  0  0  0  0  0  0  0
   -0.6031   -4.3448    2.0152 H   0  0  0  0  0  0  0  0  0  0  0  0
    0.0284   -2.1104    2.7858 H   0  0  0  0  0  0  0  0  0  0  0  0
   -1.5337    0.9555    1.3003 H   0  0  0  0  0  0  0  0  0  0  0  0
   -0.6640    2.5855    3.2250 H   0  0  0  0  0  0  0  0  0  0  0  0
    1.5001    3.8144    3.3157 H   0  0  0  0  0  0  0  0  0  0  0  0
    2.3552    2.3660    2.7424 H   0  0  0  0  0  0  0  0  0  0  0  0
    1.5287    2.3464    4.2938 H   0  0  0  0  0  0  0  0  0  0  0  0
   -0.7958    1.8878   -1.2967 H   0  0  0  0  0  0  0  0  0  0  0  0
    2.7903   -0.6756   -3.5286 H   0  0  0  0  0  0  0  0  0  0  0  0
    2.3658   -1.8838   -2.2861 H   0  0  0  0  0  0  0  0  0  0  0  0
    4.6638   -1.6449   -1.7026 H   0  0  0  0  0  0  0  0  0  0  0  0
    4.7538   -0.0469   -2.4434 H   0  0  0  0  0  0  0  0  0  0  0  0
    3.8896   -0.7406    0.3643 H   0  0  0  0  0  0  0  0  0  0  0  0
    4.6788    0.7364   -0.2516 H   0  0  0  0  0  0  0  0  0  0  0  0
  1  2  1  0
  2  3  1  0
  3  4  1  0
  4  5  2  0
  5  6  1  0
  6  7  2  0
  7  8  1  0
  8  9  2  0
  9 10  1  0
 10 11  1  0
 11 12  2  0
 11 13  1  0
 13 14  1  0
 13 15  1  0
 15 16  1  0
 16 17  2  0
 17 18  1  0
 18 19  2  0
 19 20  1  0
 20 21  2  0
 20 22  1  0
 19 23  1  0
 23 24  1  0
 24 25  1  0
  9  4  1  0
 22 16  1  0
 25 18  1  0
  1 26  1  0
  1 27  1  0
  1 28  1  0
  2 29  1  0
  2 30  1  0
  5 31  1  0
  6 32  1  0
  7 33  1  0
  8 34  1  0
 10 35  1  0
 13 36  1  0
 14 37  1  0
 14 38  1  0
 14 39  1  0
 22 40  1  0
 23 41  1  0
 23 42  1  0
 24 43  1  0
 24 44  1  0
 25 45  1  0
 25 46  1  0
M  END
$$$$
