
     RDKit          3D

 51 55  0  0  0  0  0  0  0  0999 V2000
    4.4524    0.9986    1.8422 O   0  0  0  0  0  0  0  0  0  0  0  0
    3.8922    0.5373    0.8505 C   0  0  0  0  0  0  0  0  0  0  0  0
    2.4345    0.7141    0.7393 C   0  0  0  0  0  0  0  0  0  0  0  0
    1.5831   -0.2430    1.2938 C   0  0  0  0  0  0  0  0  0  0  0  0
    0.1991   -0.0715    1.1931 C   0  0  0  0  0  0  0  0  0  0  0  0
   -0.3429    1.0479    0.5399 C   0  0  0  0  0  0  0  0  0  0  0  0
   -1.7365    1.3043    0.4497 N   0  0  0  0  0  0  0  0  0  0  0  0
   -2.7127    0.5574    1.0419 C   0  0  0  0  0  0  0  0  0  0  0  0
   -3.8107   -0.1278    0.5273 C   0  0  0  0  0  0  0  0  0  0  0  0
   -4.1512   -0.2893   -0.8772 C   0  0  0  0  0  0  0  0  0  0  0  0
   -5.4953   -0.2287   -1.2687 C   0  0  0  0  0  0  0  0  0  0  0  0
   -5.8524   -0.3902   -2.6093 C   0  0  0  0  0  0  0  0  0  0  0  0
   -4.8689   -0.6217   -3.5702 C   0  0  0  0  0  0  0  0  0  0  0  0
   -3.5302   -0.6951   -3.1912 C   0  0  0  0  0  0  0  0  0  0  0  0
   -3.1722   -0.5346   -1.8499 C   0  0  0  0  0  0  0  0  0  0  0  0
   -4.5912   -0.6618    1.5350 N   0  0  0  0  0  0  0  0  0  0  0  0
   -3.9814   -0.3013    2.6403 C   0  0  0  0  0  0  0  0  0  0  0  0
   -4.3676   -0.5708    3.9981 C   0  0  0  0  0  0  0  0  0  0  0  0
   -3.6951   -0.0966    5.0145 N   0  0  0  0  0  0  0  0  0  0  0  0
   -2.5895    0.6913    4.7350 C   0  0  0  0  0  0  0  0  0  0  0  0
   -2.1598    0.9777    3.4925 C   0  0  0  0  0  0  0  0  0  0  0  0
   -2.8610    0.4574    2.4147 N   0  0  0  0  0  0  0  0  0  0  0  0
    0.5382    2.0071    0.0085 C   0  0  0  0  0  0  0  0  0  0  0  0
    1.9227    1.8448    0.1034 C   0  0  0  0  0  0  0  0  0  0  0  0
    4.5394   -0.1365   -0.1766 N   0  0  0  0  0  0  0  0  0  0  0  0
    3.8948   -0.6607   -1.3859 C   0  0  0  0  0  0  0  0  0  0  0  0
    4.7617   -1.7342   -2.0548 C   0  0  0  0  0  0  0  0  0  0  0  0
    6.0762   -1.2772   -2.4049 O   0  0  0  0  0  0  0  0  0  0  0  0
    6.5946   -0.2594   -1.5323 C   0  0  0  0  0  0  0  0  0  0  0  0
    5.9940   -0.2881   -0.1235 C   0  0  0  0  0  0  0  0  0  0  0  0
    1.9911   -1.1089    1.8095 H   0  0  0  0  0  0  0  0  0  0  0  0
   -0.4441   -0.8310    1.6279 H   0  0  0  0  0  0  0  0  0  0  0  0
   -1.9510    1.6598   -0.4843 H   0  0  0  0  0  0  0  0  0  0  0  0
   -6.2708   -0.0571   -0.5232 H   0  0  0  0  0  0  0  0  0  0  0  0
   -6.8986   -0.3418   -2.9000 H   0  0  0  0  0  0  0  0  0  0  0  0
   -5.1488   -0.7550   -4.6116 H   0  0  0  0  0  0  0  0  0  0  0  0
   -2.7641   -0.8896   -3.9362 H   0  0  0  0  0  0  0  0  0  0  0  0
   -2.1259   -0.6279   -1.5713 H   0  0  0  0  0  0  0  0  0  0  0  0
   -5.2582   -1.1937    4.1811 H   0  0  0  0  0  0  0  0  0  0  0  0
   -2.0681    1.0924    5.6002 H   0  0  0  0  0  0  0  0  0  0  0  0
   -1.3009    1.6032    3.2890 H   0  0  0  0  0  0  0  0  0  0  0  0
    0.1458    2.9045   -0.4666 H   0  0  0  0  0  0  0  0  0  0  0  0
    2.5927    2.6032   -0.2960 H   0  0  0  0  0  0  0  0  0  0  0  0
    2.9069   -1.0657   -1.1476 H   0  0  0  0  0  0  0  0  0  0  0  0
    3.7641    0.1897   -2.0688 H   0  0  0  0  0  0  0  0  0  0  0  0
    4.8757   -2.6009   -1.3913 H   0  0  0  0  0  0  0  0  0  0  0  0
    4.2812   -2.0867   -2.9729 H   0  0  0  0  0  0  0  0  0  0  0  0
    7.6811   -0.3871   -1.4862 H   0  0  0  0  0  0  0  0  0  0  0  0
    6.3981    0.7103   -2.0073 H   0  0  0  0  0  0  0  0  0  0  0  0
    6.1881   -1.2585    0.3486 H   0  0  0  0  0  0  0  0  0  0  0  0
    6.4414    0.4913    0.5010 H   0  0  0  0  0  0  0  0  0  0  0  0
  1  2  2  0
  2  3  1  0
  3  4  2  0
  4  5  1  0
  5  6  2  0
  6  7  1  0
  7  8  1  0
  8  9  2  0
  9 10  1  0
 10 11  2  0
 11 12  1  0
 12 13  2  0
 13 14  1  0
 14 15  2  0
  9 16  1  0
 16 17  2  0
 17 18  1  0
 18 19  2  0
 19 20  1  0
 20 21  2  0
 21 22  1  0
  6 23  1  0
 23 24  2  0
  2 25  1  0
 25 26  1  0
 26 27  1  0
 27 28  1  0
 28 29  1  0
 29 30  1  0
 24  3  1  0
 30 25  1  0
 22  8  1  0
 15 10  1  0
 22 17  1  0
  4 31  1  0
  5 32  1  0
  7 33  1  0
 11 34  1  0
 12 35  1  0
 13 36  1  0
 14 37  1  0
 15 38  1  0
 18 39  1  0
 20 40  1  0
 21 41  1  0
 23 42  1  0
 24 43  1  0
 26 44  1  0
 26 45  1  0
 27 46  1  0
 27 47  1  0
 29 48  1  0
 29 49  1  0
 30 50  1  0
 30 51  1  0
M  END
$$$$
