
     RDKit          3D

 34 36  0  0  0  0  0  0  0  0999 V2000
    4.4159    2.8873    0.9871 C   0  0  0  0  0  0  0  0  0  0  0  0
    3.3764    1.9922    0.6091 O   0  0  0  0  0  0  0  0  0  0  0  0
    3.7505    0.8611   -0.0834 C   0  0  0  0  0  0  0  0  0  0  0  0
    5.0644    0.5374   -0.4362 C   0  0  0  0  0  0  0  0  0  0  0  0
    5.3305   -0.6384   -1.1404 C   0  0  0  0  0  0  0  0  0  0  0  0
    4.2891   -1.4922   -1.4937 C   0  0  0  0  0  0  0  0  0  0  0  0
    2.9737   -1.1777   -1.1460 C   0  0  0  0  0  0  0  0  0  0  0  0
    2.6934   -0.0054   -0.4418 C   0  0  0  0  0  0  0  0  0  0  0  0
    1.3925    0.3871   -0.0517 N   0  0  0  0  0  0  0  0  0  0  0  0
    0.1891   -0.2670   -0.2668 C   0  0  0  0  0  0  0  0  0  0  0  0
    0.0741   -1.3341   -0.8544 O   0  0  0  0  0  0  0  0  0  0  0  0
   -0.8520    0.4594    0.2764 N   0  0  0  0  0  0  0  0  0  0  0  0
   -2.1554    0.0511    0.2142 C   0  0  0  0  0  0  0  0  0  0  0  0
   -2.6715   -1.0217   -0.3205 N   0  0  0  0  0  0  0  0  0  0  0  0
   -4.0433   -1.0153   -0.1415 C   0  0  0  0  0  0  0  0  0  0  0  0
   -4.9402   -2.0086   -0.5832 C   0  0  0  0  0  0  0  0  0  0  0  0
   -6.3093   -1.8718   -0.3315 C   0  0  0  0  0  0  0  0  0  0  0  0
   -6.7926   -0.7606    0.3528 C   0  0  0  0  0  0  0  0  0  0  0  0
   -5.9243    0.2396    0.8021 C   0  0  0  0  0  0  0  0  0  0  0  0
   -4.5514    0.0917    0.5436 C   0  0  0  0  0  0  0  0  0  0  0  0
   -3.2432    1.1339    0.9601 S   0  0  0  0  0  0  0  0  0  0  0  0
    3.9565    3.7236    1.5229 H   0  0  0  0  0  0  0  0  0  0  0  0
    4.9246    3.2957    0.1078 H   0  0  0  0  0  0  0  0  0  0  0  0
    5.1239    2.4050    1.6690 H   0  0  0  0  0  0  0  0  0  0  0  0
    5.9037    1.1746   -0.1805 H   0  0  0  0  0  0  0  0  0  0  0  0
    6.3523   -0.8895   -1.4144 H   0  0  0  0  0  0  0  0  0  0  0  0
    4.4954   -2.4081   -2.0422 H   0  0  0  0  0  0  0  0  0  0  0  0
    2.1902   -1.8690   -1.4399 H   0  0  0  0  0  0  0  0  0  0  0  0
    1.3796    1.2640    0.4505 H   0  0  0  0  0  0  0  0  0  0  0  0
   -0.6760    1.3317    0.7415 H   0  0  0  0  0  0  0  0  0  0  0  0
   -4.5559   -2.8728   -1.1165 H   0  0  0  0  0  0  0  0  0  0  0  0
   -6.9968   -2.6413   -0.6747 H   0  0  0  0  0  0  0  0  0  0  0  0
   -7.8603   -0.6677    0.5414 H   0  0  0  0  0  0  0  0  0  0  0  0
   -6.3035    1.1056    1.3357 H   0  0  0  0  0  0  0  0  0  0  0  0
  1  2  1  0
  2  3  1  0
  3  4  2  0
  4  5  1  0
  5  6  2  0
  6  7  1  0
  7  8  2  0
  8  9  1  0
  9 10  1  0
 10 11  2  0
 10 12  1  0
 12 13  1  0
 13 14  2  0
 14 15  1  0
 15 16  2  0
 16 17  1  0
 17 18  2  0
 18 19  1  0
 19 20  2  0
 20 21  1  0
  8  3  1  0
 21 13  1  0
 20 15  1  0
  1 22  1  0
  1 23  1  0
  1 24  1  0
  4 25  1  0
  5 26  1  0
  6 27  1  0
  7 28  1  0
  9 29  1  0
 12 30  1  0
 16 31  1  0
 17 32  1  0
 18 33  1  0
 19 34  1  0
M  END
$$$$
