
     RDKit          3D

 40 42  0  0  0  0  0  0  0  0999 V2000
   -5.8999    1.3066    0.9865 C   0  0  0  0  0  0  0  0  0  0  0  0
   -4.8139    0.2923    0.7806 C   0  0  0  0  0  0  0  0  0  0  0  0
   -4.8134   -0.9061    1.5076 C   0  0  0  0  0  0  0  0  0  0  0  0
   -3.8336   -1.8764    1.2822 C   0  0  0  0  0  0  0  0  0  0  0  0
   -2.8419   -1.6583    0.3269 C   0  0  0  0  0  0  0  0  0  0  0  0
   -2.8295   -0.4604   -0.3943 C   0  0  0  0  0  0  0  0  0  0  0  0
   -1.8031   -0.2118   -1.4312 C   0  0  0  0  0  0  0  0  0  0  0  0
   -2.1849    0.0603   -2.5669 O   0  0  0  0  0  0  0  0  0  0  0  0
   -0.4583   -0.2956   -1.0821 N   0  0  0  0  0  0  0  0  0  0  0  0
    0.5334   -0.1500   -2.1484 C   0  0  0  0  0  0  0  0  0  0  0  0
    1.9170   -0.6627   -1.7390 C   0  0  0  0  0  0  0  0  0  0  0  0
    2.4114   -0.0264   -0.5142 N   0  0  0  0  0  0  0  0  0  0  0  0
    3.7963    0.0192   -0.3067 C   0  0  0  0  0  0  0  0  0  0  0  0
    4.5560   -0.5958   -1.0613 O   0  0  0  0  0  0  0  0  0  0  0  0
    4.3499    0.8024    0.7998 C   0  0  0  0  0  0  0  0  0  0  0  0
    3.7216    1.8270    1.3956 N   0  0  0  0  0  0  0  0  0  0  0  0
    4.6176    2.3050    2.3422 O   0  0  0  0  0  0  0  0  0  0  0  0
    5.8060    1.5914    2.3183 N   0  0  0  0  0  0  0  0  0  0  0  0
    5.6445    0.6751    1.3676 C   0  0  0  0  0  0  0  0  0  0  0  0
    6.5809   -0.2300    1.0116 N   0  0  0  0  0  0  0  0  0  0  0  0
    1.3948    0.4198    0.4490 C   0  0  0  0  0  0  0  0  0  0  0  0
    0.0501   -0.3117    0.2952 C   0  0  0  0  0  0  0  0  0  0  0  0
   -3.8246    0.5012   -0.1884 C   0  0  0  0  0  0  0  0  0  0  0  0
   -6.2571    1.2913    2.0216 H   0  0  0  0  0  0  0  0  0  0  0  0
   -5.5324    2.3182    0.7849 H   0  0  0  0  0  0  0  0  0  0  0  0
   -6.7406    1.0954    0.3185 H   0  0  0  0  0  0  0  0  0  0  0  0
   -5.5883   -1.0968    2.2477 H   0  0  0  0  0  0  0  0  0  0  0  0
   -3.8548   -2.8078    1.8428 H   0  0  0  0  0  0  0  0  0  0  0  0
   -2.0988   -2.4267    0.1335 H   0  0  0  0  0  0  0  0  0  0  0  0
    0.1849   -0.6767   -3.0437 H   0  0  0  0  0  0  0  0  0  0  0  0
    0.5857    0.9187   -2.3908 H   0  0  0  0  0  0  0  0  0  0  0  0
    1.8762   -1.7407   -1.5408 H   0  0  0  0  0  0  0  0  0  0  0  0
    2.6287   -0.5011   -2.5559 H   0  0  0  0  0  0  0  0  0  0  0  0
    6.5012   -0.6805    0.0990 H   0  0  0  0  0  0  0  0  0  0  0  0
    7.5407   -0.0422    1.2829 H   0  0  0  0  0  0  0  0  0  0  0  0
    1.2468    1.4924    0.2783 H   0  0  0  0  0  0  0  0  0  0  0  0
    1.7572    0.2692    1.4701 H   0  0  0  0  0  0  0  0  0  0  0  0
    0.1794   -1.3662    0.5660 H   0  0  0  0  0  0  0  0  0  0  0  0
   -0.6812    0.1298    0.9787 H   0  0  0  0  0  0  0  0  0  0  0  0
   -3.8242    1.4087   -0.7893 H   0  0  0  0  0  0  0  0  0  0  0  0
  1  2  1  0
  2  3  2  0
  3  4  1  0
  4  5  2  0
  5  6  1  0
  6  7  1  0
  7  8  2  0
  7  9  1  0
  9 10  1  0
 10 11  1  0
 11 12  1  0
 12 13  1  0
 13 14  2  0
 13 15  1  0
 15 16  2  0
 16 17  1  0
 17 18  1  0
 18 19  2  0
 19 20  1  0
 12 21  1  0
 21 22  1  0
  6 23  2  0
 23  2  1  0
 22  9  1  0
 19 15  1  0
  1 24  1  0
  1 25  1  0
  1 26  1  0
  3 27  1  0
  4 28  1  0
  5 29  1  0
 10 30  1  0
 10 31  1  0
 11 32  1  0
 11 33  1  0
 20 34  1  0
 20 35  1  0
 21 36  1  0
 21 37  1  0
 22 38  1  0
 22 39  1  0
 23 40  1  0
M  END
$$$$
