
     RDKit          3D

 59 60  0  0  0  0  0  0  0  0999 V2000
   -7.6757   -0.2351    2.4940 C   0  0  0  0  0  0  0  0  0  0  0  0
   -6.8455   -0.7588    1.3590 C   0  0  0  0  0  0  0  0  0  0  0  0
   -6.5863   -2.1280    1.2405 C   0  0  0  0  0  0  0  0  0  0  0  0
   -5.8435   -2.6137    0.1653 C   0  0  0  0  0  0  0  0  0  0  0  0
   -5.3580   -1.7367   -0.8045 C   0  0  0  0  0  0  0  0  0  0  0  0
   -5.6108   -0.3610   -0.7098 C   0  0  0  0  0  0  0  0  0  0  0  0
   -5.0966    0.5851   -1.7653 C   0  0  0  0  0  0  0  0  0  0  0  0
   -3.6892    1.5372   -1.1674 S   0  0  0  0  0  6  0  0  0  0  0  0
   -3.0602    2.1648   -2.3116 O   0  0  0  0  0  0  0  0  0  0  0  0
   -4.1241    2.3485   -0.0477 O   0  0  0  0  0  0  0  0  0  0  0  0
   -2.6269    0.3502   -0.5924 N   0  0  0  0  0  0  0  0  0  0  0  0
   -1.8868   -0.4747   -1.5708 C   0  0  0  0  0  0  0  0  0  0  0  0
   -0.5361    0.1453   -1.9081 C   0  0  0  0  0  0  0  0  0  0  0  0
    0.2792    0.4620   -0.6458 C   0  0  0  0  0  0  0  0  0  0  0  0
    1.5980    1.1408   -1.0056 C   0  0  0  0  0  0  0  0  0  0  0  0
    1.9205    1.4186   -2.1557 O   0  0  0  0  0  0  0  0  0  0  0  0
    2.4200    1.3768    0.0778 N   0  0  0  0  0  0  0  0  0  0  0  0
    3.7404    1.9532   -0.0804 C   0  0  0  0  0  0  0  0  0  0  0  0
    4.7934    0.9244   -0.4822 C   0  0  0  0  0  0  0  0  0  0  0  0
    5.0480   -0.1043    0.6167 C   0  0  0  0  0  0  0  0  0  0  0  0
    6.0222   -1.0583    0.1957 O   0  0  0  0  0  0  0  0  0  0  0  0
    7.3767   -0.6719    0.4435 C   0  0  0  0  0  0  0  0  0  0  0  0
    7.7735   -1.0696    1.8620 C   0  0  0  0  0  0  0  0  0  0  0  0
    8.2470   -1.3984   -0.5745 C   0  0  0  0  0  0  0  0  0  0  0  0
   -0.5534    1.3218    0.3148 C   0  0  0  0  0  0  0  0  0  0  0  0
   -1.8714    0.6342    0.6420 C   0  0  0  0  0  0  0  0  0  0  0  0
   -6.3676    0.1143    0.3728 C   0  0  0  0  0  0  0  0  0  0  0  0
   -8.7309   -0.2105    2.2042 H   0  0  0  0  0  0  0  0  0  0  0  0
   -7.3602    0.7756    2.7739 H   0  0  0  0  0  0  0  0  0  0  0  0
   -7.5674   -0.8663    3.3824 H   0  0  0  0  0  0  0  0  0  0  0  0
   -6.9634   -2.8247    1.9853 H   0  0  0  0  0  0  0  0  0  0  0  0
   -5.6456   -3.6795    0.0825 H   0  0  0  0  0  0  0  0  0  0  0  0
   -4.7834   -2.1383   -1.6359 H   0  0  0  0  0  0  0  0  0  0  0  0
   -5.8743    1.2998   -2.0556 H   0  0  0  0  0  0  0  0  0  0  0  0
   -4.7804    0.0525   -2.6676 H   0  0  0  0  0  0  0  0  0  0  0  0
   -2.4750   -0.6187   -2.4830 H   0  0  0  0  0  0  0  0  0  0  0  0
   -1.7460   -1.4731   -1.1388 H   0  0  0  0  0  0  0  0  0  0  0  0
    0.0258   -0.5412   -2.5537 H   0  0  0  0  0  0  0  0  0  0  0  0
   -0.6843    1.0620   -2.4924 H   0  0  0  0  0  0  0  0  0  0  0  0
    0.5339   -0.4869   -0.1531 H   0  0  0  0  0  0  0  0  0  0  0  0
    2.1561    1.0189    0.9858 H   0  0  0  0  0  0  0  0  0  0  0  0
    3.6877    2.7374   -0.8441 H   0  0  0  0  0  0  0  0  0  0  0  0
    4.0053    2.4287    0.8698 H   0  0  0  0  0  0  0  0  0  0  0  0
    5.7270    1.4468   -0.7193 H   0  0  0  0  0  0  0  0  0  0  0  0
    4.4999    0.4053   -1.4026 H   0  0  0  0  0  0  0  0  0  0  0  0
    5.3445    0.3768    1.5552 H   0  0  0  0  0  0  0  0  0  0  0  0
    4.1290   -0.6658    0.8152 H   0  0  0  0  0  0  0  0  0  0  0  0
    7.5038    0.4083    0.3082 H   0  0  0  0  0  0  0  0  0  0  0  0
    7.1645   -0.5429    2.6033 H   0  0  0  0  0  0  0  0  0  0  0  0
    7.6112   -2.1407    2.0278 H   0  0  0  0  0  0  0  0  0  0  0  0
    8.8250   -0.8392    2.0584 H   0  0  0  0  0  0  0  0  0  0  0  0
    9.3057   -1.1627   -0.4328 H   0  0  0  0  0  0  0  0  0  0  0  0
    8.1153   -2.4839   -0.5038 H   0  0  0  0  0  0  0  0  0  0  0  0
    7.9590   -1.1136   -1.5925 H   0  0  0  0  0  0  0  0  0  0  0  0
   -0.0083    1.5030    1.2481 H   0  0  0  0  0  0  0  0  0  0  0  0
   -0.7410    2.3061   -0.1336 H   0  0  0  0  0  0  0  0  0  0  0  0
   -2.4559    1.2368    1.3431 H   0  0  0  0  0  0  0  0  0  0  0  0
   -1.6844   -0.3169    1.1566 H   0  0  0  0  0  0  0  0  0  0  0  0
   -6.5802    1.1802    0.4574 H   0  0  0  0  0  0  0  0  0  0  0  0
  1  2  1  0
  2  3  2  0
  3  4  1  0
  4  5  2  0
  5  6  1  0
  6  7  1  0
  7  8  1  0
  8  9  2  0
  8 10  2  0
  8 11  1  0
 11 12  1  0
 12 13  1  0
 13 14  1  0
 14 15  1  0
 15 16  2  0
 15 17  1  0
 17 18  1  0
 18 19  1  0
 19 20  1  0
 20 21  1  0
 21 22  1  0
 22 23  1  0
 22 24  1  0
 14 25  1  0
 25 26  1  0
  6 27  2  0
 27  2  1  0
 26 11  1  0
  1 28  1  0
  1 29  1  0
  1 30  1  0
  3 31  1  0
  4 32  1  0
  5 33  1  0
  7 34  1  0
  7 35  1  0
 12 36  1  0
 12 37  1  0
 13 38  1  0
 13 39  1  0
 14 40  1  0
 17 41  1  0
 18 42  1  0
 18 43  1  0
 19 44  1  0
 19 45  1  0
 20 46  1  0
 20 47  1  0
 22 48  1  0
 23 49  1  0
 23 50  1  0
 23 51  1  0
 24 52  1  0
 24 53  1  0
 24 54  1  0
 25 55  1  0
 25 56  1  0
 26 57  1  0
 26 58  1  0
 27 59  1  0
M  END
$$$$
