
     RDKit          3D

 49 50  0  0  0  0  0  0  0  0999 V2000
   -5.9379   -1.1574   -1.0021 C   0  0  0  0  0  0  0  0  0  0  0  0
   -5.2424    0.1579   -0.6051 C   0  0  0  0  0  0  0  0  0  0  0  0
   -6.0418    0.8087    0.5339 C   0  0  0  0  0  0  0  0  0  0  0  0
   -5.2248    1.0799   -1.8347 C   0  0  0  0  0  0  0  0  0  0  0  0
   -3.8758   -0.1647   -0.1654 N   0  0  0  0  0  0  0  0  0  0  0  0
   -2.9376    0.7602    0.2445 C   0  0  0  0  0  0  0  0  0  0  0  0
   -3.1218    1.9710    0.2520 O   0  0  0  0  0  0  0  0  0  0  0  0
   -1.6259    0.1248    0.6919 C   0  0  0  0  0  0  0  0  0  0  0  0
   -0.6980    1.1643    1.3279 C   0  0  0  0  0  0  0  0  0  0  0  0
    0.6063    0.5285    1.8006 C   0  0  0  0  0  0  0  0  0  0  0  0
    1.1046   -0.4761    0.8327 N   0  0  0  0  0  0  0  0  0  0  0  0
    2.7016   -1.0160    1.0259 S   0  0  0  0  0  6  0  0  0  0  0  0
    2.8574   -2.1779    0.1762 O   0  0  0  0  0  0  0  0  0  0  0  0
    2.9460   -1.1026    2.4501 O   0  0  0  0  0  0  0  0  0  0  0  0
    3.6540    0.3570    0.3397 C   0  0  0  0  0  0  0  0  0  0  0  0
    5.1106   -0.0171    0.3594 C   0  0  0  0  0  0  0  0  0  0  0  0
    5.8584    0.2459    1.5130 C   0  0  0  0  0  0  0  0  0  0  0  0
    5.2808    0.8834    2.5415 F   0  0  0  0  0  0  0  0  0  0  0  0
    7.1996   -0.1101    1.6199 C   0  0  0  0  0  0  0  0  0  0  0  0
    7.8290   -0.7452    0.5542 C   0  0  0  0  0  0  0  0  0  0  0  0
    7.1087   -1.0148   -0.6098 C   0  0  0  0  0  0  0  0  0  0  0  0
    5.7595   -0.6535   -0.7083 C   0  0  0  0  0  0  0  0  0  0  0  0
    4.9506   -1.0033   -2.1943 Cl  0  0  0  0  0  0  0  0  0  0  0  0
    0.5667   -0.3617   -0.5335 C   0  0  0  0  0  0  0  0  0  0  0  0
   -0.9410   -0.5941   -0.4856 C   0  0  0  0  0  0  0  0  0  0  0  0
   -5.9645   -1.8619   -0.1617 H   0  0  0  0  0  0  0  0  0  0  0  0
   -6.9697   -0.9838   -1.3276 H   0  0  0  0  0  0  0  0  0  0  0  0
   -5.4053   -1.6506   -1.8236 H   0  0  0  0  0  0  0  0  0  0  0  0
   -6.0381    0.1748    1.4281 H   0  0  0  0  0  0  0  0  0  0  0  0
   -7.0854    0.9731    0.2406 H   0  0  0  0  0  0  0  0  0  0  0  0
   -5.6267    1.7804    0.8219 H   0  0  0  0  0  0  0  0  0  0  0  0
   -4.6214    0.6470   -2.6406 H   0  0  0  0  0  0  0  0  0  0  0  0
   -6.2373    1.2415   -2.2210 H   0  0  0  0  0  0  0  0  0  0  0  0
   -4.8052    2.0642   -1.6060 H   0  0  0  0  0  0  0  0  0  0  0  0
   -3.6531   -1.1439   -0.0309 H   0  0  0  0  0  0  0  0  0  0  0  0
   -1.8776   -0.6169    1.4632 H   0  0  0  0  0  0  0  0  0  0  0  0
   -1.1916    1.6586    2.1739 H   0  0  0  0  0  0  0  0  0  0  0  0
   -0.4756    1.9590    0.6038 H   0  0  0  0  0  0  0  0  0  0  0  0
    1.3484    1.3156    1.9671 H   0  0  0  0  0  0  0  0  0  0  0  0
    0.4293    0.0190    2.7554 H   0  0  0  0  0  0  0  0  0  0  0  0
    3.2953    0.5639   -0.6704 H   0  0  0  0  0  0  0  0  0  0  0  0
    3.4680    1.2425    0.9539 H   0  0  0  0  0  0  0  0  0  0  0  0
    7.7414    0.1096    2.5344 H   0  0  0  0  0  0  0  0  0  0  0  0
    8.8748   -1.0317    0.6282 H   0  0  0  0  0  0  0  0  0  0  0  0
    7.6045   -1.5105   -1.4409 H   0  0  0  0  0  0  0  0  0  0  0  0
    0.7945    0.6301   -0.9414 H   0  0  0  0  0  0  0  0  0  0  0  0
    1.0138   -1.1015   -1.2051 H   0  0  0  0  0  0  0  0  0  0  0  0
   -1.1344   -1.6708   -0.3889 H   0  0  0  0  0  0  0  0  0  0  0  0
   -1.3708   -0.2950   -1.4494 H   0  0  0  0  0  0  0  0  0  0  0  0
  1  2  1  0
  2  3  1  0
  2  4  1  0
  2  5  1  0
  5  6  1  0
  6  7  2  0
  6  8  1  0
  8  9  1  0
  9 10  1  0
 10 11  1  0
 11 12  1  0
 12 13  2  0
 12 14  2  0
 12 15  1  0
 15 16  1  0
 16 17  2  0
 17 18  1  0
 17 19  1  0
 19 20  2  0
 20 21  1  0
 21 22  2  0
 22 23  1  0
 11 24  1  0
 24 25  1  0
 25  8  1  0
 22 16  1  0
  1 26  1  0
  1 27  1  0
  1 28  1  0
  3 29  1  0
  3 30  1  0
  3 31  1  0
  4 32  1  0
  4 33  1  0
  4 34  1  0
  5 35  1  0
  8 36  1  0
  9 37  1  0
  9 38  1  0
 10 39  1  0
 10 40  1  0
 15 41  1  0
 15 42  1  0
 19 43  1  0
 20 44  1  0
 21 45  1  0
 24 46  1  0
 24 47  1  0
 25 48  1  0
 25 49  1  0
M  END
$$$$
