
     RDKit          3D

 41 43  0  0  0  0  0  0  0  0999 V2000
    0.2673    0.8961    4.0222 C   0  0  0  0  0  0  0  0  0  0  0  0
    1.2873    0.3487    3.0576 C   0  0  0  0  0  0  0  0  0  0  0  0
    2.4750    0.2528    3.3700 O   0  0  0  0  0  0  0  0  0  0  0  0
    0.7881   -0.0592    1.8313 N   0  0  0  0  0  0  0  0  0  0  0  0
   -0.5572   -0.1470    1.5775 N   0  0  0  0  0  0  0  0  0  0  0  0
   -0.6806   -0.7901    0.4577 C   0  0  0  0  0  0  0  0  0  0  0  0
   -1.9654   -1.0652   -0.2038 C   0  0  0  0  0  0  0  0  0  0  0  0
   -2.8284   -1.9303    0.3425 C   0  0  0  0  0  0  0  0  0  0  0  0
   -2.5622   -2.6291    1.4888 O   0  0  0  0  0  0  0  0  0  0  0  0
   -4.0266   -2.1913   -0.2390 N   0  0  0  0  0  0  0  0  0  0  0  0
   -4.4610   -1.6079   -1.3980 C   0  0  0  0  0  0  0  0  0  0  0  0
   -5.5647   -1.9120   -1.8441 O   0  0  0  0  0  0  0  0  0  0  0  0
   -3.5880   -0.7089   -1.9867 N   0  0  0  0  0  0  0  0  0  0  0  0
   -3.9716   -0.0582   -3.2260 C   0  0  0  0  0  0  0  0  0  0  0  0
   -2.3301   -0.4152   -1.4795 C   0  0  0  0  0  0  0  0  0  0  0  0
   -1.5287    0.3336   -2.0341 O   0  0  0  0  0  0  0  0  0  0  0  0
    0.6000   -1.2890   -0.1553 C   0  0  0  0  0  0  0  0  0  0  0  0
    1.6165   -0.6235    0.7660 C   0  0  0  0  0  0  0  0  0  0  0  0
    2.4720    0.4339    0.0802 C   0  0  0  0  0  0  0  0  0  0  0  0
    1.9266    1.4046   -0.7812 C   0  0  0  0  0  0  0  0  0  0  0  0
    2.7414    2.3553   -1.3953 C   0  0  0  0  0  0  0  0  0  0  0  0
    4.1048    2.3608   -1.1408 C   0  0  0  0  0  0  0  0  0  0  0  0
    4.8650    3.3157   -1.7497 O   0  0  0  0  0  0  0  0  0  0  0  0
    4.6680    1.4279   -0.2756 C   0  0  0  0  0  0  0  0  0  0  0  0
    3.8517    0.4704    0.3335 C   0  0  0  0  0  0  0  0  0  0  0  0
    0.7828    1.3673    4.8627 H   0  0  0  0  0  0  0  0  0  0  0  0
   -0.3493    1.6525    3.5382 H   0  0  0  0  0  0  0  0  0  0  0  0
   -0.3563    0.0826    4.3970 H   0  0  0  0  0  0  0  0  0  0  0  0
   -3.4085   -2.8850    1.8920 H   0  0  0  0  0  0  0  0  0  0  0  0
   -4.6692   -2.8680    0.1479 H   0  0  0  0  0  0  0  0  0  0  0  0
   -4.0112    1.0178   -3.0583 H   0  0  0  0  0  0  0  0  0  0  0  0
   -3.2132   -0.2584   -3.9856 H   0  0  0  0  0  0  0  0  0  0  0  0
   -4.9406   -0.3977   -3.5954 H   0  0  0  0  0  0  0  0  0  0  0  0
    0.6334   -2.3780   -0.0628 H   0  0  0  0  0  0  0  0  0  0  0  0
    0.6831   -1.0209   -1.2085 H   0  0  0  0  0  0  0  0  0  0  0  0
    2.2667   -1.3863    1.2080 H   0  0  0  0  0  0  0  0  0  0  0  0
    0.8566    1.4350   -0.9793 H   0  0  0  0  0  0  0  0  0  0  0  0
    2.3088    3.0942   -2.0624 H   0  0  0  0  0  0  0  0  0  0  0  0
    5.7933    3.1685   -1.4973 H   0  0  0  0  0  0  0  0  0  0  0  0
    5.7276    1.4387   -0.0493 H   0  0  0  0  0  0  0  0  0  0  0  0
    4.2968   -0.2349    1.0348 H   0  0  0  0  0  0  0  0  0  0  0  0
  1  2  1  0
  2  3  2  0
  2  4  1  0
  4  5  1  0
  5  6  2  0
  6  7  1  0
  7  8  2  0
  8  9  1  0
  8 10  1  0
 10 11  1  0
 11 12  2  0
 11 13  1  0
 13 14  1  0
 13 15  1  0
 15 16  2  0
  6 17  1  0
 17 18  1  0
 18 19  1  0
 19 20  2  0
 20 21  1  0
 21 22  2  0
 22 23  1  0
 22 24  1  0
 24 25  2  0
 18  4  1  0
 25 19  1  0
 15  7  1  0
  1 26  1  0
  1 27  1  0
  1 28  1  0
  9 29  1  0
 10 30  1  0
 14 31  1  0
 14 32  1  0
 14 33  1  0
 17 34  1  0
 17 35  1  0
 18 36  1  0
 20 37  1  0
 21 38  1  0
 23 39  1  0
 24 40  1  0
 25 41  1  0
M  END
$$$$
