
     RDKit          3D

 28 30  0  0  0  0  0  0  0  0999 V2000
   -4.4895    1.3183    0.8466 N   0  0  0  0  0  0  0  0  0  0  0  0
   -3.4676    1.3467   -0.0570 C   0  0  0  0  0  0  0  0  0  0  0  0
   -3.2670    2.3212   -0.7682 O   0  0  0  0  0  0  0  0  0  0  0  0
   -2.6468    0.1243   -0.1262 C   0  0  0  0  0  0  0  0  0  0  0  0
   -3.2383   -1.0415   -0.4253 C   0  0  0  0  0  0  0  0  0  0  0  0
   -2.5899   -2.2400   -0.5768 N   0  0  0  0  0  0  0  0  0  0  0  0
   -1.3041   -2.1808   -0.4929 C   0  0  0  0  0  0  0  0  0  0  0  0
   -0.2625   -3.5775   -0.6912 S   0  0  0  0  0  0  0  0  0  0  0  0
    1.1417   -2.5925   -0.4260 C   0  0  0  0  0  0  0  0  0  0  0  0
    0.8205   -1.3086   -0.1967 C   0  0  0  0  0  0  0  0  0  0  0  0
    1.8530   -0.2960    0.0300 C   0  0  0  0  0  0  0  0  0  0  0  0
    2.1503    0.6480   -0.9619 C   0  0  0  0  0  0  0  0  0  0  0  0
    3.1606    1.5903   -0.7587 C   0  0  0  0  0  0  0  0  0  0  0  0
    3.8847    1.5921    0.4323 C   0  0  0  0  0  0  0  0  0  0  0  0
    3.5997    0.6539    1.4229 C   0  0  0  0  0  0  0  0  0  0  0  0
    2.5891   -0.2888    1.2229 C   0  0  0  0  0  0  0  0  0  0  0  0
   -0.5455   -1.0549   -0.2343 N   0  0  0  0  0  0  0  0  0  0  0  0
   -1.1723    0.1485    0.0449 C   0  0  0  0  0  0  0  0  0  0  0  0
   -0.6219    1.1620    0.4650 O   0  0  0  0  0  0  0  0  0  0  0  0
   -5.0067    2.1798    0.9720 H   0  0  0  0  0  0  0  0  0  0  0  0
   -4.5882    0.5986    1.5492 H   0  0  0  0  0  0  0  0  0  0  0  0
   -4.3133   -1.0843   -0.5934 H   0  0  0  0  0  0  0  0  0  0  0  0
    2.1456   -2.9964   -0.4569 H   0  0  0  0  0  0  0  0  0  0  0  0
    1.5908    0.6661   -1.8942 H   0  0  0  0  0  0  0  0  0  0  0  0
    3.3759    2.3284   -1.5271 H   0  0  0  0  0  0  0  0  0  0  0  0
    4.6659    2.3311    0.5914 H   0  0  0  0  0  0  0  0  0  0  0  0
    4.1602    0.6610    2.3542 H   0  0  0  0  0  0  0  0  0  0  0  0
    2.3756   -1.0089    2.0093 H   0  0  0  0  0  0  0  0  0  0  0  0
  1  2  1  0
  2  3  2  0
  2  4  1  0
  4  5  2  0
  5  6  1  0
  6  7  2  0
  7  8  1  0
  8  9  1  0
  9 10  2  0
 10 11  1  0
 11 12  2  0
 12 13  1  0
 13 14  2  0
 14 15  1  0
 15 16  2  0
 10 17  1  0
 17 18  1  0
 18 19  2  0
 18  4  1  0
 17  7  1  0
 16 11  1  0
  1 20  1  0
  1 21  1  0
  5 22  1  0
  9 23  1  0
 12 24  1  0
 13 25  1  0
 14 26  1  0
 15 27  1  0
 16 28  1  0
M  END
$$$$
