
     RDKit          3D

 49 51  0  0  0  0  0  0  0  0999 V2000
    0.0516   -4.6148    0.4988 C   0  0  0  0  0  0  0  0  0  0  0  0
   -0.4708   -3.3840   -0.0116 O   0  0  0  0  0  0  0  0  0  0  0  0
    0.4825   -2.4059   -0.0264 C   0  0  0  0  0  0  0  0  0  0  0  0
    1.4554   -2.4404   -1.0300 C   0  0  0  0  0  0  0  0  0  0  0  0
    2.3806   -1.4008   -1.1501 C   0  0  0  0  0  0  0  0  0  0  0  0
    2.3282   -0.3075   -0.2819 C   0  0  0  0  0  0  0  0  0  0  0  0
    3.2733    0.7450   -0.4312 N   0  0  0  0  0  0  0  0  0  0  0  0
    2.8762    2.0970   -0.3376 C   0  0  0  0  0  0  0  0  0  0  0  0
    1.7271    2.5073   -0.4250 O   0  0  0  0  0  0  0  0  0  0  0  0
    4.0672    2.9864   -0.0474 C   0  0  0  0  0  0  0  0  0  0  0  0
    5.3193    2.1831   -0.3772 C   0  0  0  0  0  0  0  0  0  0  0  0
    4.8969    0.4824   -0.0802 S   0  0  0  0  0  6  0  0  0  0  0  0
    5.4940   -0.3430   -1.1068 O   0  0  0  0  0  0  0  0  0  0  0  0
    5.0384    0.2109    1.3330 O   0  0  0  0  0  0  0  0  0  0  0  0
    1.3786   -0.2874    0.7416 C   0  0  0  0  0  0  0  0  0  0  0  0
    0.4297   -1.3169    0.8453 C   0  0  0  0  0  0  0  0  0  0  0  0
   -0.7882   -1.1953    2.1350 S   0  0  0  0  0  6  0  0  0  0  0  0
   -1.2019   -2.5237    2.5328 O   0  0  0  0  0  0  0  0  0  0  0  0
   -0.2631   -0.2775    3.1277 O   0  0  0  0  0  0  0  0  0  0  0  0
   -2.0990   -0.4194    1.3826 N   0  0  0  0  0  0  0  0  0  0  0  0
   -2.8257   -1.2049    0.3326 C   0  0  0  0  0  0  0  0  0  0  0  0
   -4.1642   -0.5181    0.0105 C   0  0  0  0  0  0  0  0  0  0  0  0
   -3.9447    0.8801   -0.3765 N   0  0  0  0  0  0  0  0  0  0  0  0
   -3.8983    1.1877   -1.7280 C   0  0  0  0  0  0  0  0  0  0  0  0
   -3.5858    2.6158   -2.0981 C   0  0  0  0  0  0  0  0  0  0  0  0
   -4.1068    0.3507   -2.6051 O   0  0  0  0  0  0  0  0  0  0  0  0
   -3.2540    1.6583    0.6572 C   0  0  0  0  0  0  0  0  0  0  0  0
   -1.8971    1.0109    0.9920 C   0  0  0  0  0  0  0  0  0  0  0  0
    0.7479   -5.0720   -0.2112 H   0  0  0  0  0  0  0  0  0  0  0  0
    0.5410   -4.4738    1.4681 H   0  0  0  0  0  0  0  0  0  0  0  0
   -0.7885   -5.3012    0.6380 H   0  0  0  0  0  0  0  0  0  0  0  0
    1.4812   -3.2638   -1.7411 H   0  0  0  0  0  0  0  0  0  0  0  0
    3.1229   -1.4422   -1.9451 H   0  0  0  0  0  0  0  0  0  0  0  0
    4.0410    3.2423    1.0195 H   0  0  0  0  0  0  0  0  0  0  0  0
    4.0183    3.9031   -0.6422 H   0  0  0  0  0  0  0  0  0  0  0  0
    6.1740    2.4713    0.2346 H   0  0  0  0  0  0  0  0  0  0  0  0
    5.5726    2.2807   -1.4380 H   0  0  0  0  0  0  0  0  0  0  0  0
    1.3559    0.5425    1.4450 H   0  0  0  0  0  0  0  0  0  0  0  0
   -2.2134   -1.2575   -0.5734 H   0  0  0  0  0  0  0  0  0  0  0  0
   -3.0292   -2.2192    0.6887 H   0  0  0  0  0  0  0  0  0  0  0  0
   -4.6884   -1.0654   -0.7784 H   0  0  0  0  0  0  0  0  0  0  0  0
   -4.8106   -0.5124    0.8958 H   0  0  0  0  0  0  0  0  0  0  0  0
   -4.2102    3.3073   -1.5254 H   0  0  0  0  0  0  0  0  0  0  0  0
   -3.8077    2.7697   -3.1605 H   0  0  0  0  0  0  0  0  0  0  0  0
   -2.5237    2.8200   -1.9304 H   0  0  0  0  0  0  0  0  0  0  0  0
   -3.8994    1.6653    1.5433 H   0  0  0  0  0  0  0  0  0  0  0  0
   -3.1025    2.6953    0.3498 H   0  0  0  0  0  0  0  0  0  0  0  0
   -1.4426    1.5699    1.8151 H   0  0  0  0  0  0  0  0  0  0  0  0
   -1.2379    1.0641    0.1195 H   0  0  0  0  0  0  0  0  0  0  0  0
  1  2  1  0
  2  3  1  0
  3  4  2  0
  4  5  1  0
  5  6  2  0
  6  7  1  0
  7  8  1  0
  8  9  2  0
  8 10  1  0
 10 11  1  0
 11 12  1  0
 12 13  2  0
 12 14  2  0
  6 15  1  0
 15 16  2  0
 16 17  1  0
 17 18  2  0
 17 19  2  0
 17 20  1  0
 20 21  1  0
 21 22  1  0
 22 23  1  0
 23 24  1  0
 24 25  1  0
 24 26  2  0
 23 27  1  0
 27 28  1  0
 16  3  1  0
 28 20  1  0
 12  7  1  0
  1 29  1  0
  1 30  1  0
  1 31  1  0
  4 32  1  0
  5 33  1  0
 10 34  1  0
 10 35  1  0
 11 36  1  0
 11 37  1  0
 15 38  1  0
 21 39  1  0
 21 40  1  0
 22 41  1  0
 22 42  1  0
 25 43  1  0
 25 44  1  0
 25 45  1  0
 27 46  1  0
 27 47  1  0
 28 48  1  0
 28 49  1  0
M  END
$$$$
