
     RDKit          3D

 41 42  0  0  0  0  0  0  0  0999 V2000
   -8.1280    0.8882    1.8242 C   0  0  0  0  0  0  0  0  0  0  0  0
   -7.1353    0.3504    0.8099 C   0  0  0  0  0  0  0  0  0  0  0  0
   -5.8215    0.6469    1.2810 O   0  0  0  0  0  0  0  0  0  0  0  0
   -4.7745    0.2495    0.4989 C   0  0  0  0  0  0  0  0  0  0  0  0
   -4.8664   -0.3803   -0.7416 C   0  0  0  0  0  0  0  0  0  0  0  0
   -3.7034   -0.7308   -1.4410 C   0  0  0  0  0  0  0  0  0  0  0  0
   -2.4316   -0.4643   -0.9116 C   0  0  0  0  0  0  0  0  0  0  0  0
   -1.2430   -0.8514   -1.6595 C   0  0  0  0  0  0  0  0  0  0  0  0
   -1.1333   -1.3865   -2.8588 N   0  0  0  0  0  0  0  0  0  0  0  0
    0.2165   -1.5688   -3.0821 N   0  0  0  0  0  0  0  0  0  0  0  0
    0.8396   -1.1410   -2.0045 C   0  0  0  0  0  0  0  0  0  0  0  0
    2.5644   -1.1751   -1.8116 S   0  0  0  0  0  0  0  0  0  0  0  0
    2.7050   -0.6342   -0.0867 C   0  0  0  0  0  0  0  0  0  0  0  0
    4.1426   -0.6994    0.3947 C   0  0  0  0  0  0  0  0  0  0  0  0
    4.4416   -1.2417    1.4564 O   0  0  0  0  0  0  0  0  0  0  0  0
    5.0606   -0.0465   -0.4007 N   0  0  0  0  0  0  0  0  0  0  0  0
    6.4694    0.0474   -0.0472 C   0  0  0  0  0  0  0  0  0  0  0  0
    6.7000    1.1880    0.9417 C   0  0  0  0  0  0  0  0  0  0  0  0
    7.3159    0.2422   -1.3023 C   0  0  0  0  0  0  0  0  0  0  0  0
   -0.0264   -0.6592   -1.0581 O   0  0  0  0  0  0  0  0  0  0  0  0
   -2.3510    0.1690    0.3356 C   0  0  0  0  0  0  0  0  0  0  0  0
   -3.5129    0.5226    1.0303 C   0  0  0  0  0  0  0  0  0  0  0  0
   -8.0026    1.9684    1.9500 H   0  0  0  0  0  0  0  0  0  0  0  0
   -9.1555    0.6861    1.5097 H   0  0  0  0  0  0  0  0  0  0  0  0
   -7.9623    0.4309    2.8058 H   0  0  0  0  0  0  0  0  0  0  0  0
   -7.3144    0.8359   -0.1571 H   0  0  0  0  0  0  0  0  0  0  0  0
   -7.2685   -0.7343    0.7166 H   0  0  0  0  0  0  0  0  0  0  0  0
   -5.8232   -0.6151   -1.1961 H   0  0  0  0  0  0  0  0  0  0  0  0
   -3.8001   -1.2229   -2.4090 H   0  0  0  0  0  0  0  0  0  0  0  0
    2.3487    0.3953    0.0226 H   0  0  0  0  0  0  0  0  0  0  0  0
    2.1017   -1.2879    0.5517 H   0  0  0  0  0  0  0  0  0  0  0  0
    4.7393    0.3891   -1.2583 H   0  0  0  0  0  0  0  0  0  0  0  0
    6.7615   -0.8944    0.4329 H   0  0  0  0  0  0  0  0  0  0  0  0
    6.4038    2.1512    0.5113 H   0  0  0  0  0  0  0  0  0  0  0  0
    7.7557    1.2507    1.2254 H   0  0  0  0  0  0  0  0  0  0  0  0
    6.1143    1.0432    1.8565 H   0  0  0  0  0  0  0  0  0  0  0  0
    7.1561   -0.5791   -2.0100 H   0  0  0  0  0  0  0  0  0  0  0  0
    8.3822    0.2737   -1.0549 H   0  0  0  0  0  0  0  0  0  0  0  0
    7.0562    1.1750   -1.8153 H   0  0  0  0  0  0  0  0  0  0  0  0
   -1.3876    0.3964    0.7859 H   0  0  0  0  0  0  0  0  0  0  0  0
   -3.4336    1.0126    1.9989 H   0  0  0  0  0  0  0  0  0  0  0  0
  1  2  1  0
  2  3  1  0
  3  4  1  0
  4  5  2  0
  5  6  1  0
  6  7  2  0
  7  8  1  0
  8  9  2  0
  9 10  1  0
 10 11  2  0
 11 12  1  0
 12 13  1  0
 13 14  1  0
 14 15  2  0
 14 16  1  0
 16 17  1  0
 17 18  1  0
 17 19  1  0
 11 20  1  0
  7 21  1  0
 21 22  2  0
 22  4  1  0
 20  8  1  0
  1 23  1  0
  1 24  1  0
  1 25  1  0
  2 26  1  0
  2 27  1  0
  5 28  1  0
  6 29  1  0
 13 30  1  0
 13 31  1  0
 16 32  1  0
 17 33  1  0
 18 34  1  0
 18 35  1  0
 18 36  1  0
 19 37  1  0
 19 38  1  0
 19 39  1  0
 21 40  1  0
 22 41  1  0
M  END
$$$$
