
     RDKit          3D

 40 42  0  0  0  0  0  0  0  0999 V2000
    4.1481    0.9090   -2.4435 C   0  0  0  0  0  0  0  0  0  0  0  0
    4.0686    0.0165   -1.3380 O   0  0  0  0  0  0  0  0  0  0  0  0
    2.8450   -0.1093   -0.7297 C   0  0  0  0  0  0  0  0  0  0  0  0
    1.6604    0.5042   -1.1358 C   0  0  0  0  0  0  0  0  0  0  0  0
    0.4537    0.3041   -0.4278 C   0  0  0  0  0  0  0  0  0  0  0  0
   -0.7939    1.0303   -0.9286 C   0  0  0  0  0  0  0  0  0  0  0  0
   -0.8189    2.7914   -0.5160 S   0  0  0  0  0  0  0  0  0  0  0  0
   -1.0250    2.6733    1.2704 C   0  0  0  0  0  0  0  0  0  0  0  0
   -2.4700    2.5691    1.6901 C   0  0  0  0  0  0  0  0  0  0  0  0
   -2.9498    3.3803    2.4909 O   0  0  0  0  0  0  0  0  0  0  0  0
   -3.2702    1.5380    1.2971 N   0  0  0  0  0  0  0  0  0  0  0  0
   -3.0206    0.5415    0.3814 C   0  0  0  0  0  0  0  0  0  0  0  0
   -3.9380   -0.4688    0.2387 N   0  0  0  0  0  0  0  0  0  0  0  0
   -3.5991   -1.3997   -0.6554 N   0  0  0  0  0  0  0  0  0  0  0  0
   -2.4449   -0.9564   -1.1574 C   0  0  0  0  0  0  0  0  0  0  0  0
   -1.7652   -1.7336   -2.2283 C   0  0  0  0  0  0  0  0  0  0  0  0
   -2.0207    0.2697   -0.5400 C   0  0  0  0  0  0  0  0  0  0  0  0
    0.4800   -0.5293    0.7118 C   0  0  0  0  0  0  0  0  0  0  0  0
    1.6556   -1.1648    1.1244 C   0  0  0  0  0  0  0  0  0  0  0  0
    1.7613   -1.9907    2.2115 O   0  0  0  0  0  0  0  0  0  0  0  0
    0.5574   -2.4020    2.8427 C   0  0  0  0  0  0  0  0  0  0  0  0
    2.8274   -0.9408    0.3966 C   0  0  0  0  0  0  0  0  0  0  0  0
    3.9973   -1.5475    0.7878 O   0  0  0  0  0  0  0  0  0  0  0  0
    5.1860    0.9196   -2.7898 H   0  0  0  0  0  0  0  0  0  0  0  0
    3.8851    1.9299   -2.1474 H   0  0  0  0  0  0  0  0  0  0  0  0
    3.5236    0.5631   -3.2737 H   0  0  0  0  0  0  0  0  0  0  0  0
    1.6458    1.1571   -2.0045 H   0  0  0  0  0  0  0  0  0  0  0  0
   -0.7556    1.0096   -2.0263 H   0  0  0  0  0  0  0  0  0  0  0  0
   -0.4487    1.8653    1.7246 H   0  0  0  0  0  0  0  0  0  0  0  0
   -0.6310    3.6054    1.6911 H   0  0  0  0  0  0  0  0  0  0  0  0
   -4.1752    1.5704    1.7553 H   0  0  0  0  0  0  0  0  0  0  0  0
   -4.8104   -0.5892    0.7395 H   0  0  0  0  0  0  0  0  0  0  0  0
   -0.8484   -2.1910   -1.8439 H   0  0  0  0  0  0  0  0  0  0  0  0
   -2.4068   -2.5344   -2.6109 H   0  0  0  0  0  0  0  0  0  0  0  0
   -1.5050   -1.0852   -3.0705 H   0  0  0  0  0  0  0  0  0  0  0  0
   -0.4325   -0.6751    1.2808 H   0  0  0  0  0  0  0  0  0  0  0  0
    0.0678   -1.5580    3.3393 H   0  0  0  0  0  0  0  0  0  0  0  0
    0.8167   -3.1350    3.6128 H   0  0  0  0  0  0  0  0  0  0  0  0
   -0.1191   -2.8901    2.1330 H   0  0  0  0  0  0  0  0  0  0  0  0
    4.6690   -1.2468    0.1478 H   0  0  0  0  0  0  0  0  0  0  0  0
  1  2  1  0
  2  3  1  0
  3  4  2  0
  4  5  1  0
  5  6  1  0
  6  7  1  0
  7  8  1  0
  8  9  1  0
  9 10  2  0
  9 11  1  0
 11 12  1  0
 12 13  1  0
 13 14  1  0
 14 15  2  0
 15 16  1  0
 15 17  1  0
  5 18  2  0
 18 19  1  0
 19 20  1  0
 20 21  1  0
 19 22  2  0
 22 23  1  0
 22  3  1  0
 17  6  1  0
 17 12  2  0
  1 24  1  0
  1 25  1  0
  1 26  1  0
  4 27  1  0
  6 28  1  0
  8 29  1  0
  8 30  1  0
 11 31  1  0
 13 32  1  0
 16 33  1  0
 16 34  1  0
 16 35  1  0
 18 36  1  0
 21 37  1  0
 21 38  1  0
 21 39  1  0
 23 40  1  0
M  END
$$$$
