
     RDKit          3D

 41 43  0  0  0  0  0  0  0  0999 V2000
    5.5717   -0.0921    2.1214 C   0  0  0  0  0  0  0  0  0  0  0  0
    4.1735   -0.3287    2.2171 O   0  0  0  0  0  0  0  0  0  0  0  0
    3.4839   -0.4514    1.0430 C   0  0  0  0  0  0  0  0  0  0  0  0
    4.0344   -0.4425   -0.2359 C   0  0  0  0  0  0  0  0  0  0  0  0
    3.2115   -0.5784   -1.3616 C   0  0  0  0  0  0  0  0  0  0  0  0
    1.8294   -0.7295   -1.2209 C   0  0  0  0  0  0  0  0  0  0  0  0
    0.9458   -0.8628   -2.2604 O   0  0  0  0  0  0  0  0  0  0  0  0
    1.4762   -0.8110   -3.5784 C   0  0  0  0  0  0  0  0  0  0  0  0
    1.2666   -0.7500    0.0678 C   0  0  0  0  0  0  0  0  0  0  0  0
   -0.2266   -0.9114    0.2706 C   0  0  0  0  0  0  0  0  0  0  0  0
   -0.9952    0.3828   -0.0070 C   0  0  0  0  0  0  0  0  0  0  0  0
   -1.2057    1.1838    1.2962 C   0  0  0  0  0  0  0  0  0  0  0  0
   -0.3275    1.6011    2.0365 O   0  0  0  0  0  0  0  0  0  0  0  0
   -2.5832    1.3390    1.4760 N   0  0  0  0  0  0  0  0  0  0  0  0
   -3.1861    2.0339    2.5815 C   0  0  0  0  0  0  0  0  0  0  0  0
   -3.3031    0.7257    0.4493 C   0  0  0  0  0  0  0  0  0  0  0  0
   -4.6721    0.6587    0.2702 C   0  0  0  0  0  0  0  0  0  0  0  0
   -5.1499   -0.0161   -0.8566 C   0  0  0  0  0  0  0  0  0  0  0  0
   -4.2603   -0.6014   -1.7739 C   0  0  0  0  0  0  0  0  0  0  0  0
   -2.8796   -0.5236   -1.5773 C   0  0  0  0  0  0  0  0  0  0  0  0
   -2.4165    0.1391   -0.4521 C   0  0  0  0  0  0  0  0  0  0  0  0
    2.1036   -0.6034    1.1867 C   0  0  0  0  0  0  0  0  0  0  0  0
    6.0838   -0.9418    1.6580 H   0  0  0  0  0  0  0  0  0  0  0  0
    5.7804    0.8378    1.5820 H   0  0  0  0  0  0  0  0  0  0  0  0
    5.9628    0.0178    3.1374 H   0  0  0  0  0  0  0  0  0  0  0  0
    5.1013   -0.3307   -0.3964 H   0  0  0  0  0  0  0  0  0  0  0  0
    3.6880   -0.5620   -2.3360 H   0  0  0  0  0  0  0  0  0  0  0  0
    0.6412   -0.9154   -4.2779 H   0  0  0  0  0  0  0  0  0  0  0  0
    2.1665   -1.6416   -3.7587 H   0  0  0  0  0  0  0  0  0  0  0  0
    1.9551    0.1540   -3.7745 H   0  0  0  0  0  0  0  0  0  0  0  0
   -0.5630   -1.7276   -0.3823 H   0  0  0  0  0  0  0  0  0  0  0  0
   -0.4226   -1.2705    1.2902 H   0  0  0  0  0  0  0  0  0  0  0  0
   -0.5059    1.0411   -0.7344 H   0  0  0  0  0  0  0  0  0  0  0  0
   -2.4183    2.4293    3.2523 H   0  0  0  0  0  0  0  0  0  0  0  0
   -3.8217    1.3414    3.1413 H   0  0  0  0  0  0  0  0  0  0  0  0
   -3.7867    2.8661    2.2025 H   0  0  0  0  0  0  0  0  0  0  0  0
   -5.3636    1.1115    0.9710 H   0  0  0  0  0  0  0  0  0  0  0  0
   -6.2214   -0.0875   -1.0289 H   0  0  0  0  0  0  0  0  0  0  0  0
   -4.6521   -1.1185   -2.6470 H   0  0  0  0  0  0  0  0  0  0  0  0
   -2.1911   -0.9701   -2.2886 H   0  0  0  0  0  0  0  0  0  0  0  0
    1.6766   -0.5951    2.1884 H   0  0  0  0  0  0  0  0  0  0  0  0
  1  2  1  0
  2  3  1  0
  3  4  2  0
  4  5  1  0
  5  6  2  0
  6  7  1  0
  7  8  1  0
  6  9  1  0
  9 10  1  0
 10 11  1  0
 11 12  1  0
 12 13  2  0
 12 14  1  0
 14 15  1  0
 14 16  1  0
 16 17  2  0
 17 18  1  0
 18 19  2  0
 19 20  1  0
 20 21  2  0
  9 22  2  0
 22  3  1  0
 21 11  1  0
 21 16  1  0
  1 23  1  0
  1 24  1  0
  1 25  1  0
  4 26  1  0
  5 27  1  0
  8 28  1  0
  8 29  1  0
  8 30  1  0
 10 31  1  0
 10 32  1  0
 11 33  1  0
 15 34  1  0
 15 35  1  0
 15 36  1  0
 17 37  1  0
 18 38  1  0
 19 39  1  0
 20 40  1  0
 22 41  1  0
M  END
$$$$
