
     RDKit          3D

 51 54  0  0  0  0  0  0  0  0999 V2000
    5.2754   -1.2165   -1.1565 O   0  0  0  0  0  0  0  0  0  0  0  0
    5.1778   -0.5544   -0.1317 C   0  0  0  0  0  0  0  0  0  0  0  0
    4.0487   -0.3470    0.6397 N   0  0  0  0  0  0  0  0  0  0  0  0
    2.7686   -0.9045    0.4480 C   0  0  0  0  0  0  0  0  0  0  0  0
    1.7610   -0.5125    1.3421 C   0  0  0  0  0  0  0  0  0  0  0  0
    0.4645   -1.0225    1.2250 C   0  0  0  0  0  0  0  0  0  0  0  0
    0.1666   -1.9235    0.2002 C   0  0  0  0  0  0  0  0  0  0  0  0
   -1.1901   -2.4977    0.0679 C   0  0  0  0  0  0  0  0  0  0  0  0
   -1.2998   -3.7208    0.0931 O   0  0  0  0  0  0  0  0  0  0  0  0
   -2.2711   -1.6375   -0.0702 N   0  0  0  0  0  0  0  0  0  0  0  0
   -2.1834   -0.2038   -0.3843 C   0  0  0  0  0  0  0  0  0  0  0  0
   -3.3096    0.2822   -1.3200 C   0  0  0  0  0  0  0  0  0  0  0  0
   -4.6466   -0.0962   -0.8341 N   0  0  0  0  0  0  0  0  0  0  0  0
   -5.6315    0.8829   -0.7423 C   0  0  0  0  0  0  0  0  0  0  0  0
   -5.7917    1.8365   -1.7504 C   0  0  0  0  0  0  0  0  0  0  0  0
   -6.7939    2.8020   -1.6537 C   0  0  0  0  0  0  0  0  0  0  0  0
   -7.6317    2.7966   -0.5513 C   0  0  0  0  0  0  0  0  0  0  0  0
   -7.4299    1.8168    0.4007 C   0  0  0  0  0  0  0  0  0  0  0  0
   -6.4644    0.8733    0.3227 N   0  0  0  0  0  0  0  0  0  0  0  0
   -4.7124   -1.1674    0.1751 C   0  0  0  0  0  0  0  0  0  0  0  0
   -3.6179   -2.2165   -0.0748 C   0  0  0  0  0  0  0  0  0  0  0  0
    1.1666   -2.3399   -0.6798 C   0  0  0  0  0  0  0  0  0  0  0  0
    2.4619   -1.8243   -0.5589 C   0  0  0  0  0  0  0  0  0  0  0  0
    6.3719    0.1773    0.4029 C   0  0  0  0  0  0  0  0  0  0  0  0
    6.8636   -0.2556    1.5788 C   0  0  0  0  0  0  0  0  0  0  0  0
    8.2020    0.4738    2.4010 S   0  0  0  0  0  0  0  0  0  0  0  0
    8.4221    1.9499    1.3641 C   0  0  0  0  0  0  0  0  0  0  0  0
    8.2203    1.5719   -0.0940 C   0  0  0  0  0  0  0  0  0  0  0  0
    6.8649    1.2073   -0.3714 O   0  0  0  0  0  0  0  0  0  0  0  0
    4.1416    0.3034    1.4102 H   0  0  0  0  0  0  0  0  0  0  0  0
    1.9717    0.1876    2.1469 H   0  0  0  0  0  0  0  0  0  0  0  0
   -0.3005   -0.7284    1.9391 H   0  0  0  0  0  0  0  0  0  0  0  0
   -1.2164    0.0286   -0.8403 H   0  0  0  0  0  0  0  0  0  0  0  0
   -2.2458    0.3304    0.5718 H   0  0  0  0  0  0  0  0  0  0  0  0
   -3.1722   -0.1700   -2.3094 H   0  0  0  0  0  0  0  0  0  0  0  0
   -3.1972    1.3665   -1.4363 H   0  0  0  0  0  0  0  0  0  0  0  0
   -5.1596    1.8205   -2.6317 H   0  0  0  0  0  0  0  0  0  0  0  0
   -6.9199    3.5388   -2.4408 H   0  0  0  0  0  0  0  0  0  0  0  0
   -8.4246    3.5270   -0.4399 H   0  0  0  0  0  0  0  0  0  0  0  0
   -8.0590    1.7591    1.2835 H   0  0  0  0  0  0  0  0  0  0  0  0
   -5.6882   -1.6668    0.1349 H   0  0  0  0  0  0  0  0  0  0  0  0
   -4.5791   -0.7477    1.1812 H   0  0  0  0  0  0  0  0  0  0  0  0
   -3.6720   -3.0063    0.6831 H   0  0  0  0  0  0  0  0  0  0  0  0
   -3.7604   -2.6871   -1.0554 H   0  0  0  0  0  0  0  0  0  0  0  0
    0.9432   -3.0649   -1.4588 H   0  0  0  0  0  0  0  0  0  0  0  0
    3.2111   -2.1716   -1.2645 H   0  0  0  0  0  0  0  0  0  0  0  0
    6.4094   -1.1099    2.0763 H   0  0  0  0  0  0  0  0  0  0  0  0
    9.4275    2.3487    1.5265 H   0  0  0  0  0  0  0  0  0  0  0  0
    7.6895    2.7020    1.6762 H   0  0  0  0  0  0  0  0  0  0  0  0
    8.8950    0.7682   -0.4178 H   0  0  0  0  0  0  0  0  0  0  0  0
    8.4437    2.4419   -0.7213 H   0  0  0  0  0  0  0  0  0  0  0  0
  1  2  2  0
  2  3  1  0
  3  4  1  0
  4  5  2  0
  5  6  1  0
  6  7  2  0
  7  8  1  0
  8  9  2  0
  8 10  1  0
 10 11  1  0
 11 12  1  0
 12 13  1  0
 13 14  1  0
 14 15  2  0
 15 16  1  0
 16 17  2  0
 17 18  1  0
 18 19  2  0
 13 20  1  0
 20 21  1  0
  7 22  1  0
 22 23  2  0
  2 24  1  0
 24 25  2  0
 25 26  1  0
 26 27  1  0
 27 28  1  0
 28 29  1  0
 23  4  1  0
 29 24  1  0
 21 10  1  0
 19 14  1  0
  3 30  1  0
  5 31  1  0
  6 32  1  0
 11 33  1  0
 11 34  1  0
 12 35  1  0
 12 36  1  0
 15 37  1  0
 16 38  1  0
 17 39  1  0
 18 40  1  0
 20 41  1  0
 20 42  1  0
 21 43  1  0
 21 44  1  0
 22 45  1  0
 23 46  1  0
 25 47  1  0
 27 48  1  0
 27 49  1  0
 28 50  1  0
 28 51  1  0
M  END
$$$$
