
     RDKit          3D

 45 48  0  0  0  0  0  0  0  0999 V2000
    8.2740    0.8486    1.5540 C   0  0  0  0  0  0  0  0  0  0  0  0
    6.9248    0.8029    0.9660 C   0  0  0  0  0  0  0  0  0  0  0  0
    5.8143    0.2998    1.4502 N   0  0  0  0  0  0  0  0  0  0  0  0
    4.9137    0.5605    0.4439 C   0  0  0  0  0  0  0  0  0  0  0  0
    3.4058    0.1479    0.5294 C   0  0  0  0  0  0  0  0  0  0  0  0
    2.4753    0.3905   -0.4571 C   0  0  0  0  0  0  0  0  0  0  0  0
    1.1751   -0.0938   -0.1164 C   0  0  0  0  0  0  0  0  0  0  0  0
    0.0125   -0.0152   -0.8781 N   0  0  0  0  0  0  0  0  0  0  0  0
   -0.1065    0.5883   -2.1159 C   0  0  0  0  0  0  0  0  0  0  0  0
    0.7964    1.1465   -2.7338 O   0  0  0  0  0  0  0  0  0  0  0  0
   -1.5008    0.5108   -2.7343 C   0  0  0  0  0  0  0  0  0  0  0  0
   -1.9005   -0.9151   -3.0715 C   0  0  0  0  0  0  0  0  0  0  0  0
   -2.7144   -1.3529   -1.8770 C   0  0  0  0  0  0  0  0  0  0  0  0
   -2.9981   -2.5209   -1.6668 O   0  0  0  0  0  0  0  0  0  0  0  0
   -3.0363   -0.2119   -1.1239 N   0  0  0  0  0  0  0  0  0  0  0  0
   -3.8015   -0.1802    0.0763 C   0  0  0  0  0  0  0  0  0  0  0  0
   -4.2124    1.0423    0.6329 C   0  0  0  0  0  0  0  0  0  0  0  0
   -4.9458    1.0899    1.8244 C   0  0  0  0  0  0  0  0  0  0  0  0
   -5.2839   -0.0857    2.4836 C   0  0  0  0  0  0  0  0  0  0  0  0
   -4.8904   -1.3066    1.9490 C   0  0  0  0  0  0  0  0  0  0  0  0
   -4.1567   -1.3519    0.7573 C   0  0  0  0  0  0  0  0  0  0  0  0
   -2.5811    0.9915   -1.7893 C   0  0  0  0  0  0  0  0  0  0  0  0
    1.1743   -0.6957    1.1332 C   0  0  0  0  0  0  0  0  0  0  0  0
    0.0383   -1.3312    1.8697 C   0  0  0  0  0  0  0  0  0  0  0  0
    2.7253   -0.6577    1.8621 S   0  0  0  0  0  0  0  0  0  0  0  0
    5.4355    1.1976   -0.6156 N   0  0  0  0  0  0  0  0  0  0  0  0
    6.7766    1.3593   -0.2694 O   0  0  0  0  0  0  0  0  0  0  0  0
    8.6206    1.8824    1.6405 H   0  0  0  0  0  0  0  0  0  0  0  0
    8.9825    0.2951    0.9308 H   0  0  0  0  0  0  0  0  0  0  0  0
    8.2759    0.4025    2.5529 H   0  0  0  0  0  0  0  0  0  0  0  0
    2.7301    0.8948   -1.3817 H   0  0  0  0  0  0  0  0  0  0  0  0
   -0.8136   -0.4142   -0.4462 H   0  0  0  0  0  0  0  0  0  0  0  0
   -1.4769    1.1350   -3.6359 H   0  0  0  0  0  0  0  0  0  0  0  0
   -2.5454   -0.9498   -3.9556 H   0  0  0  0  0  0  0  0  0  0  0  0
   -1.0419   -1.5786   -3.2090 H   0  0  0  0  0  0  0  0  0  0  0  0
   -3.9908    1.9915    0.1550 H   0  0  0  0  0  0  0  0  0  0  0  0
   -5.2555    2.0487    2.2329 H   0  0  0  0  0  0  0  0  0  0  0  0
   -5.8551   -0.0520    3.4075 H   0  0  0  0  0  0  0  0  0  0  0  0
   -5.1528   -2.2327    2.4549 H   0  0  0  0  0  0  0  0  0  0  0  0
   -3.8727   -2.3350    0.3942 H   0  0  0  0  0  0  0  0  0  0  0  0
   -2.1966    1.7270   -1.0757 H   0  0  0  0  0  0  0  0  0  0  0  0
   -3.4280    1.4144   -2.3421 H   0  0  0  0  0  0  0  0  0  0  0  0
   -0.4110   -2.1237    1.2621 H   0  0  0  0  0  0  0  0  0  0  0  0
    0.3506   -1.7775    2.8194 H   0  0  0  0  0  0  0  0  0  0  0  0
   -0.7331   -0.5852    2.0873 H   0  0  0  0  0  0  0  0  0  0  0  0
  1  2  1  0
  2  3  2  0
  3  4  1  0
  4  5  1  0
  5  6  2  0
  6  7  1  0
  7  8  1  0
  8  9  1  0
  9 10  2  0
  9 11  1  0
 11 12  1  0
 12 13  1  0
 13 14  2  0
 13 15  1  0
 15 16  1  0
 16 17  2  0
 17 18  1  0
 18 19  2  0
 19 20  1  0
 20 21  2  0
 15 22  1  0
  7 23  2  0
 23 24  1  0
 23 25  1  0
  4 26  2  0
 26 27  1  0
 27  2  1  0
 25  5  1  0
 22 11  1  0
 21 16  1  0
  1 28  1  0
  1 29  1  0
  1 30  1  0
  6 31  1  0
  8 32  1  0
 11 33  1  0
 12 34  1  0
 12 35  1  0
 17 36  1  0
 18 37  1  0
 19 38  1  0
 20 39  1  0
 21 40  1  0
 22 41  1  0
 22 42  1  0
 24 43  1  0
 24 44  1  0
 24 45  1  0
M  END
$$$$
