
     RDKit          3D

 61 63  0  0  0  0  0  0  0  0999 V2000
   -2.9043   -1.3309    3.1804 C   0  0  0  0  0  0  0  0  0  0  0  0
   -3.5211   -0.8254    1.9255 C   0  0  0  0  0  0  0  0  0  0  0  0
   -4.2676   -1.6613    1.1935 N   0  0  0  0  0  0  0  0  0  0  0  0
   -4.7450   -0.9062    0.1877 N   0  0  0  0  0  0  0  0  0  0  0  0
   -5.6737   -1.5120   -0.7672 C   0  0  0  0  0  0  0  0  0  0  0  0
   -6.9065   -2.0905   -0.0681 C   0  0  0  0  0  0  0  0  0  0  0  0
   -4.9737   -2.5659   -1.6242 C   0  0  0  0  0  0  0  0  0  0  0  0
   -4.2637    0.3829    0.2000 C   0  0  0  0  0  0  0  0  0  0  0  0
   -4.6429    1.3911   -0.8234 C   0  0  0  0  0  0  0  0  0  0  0  0
   -3.4605    0.4598    1.3323 C   0  0  0  0  0  0  0  0  0  0  0  0
   -2.5665    1.8183    1.9237 S   0  0  0  0  0  6  0  0  0  0  0  0
   -3.4108    2.9587    1.6393 O   0  0  0  0  0  0  0  0  0  0  0  0
   -2.1997    1.4744    3.2808 O   0  0  0  0  0  0  0  0  0  0  0  0
   -1.1435    1.9590    1.0265 N   0  0  0  0  0  0  0  0  0  0  0  0
   -0.0770    0.9484    1.2701 C   0  0  0  0  0  0  0  0  0  0  0  0
    0.7555    0.6441    0.0156 C   0  0  0  0  0  0  0  0  0  0  0  0
    1.1856    1.8685   -0.6661 N   0  0  0  0  0  0  0  0  0  0  0  0
    2.4287    2.0898   -1.2480 C   0  0  0  0  0  0  0  0  0  0  0  0
    2.6603    3.0328   -2.0012 O   0  0  0  0  0  0  0  0  0  0  0  0
    3.5384    1.1653   -0.9434 C   0  0  0  0  0  0  0  0  0  0  0  0
    4.0084    1.0308    0.3610 C   0  0  0  0  0  0  0  0  0  0  0  0
    5.0772    0.1647    0.6284 C   0  0  0  0  0  0  0  0  0  0  0  0
    5.7270   -0.5638   -0.3880 C   0  0  0  0  0  0  0  0  0  0  0  0
    6.7854   -1.4413   -0.1187 N   0  0  0  0  0  0  0  0  0  0  0  0
    7.3581   -1.4819    1.2252 C   0  0  0  0  0  0  0  0  0  0  0  0
    7.7161   -1.7548   -1.2040 C   0  0  0  0  0  0  0  0  0  0  0  0
    5.2244   -0.3900   -1.6939 C   0  0  0  0  0  0  0  0  0  0  0  0
    4.1544    0.4707   -1.9772 C   0  0  0  0  0  0  0  0  0  0  0  0
    0.1544    2.8893   -0.8663 C   0  0  0  0  0  0  0  0  0  0  0  0
   -1.2336    2.4697   -0.3608 C   0  0  0  0  0  0  0  0  0  0  0  0
   -3.3203   -0.8116    4.0498 H   0  0  0  0  0  0  0  0  0  0  0  0
   -1.8194   -1.1948    3.1689 H   0  0  0  0  0  0  0  0  0  0  0  0
   -3.0961   -2.4011    3.3158 H   0  0  0  0  0  0  0  0  0  0  0  0
   -6.0197   -0.7129   -1.4312 H   0  0  0  0  0  0  0  0  0  0  0  0
   -6.6487   -2.9448    0.5678 H   0  0  0  0  0  0  0  0  0  0  0  0
   -7.3875   -1.3357    0.5660 H   0  0  0  0  0  0  0  0  0  0  0  0
   -7.6434   -2.4326   -0.8038 H   0  0  0  0  0  0  0  0  0  0  0  0
   -4.6225   -3.4102   -1.0202 H   0  0  0  0  0  0  0  0  0  0  0  0
   -4.1033   -2.1394   -2.1345 H   0  0  0  0  0  0  0  0  0  0  0  0
   -5.6546   -2.9575   -2.3868 H   0  0  0  0  0  0  0  0  0  0  0  0
   -4.4037    1.0258   -1.8282 H   0  0  0  0  0  0  0  0  0  0  0  0
   -5.7170    1.6014   -0.7745 H   0  0  0  0  0  0  0  0  0  0  0  0
   -4.1181    2.3393   -0.6931 H   0  0  0  0  0  0  0  0  0  0  0  0
   -0.4989    0.0094    1.6364 H   0  0  0  0  0  0  0  0  0  0  0  0
    0.5788    1.3517    2.0499 H   0  0  0  0  0  0  0  0  0  0  0  0
    0.1476    0.0853   -0.7071 H   0  0  0  0  0  0  0  0  0  0  0  0
    1.5948   -0.0034    0.2730 H   0  0  0  0  0  0  0  0  0  0  0  0
    3.5586    1.5991    1.1708 H   0  0  0  0  0  0  0  0  0  0  0  0
    5.4001    0.0918    1.6633 H   0  0  0  0  0  0  0  0  0  0  0  0
    8.1321   -2.2555    1.3013 H   0  0  0  0  0  0  0  0  0  0  0  0
    6.6000   -1.7435    1.9712 H   0  0  0  0  0  0  0  0  0  0  0  0
    7.8187   -0.5228    1.4873 H   0  0  0  0  0  0  0  0  0  0  0  0
    8.1459   -0.8420   -1.6306 H   0  0  0  0  0  0  0  0  0  0  0  0
    7.2249   -2.3342   -1.9931 H   0  0  0  0  0  0  0  0  0  0  0  0
    8.5478   -2.3739   -0.8493 H   0  0  0  0  0  0  0  0  0  0  0  0
    5.6541   -0.9302   -2.5329 H   0  0  0  0  0  0  0  0  0  0  0  0
    3.8094    0.5897   -3.0010 H   0  0  0  0  0  0  0  0  0  0  0  0
    0.4916    3.7861   -0.3316 H   0  0  0  0  0  0  0  0  0  0  0  0
    0.1022    3.1424   -1.9315 H   0  0  0  0  0  0  0  0  0  0  0  0
   -1.8931    3.3420   -0.4092 H   0  0  0  0  0  0  0  0  0  0  0  0
   -1.6441    1.6876   -1.0099 H   0  0  0  0  0  0  0  0  0  0  0  0
  1  2  1  0
  2  3  2  0
  3  4  1  0
  4  5  1  0
  5  6  1  0
  5  7  1  0
  4  8  1  0
  8  9  1  0
  8 10  2  0
 10 11  1  0
 11 12  2  0
 11 13  2  0
 11 14  1  0
 14 15  1  0
 15 16  1  0
 16 17  1  0
 17 18  1  0
 18 19  2  0
 18 20  1  0
 20 21  2  0
 21 22  1  0
 22 23  2  0
 23 24  1  0
 24 25  1  0
 24 26  1  0
 23 27  1  0
 27 28  2  0
 17 29  1  0
 29 30  1  0
 10  2  1  0
 30 14  1  0
 28 20  1  0
  1 31  1  0
  1 32  1  0
  1 33  1  0
  5 34  1  0
  6 35  1  0
  6 36  1  0
  6 37  1  0
  7 38  1  0
  7 39  1  0
  7 40  1  0
  9 41  1  0
  9 42  1  0
  9 43  1  0
 15 44  1  0
 15 45  1  0
 16 46  1  0
 16 47  1  0
 21 48  1  0
 22 49  1  0
 25 50  1  0
 25 51  1  0
 25 52  1  0
 26 53  1  0
 26 54  1  0
 26 55  1  0
 27 56  1  0
 28 57  1  0
 29 58  1  0
 29 59  1  0
 30 60  1  0
 30 61  1  0
M  END
$$$$
