
     RDKit          3D

 48 50  0  0  0  0  0  0  0  0999 V2000
    6.3960    1.8829    1.8626 C   0  0  0  0  0  0  0  0  0  0  0  0
    5.8266    0.6033    1.6314 O   0  0  0  0  0  0  0  0  0  0  0  0
    4.6875    0.5423    0.8668 C   0  0  0  0  0  0  0  0  0  0  0  0
    3.9980    1.6605    0.3862 C   0  0  0  0  0  0  0  0  0  0  0  0
    2.8415    1.5026   -0.3814 C   0  0  0  0  0  0  0  0  0  0  0  0
    2.3608    0.2259   -0.6890 C   0  0  0  0  0  0  0  0  0  0  0  0
    1.0994    0.0568   -1.4999 C   0  0  0  0  0  0  0  0  0  0  0  0
   -0.0621   -0.0449   -0.6098 N   0  0  0  0  0  0  0  0  0  0  0  0
   -1.3296   -0.2283   -1.3465 C   0  0  1  0  0  0  0  0  0  0  0  0
   -1.5609   -1.6793   -1.7831 C   0  0  0  0  0  0  0  0  0  0  0  0
   -2.2070   -2.4871   -0.3375 S   0  0  0  0  0  6  0  0  0  0  0  0
   -1.0799   -3.0341    0.3936 O   0  0  0  0  0  0  0  0  0  0  0  0
   -3.3506   -3.2933   -0.6940 O   0  0  0  0  0  0  0  0  0  0  0  0
   -2.7476   -1.0236    0.5278 C   0  0  0  0  0  0  0  0  0  0  0  0
   -2.5104    0.1440   -0.4205 C   0  0  2  0  0  0  0  0  0  0  0  0
   -3.9519    0.5480   -1.3946 S   0  0  0  0  0  6  0  0  0  0  0  0
   -4.5256   -0.6652   -1.9284 O   0  0  0  0  0  0  0  0  0  0  0  0
   -3.6171    1.6672   -2.2527 O   0  0  0  0  0  0  0  0  0  0  0  0
   -5.0959    1.2341   -0.2129 C   0  0  0  0  0  0  0  0  0  0  0  0
   -5.1348    2.4737    0.4005 C   0  0  0  0  0  0  0  0  0  0  0  0
   -6.2320    2.6016    1.3001 C   0  0  0  0  0  0  0  0  0  0  0  0
   -7.0000    1.4590    1.3376 C   0  0  0  0  0  0  0  0  0  0  0  0
   -6.4022    0.2497    0.2871 S   0  0  0  0  0  0  0  0  0  0  0  0
    3.0454   -0.8968   -0.1964 C   0  0  0  0  0  0  0  0  0  0  0  0
    4.2026   -0.7488    0.5785 C   0  0  0  0  0  0  0  0  0  0  0  0
    4.9302   -1.7946    1.0913 O   0  0  0  0  0  0  0  0  0  0  0  0
    4.4166   -3.1065    0.9130 C   0  0  0  0  0  0  0  0  0  0  0  0
    6.6694    2.3717    0.9209 H   0  0  0  0  0  0  0  0  0  0  0  0
    7.3138    1.7410    2.4413 H   0  0  0  0  0  0  0  0  0  0  0  0
    5.7242    2.5122    2.4549 H   0  0  0  0  0  0  0  0  0  0  0  0
    4.3294    2.6710    0.5995 H   0  0  0  0  0  0  0  0  0  0  0  0
    2.3142    2.3855   -0.7346 H   0  0  0  0  0  0  0  0  0  0  0  0
    1.1989   -0.8352   -2.1310 H   0  0  0  0  0  0  0  0  0  0  0  0
    0.9882    0.9134   -2.1771 H   0  0  0  0  0  0  0  0  0  0  0  0
    0.1186   -0.8083    0.0516 H   0  0  0  0  0  0  0  0  0  0  0  0
   -1.3148    0.4252   -2.2264 H   0  0  0  0  0  0  0  0  0  0  0  0
   -0.6575   -2.1959   -2.1124 H   0  0  0  0  0  0  0  0  0  0  0  0
   -2.3082   -1.7461   -2.5772 H   0  0  0  0  0  0  0  0  0  0  0  0
   -2.1158   -0.9288    1.4168 H   0  0  0  0  0  0  0  0  0  0  0  0
   -3.7820   -1.1597    0.8410 H   0  0  0  0  0  0  0  0  0  0  0  0
   -2.2879    1.0599    0.1424 H   0  0  0  0  0  0  0  0  0  0  0  0
   -4.4125    3.2561    0.1976 H   0  0  0  0  0  0  0  0  0  0  0  0
   -6.4535    3.4881    1.8828 H   0  0  0  0  0  0  0  0  0  0  0  0
   -7.8887    1.2756    1.9258 H   0  0  0  0  0  0  0  0  0  0  0  0
    2.6542   -1.8814   -0.4320 H   0  0  0  0  0  0  0  0  0  0  0  0
    5.0840   -3.8008    1.4325 H   0  0  0  0  0  0  0  0  0  0  0  0
    3.4219   -3.2083    1.3588 H   0  0  0  0  0  0  0  0  0  0  0  0
    4.4072   -3.3841   -0.1463 H   0  0  0  0  0  0  0  0  0  0  0  0
  1  2  1  0
  2  3  1  0
  3  4  2  0
  4  5  1  0
  5  6  2  0
  6  7  1  0
  7  8  1  0
  8  9  1  0
  9 10  1  0
 10 11  1  0
 11 12  2  0
 11 13  2  0
 11 14  1  0
 14 15  1  0
 15 16  1  0
 16 17  2  0
 16 18  2  0
 16 19  1  0
 19 20  2  0
 20 21  1  0
 21 22  2  0
 22 23  1  0
  6 24  1  0
 24 25  2  0
 25 26  1  0
 26 27  1  0
 25  3  1  0
 15  9  1  0
 23 19  1  0
  1 28  1  0
  1 29  1  0
  1 30  1  0
  4 31  1  0
  5 32  1  0
  7 33  1  0
  7 34  1  0
  8 35  1  0
  9 36  1  6
 10 37  1  0
 10 38  1  0
 14 39  1  0
 14 40  1  0
 15 41  1  1
 20 42  1  0
 21 43  1  0
 22 44  1  0
 24 45  1  0
 27 46  1  0
 27 47  1  0
 27 48  1  0
M  END
$$$$
