
     RDKit          3D

 52 56  0  0  0  0  0  0  0  0999 V2000
    2.0146    1.5788    1.1729 C   0  0  0  0  0  0  0  0  0  0  0  0
    0.7212    1.3150    0.4574 C   0  0  0  0  0  0  0  0  0  0  0  0
   -0.4098    1.7671    1.0651 N   0  0  0  0  0  0  0  0  0  0  0  0
   -1.5887    1.5584    0.4275 C   0  0  0  0  0  0  0  0  0  0  0  0
   -2.7794    2.0660    1.0920 C   0  0  0  0  0  0  0  0  0  0  0  0
   -3.9731    1.9037    0.5123 C   0  0  0  0  0  0  0  0  0  0  0  0
   -4.1193    1.2638   -0.7081 N   0  0  0  0  0  0  0  0  0  0  0  0
   -5.4587    1.1002   -1.2763 C   0  0  0  0  0  0  0  0  0  0  0  0
   -6.1970   -0.0703   -0.6837 C   0  0  0  0  0  0  0  0  0  0  0  0
   -7.1765    0.0979    0.3002 C   0  0  0  0  0  0  0  0  0  0  0  0
   -7.8248   -1.0165    0.8264 C   0  0  0  0  0  0  0  0  0  0  0  0
   -7.4685   -2.2686    0.3528 C   0  0  0  0  0  0  0  0  0  0  0  0
   -6.5262   -2.4722   -0.5914 N   0  0  0  0  0  0  0  0  0  0  0  0
   -5.9115   -1.3724   -1.0865 C   0  0  0  0  0  0  0  0  0  0  0  0
   -3.0304    0.7304   -1.4080 C   0  0  0  0  0  0  0  0  0  0  0  0
   -3.1251    0.1341   -2.4777 O   0  0  0  0  0  0  0  0  0  0  0  0
   -1.6958    0.9053   -0.7941 C   0  0  0  0  0  0  0  0  0  0  0  0
   -0.5388    0.4307   -1.4065 C   0  0  0  0  0  0  0  0  0  0  0  0
    0.6815    0.6354   -0.7629 C   0  0  0  0  0  0  0  0  0  0  0  0
    1.9099    0.1451   -1.3992 C   0  0  0  0  0  0  0  0  0  0  0  0
    2.4824    0.8414   -2.2248 O   0  0  0  0  0  0  0  0  0  0  0  0
    2.3140   -1.0981   -0.9771 N   0  0  0  0  0  0  0  0  0  0  0  0
    3.5922   -1.6473   -1.3678 C   0  0  0  0  0  0  0  0  0  0  0  0
    4.6156   -1.4128   -0.2847 C   0  0  0  0  0  0  0  0  0  0  0  0
    4.9064   -2.4247    0.6598 C   0  0  0  0  0  0  0  0  0  0  0  0
    5.8296   -2.2045    1.6879 C   0  0  0  0  0  0  0  0  0  0  0  0
    6.4346   -0.9684    1.7538 C   0  0  0  0  0  0  0  0  0  0  0  0
    6.1525    0.0249    0.8467 C   0  0  0  0  0  0  0  0  0  0  0  0
    5.2523   -0.1637   -0.1803 C   0  0  0  0  0  0  0  0  0  0  0  0
    6.8477    1.1674    1.0949 O   0  0  0  0  0  0  0  0  0  0  0  0
    7.6093    0.7751    2.2555 C   0  0  0  0  0  0  0  0  0  0  0  0
    7.3460   -0.5778    2.6849 O   0  0  0  0  0  0  0  0  0  0  0  0
    2.4656    0.6388    1.5041 H   0  0  0  0  0  0  0  0  0  0  0  0
    2.7143    2.1117    0.5218 H   0  0  0  0  0  0  0  0  0  0  0  0
    1.8460    2.2005    2.0583 H   0  0  0  0  0  0  0  0  0  0  0  0
   -2.6580    2.5652    2.0455 H   0  0  0  0  0  0  0  0  0  0  0  0
   -4.8760    2.2732    0.9910 H   0  0  0  0  0  0  0  0  0  0  0  0
   -5.3955    0.9720   -2.3645 H   0  0  0  0  0  0  0  0  0  0  0  0
   -6.0211    2.0305   -1.1200 H   0  0  0  0  0  0  0  0  0  0  0  0
   -7.4407    1.0897    0.6586 H   0  0  0  0  0  0  0  0  0  0  0  0
   -8.5890   -0.9121    1.5882 H   0  0  0  0  0  0  0  0  0  0  0  0
   -7.9454   -3.1681    0.7318 H   0  0  0  0  0  0  0  0  0  0  0  0
   -5.1571   -1.5767   -1.8439 H   0  0  0  0  0  0  0  0  0  0  0  0
   -0.5840   -0.0772   -2.3665 H   0  0  0  0  0  0  0  0  0  0  0  0
    1.8176   -1.5554   -0.2237 H   0  0  0  0  0  0  0  0  0  0  0  0
    3.4503   -2.7211   -1.5350 H   0  0  0  0  0  0  0  0  0  0  0  0
    3.9318   -1.2099   -2.3139 H   0  0  0  0  0  0  0  0  0  0  0  0
    4.4109   -3.3924    0.5962 H   0  0  0  0  0  0  0  0  0  0  0  0
    6.0602   -2.9767    2.4137 H   0  0  0  0  0  0  0  0  0  0  0  0
    5.0393    0.6392   -0.8808 H   0  0  0  0  0  0  0  0  0  0  0  0
    7.3684    1.4568    3.0800 H   0  0  0  0  0  0  0  0  0  0  0  0
    8.6763    0.8685    2.0227 H   0  0  0  0  0  0  0  0  0  0  0  0
  1  2  1  0
  2  3  2  0
  3  4  1  0
  4  5  1  0
  5  6  2  0
  6  7  1  0
  7  8  1  0
  8  9  1  0
  9 10  2  0
 10 11  1  0
 11 12  2  0
 12 13  1  0
 13 14  2  0
  7 15  1  0
 15 16  2  0
 15 17  1  0
 17 18  1  0
 18 19  2  0
 19 20  1  0
 20 21  2  0
 20 22  1  0
 22 23  1  0
 23 24  1  0
 24 25  2  0
 25 26  1  0
 26 27  2  0
 27 28  1  0
 28 29  2  0
 28 30  1  0
 30 31  1  0
 31 32  1  0
 19  2  1  0
 29 24  1  0
 17  4  2  0
 32 27  1  0
 14  9  1  0
  1 33  1  0
  1 34  1  0
  1 35  1  0
  5 36  1  0
  6 37  1  0
  8 38  1  0
  8 39  1  0
 10 40  1  0
 11 41  1  0
 12 42  1  0
 14 43  1  0
 18 44  1  0
 22 45  1  0
 23 46  1  0
 23 47  1  0
 25 48  1  0
 26 49  1  0
 29 50  1  0
 31 51  1  0
 31 52  1  0
M  END
$$$$
