
     RDKit          3D

 47 50  0  0  0  0  0  0  0  0999 V2000
   -7.0421    2.7931   -0.6244 C   0  0  0  0  0  0  0  0  0  0  0  0
   -6.5017    1.5455   -1.0334 O   0  0  0  0  0  0  0  0  0  0  0  0
   -5.4090    1.0694   -0.3512 C   0  0  0  0  0  0  0  0  0  0  0  0
   -4.7990    1.7275    0.7218 C   0  0  0  0  0  0  0  0  0  0  0  0
   -3.6885    1.1670    1.3587 C   0  0  0  0  0  0  0  0  0  0  0  0
   -3.1751   -0.0639    0.9377 C   0  0  0  0  0  0  0  0  0  0  0  0
   -1.9663   -0.6680    1.6103 C   0  0  0  0  0  0  0  0  0  0  0  0
   -0.8092   -0.4852    0.7678 N   0  0  0  0  0  0  0  0  0  0  0  0
    0.4375   -0.9621    1.1274 C   0  0  0  0  0  0  0  0  0  0  0  0
    0.5769   -1.9161    2.0052 N   0  0  0  0  0  0  0  0  0  0  0  0
    1.8475   -2.3344    2.2689 C   0  0  0  0  0  0  0  0  0  0  0  0
    2.9543   -1.8468    1.7007 C   0  0  0  0  0  0  0  0  0  0  0  0
    2.9163   -0.8230    0.7649 N   0  0  0  0  0  0  0  0  0  0  0  0
    4.1202   -0.2921    0.1640 C   0  0  0  0  0  0  0  0  0  0  0  0
    4.0974    0.3572   -1.0954 C   0  0  0  0  0  0  0  0  0  0  0  0
    5.2610    0.8651   -1.6927 C   0  0  0  0  0  0  0  0  0  0  0  0
    6.4466    0.7143   -1.0168 C   0  0  0  0  0  0  0  0  0  0  0  0
    6.4961    0.0877    0.2015 C   0  0  0  0  0  0  0  0  0  0  0  0
    5.3651   -0.4222    0.8112 C   0  0  0  0  0  0  0  0  0  0  0  0
    7.7571    0.0438    0.7111 O   0  0  0  0  0  0  0  0  0  0  0  0
    8.4942    0.7162   -0.3322 C   0  0  0  0  0  0  0  0  0  0  0  0
    7.6666    1.1401   -1.4350 O   0  0  0  0  0  0  0  0  0  0  0  0
    1.6543   -0.2895    0.4399 C   0  0  0  0  0  0  0  0  0  0  0  0
    1.3924    0.6702   -0.2825 O   0  0  0  0  0  0  0  0  0  0  0  0
   -3.7817   -0.7202   -0.1459 C   0  0  0  0  0  0  0  0  0  0  0  0
   -4.8933   -0.1657   -0.7920 C   0  0  0  0  0  0  0  0  0  0  0  0
   -5.5426   -0.7465   -1.8537 O   0  0  0  0  0  0  0  0  0  0  0  0
   -5.0212   -1.9679   -2.3566 C   0  0  0  0  0  0  0  0  0  0  0  0
   -7.8950    3.0170   -1.2724 H   0  0  0  0  0  0  0  0  0  0  0  0
   -7.4116    2.7451    0.4052 H   0  0  0  0  0  0  0  0  0  0  0  0
   -6.3118    3.5998   -0.7467 H   0  0  0  0  0  0  0  0  0  0  0  0
   -5.1628    2.6819    1.0872 H   0  0  0  0  0  0  0  0  0  0  0  0
   -3.2286    1.7019    2.1873 H   0  0  0  0  0  0  0  0  0  0  0  0
   -2.1535   -1.7329    1.7944 H   0  0  0  0  0  0  0  0  0  0  0  0
   -1.8014   -0.1956    2.5861 H   0  0  0  0  0  0  0  0  0  0  0  0
   -0.7777    0.3902    0.2463 H   0  0  0  0  0  0  0  0  0  0  0  0
    1.9281   -3.1469    2.9877 H   0  0  0  0  0  0  0  0  0  0  0  0
    3.9119   -2.2870    1.9521 H   0  0  0  0  0  0  0  0  0  0  0  0
    3.1752    0.4561   -1.6628 H   0  0  0  0  0  0  0  0  0  0  0  0
    5.2243    1.3557   -2.6590 H   0  0  0  0  0  0  0  0  0  0  0  0
    5.4742   -0.8700    1.7912 H   0  0  0  0  0  0  0  0  0  0  0  0
    9.2636    0.0345   -0.7126 H   0  0  0  0  0  0  0  0  0  0  0  0
    8.9854    1.5970    0.0973 H   0  0  0  0  0  0  0  0  0  0  0  0
   -3.3575   -1.6669   -0.4676 H   0  0  0  0  0  0  0  0  0  0  0  0
   -3.9976   -1.8404   -2.7241 H   0  0  0  0  0  0  0  0  0  0  0  0
   -5.0770   -2.7607   -1.6035 H   0  0  0  0  0  0  0  0  0  0  0  0
   -5.6422   -2.2725   -3.2046 H   0  0  0  0  0  0  0  0  0  0  0  0
  1  2  1  0
  2  3  1  0
  3  4  2  0
  4  5  1  0
  5  6  2  0
  6  7  1  0
  7  8  1  0
  8  9  1  0
  9 10  2  0
 10 11  1  0
 11 12  2  0
 12 13  1  0
 13 14  1  0
 14 15  2  0
 15 16  1  0
 16 17  2  0
 17 18  1  0
 18 19  2  0
 18 20  1  0
 20 21  1  0
 21 22  1  0
 13 23  1  0
 23 24  2  0
  6 25  1  0
 25 26  2  0
 26 27  1  0
 27 28  1  0
 26  3  1  0
 23  9  1  0
 19 14  1  0
 22 17  1  0
  1 29  1  0
  1 30  1  0
  1 31  1  0
  4 32  1  0
  5 33  1  0
  7 34  1  0
  7 35  1  0
  8 36  1  0
 11 37  1  0
 12 38  1  0
 15 39  1  0
 16 40  1  0
 19 41  1  0
 21 42  1  0
 21 43  1  0
 25 44  1  0
 28 45  1  0
 28 46  1  0
 28 47  1  0
M  END
$$$$
