
     RDKit          3D

 46 48  0  0  0  0  0  0  0  0999 V2000
   -7.2888    1.6560    1.5486 C   0  0  0  0  0  0  0  0  0  0  0  0
   -6.8101    0.4292    1.0153 O   0  0  0  0  0  0  0  0  0  0  0  0
   -5.5051    0.3851    0.5896 C   0  0  0  0  0  0  0  0  0  0  0  0
   -4.6124    1.4618    0.6675 C   0  0  0  0  0  0  0  0  0  0  0  0
   -3.2981    1.3348    0.2124 C   0  0  0  0  0  0  0  0  0  0  0  0
   -2.4398    2.4394    0.3140 N   0  0  0  0  0  0  0  0  0  0  0  0
   -1.2367    2.3069   -0.1321 C   0  0  0  0  0  0  0  0  0  0  0  0
   -0.7257    1.1611   -0.6931 N   0  0  0  0  0  0  0  0  0  0  0  0
    0.6645    1.1252   -1.1387 C   0  0  0  0  0  0  0  0  0  0  0  0
    1.5739    0.4796   -0.0961 C   0  0  0  0  0  0  0  0  0  0  0  0
    3.0239    0.5177   -0.5367 C   0  0  0  0  0  0  0  0  0  0  0  0
    3.3844    1.1769   -1.5048 O   0  0  0  0  0  0  0  0  0  0  0  0
    3.8313   -0.2348    0.2999 N   0  0  0  0  0  0  0  0  0  0  0  0
    5.2275   -0.4158    0.2140 C   0  0  0  0  0  0  0  0  0  0  0  0
    6.0345    0.1726   -0.7631 C   0  0  0  0  0  0  0  0  0  0  0  0
    7.4155   -0.0566   -0.7791 C   0  0  0  0  0  0  0  0  0  0  0  0
    7.9874   -0.8763    0.1859 C   0  0  0  0  0  0  0  0  0  0  0  0
    9.3267   -1.1254    0.2063 O   0  0  0  0  0  0  0  0  0  0  0  0
    7.2025   -1.4693    1.1645 C   0  0  0  0  0  0  0  0  0  0  0  0
    5.8245   -1.2396    1.1784 C   0  0  0  0  0  0  0  0  0  0  0  0
   -1.4911    0.0073   -0.7901 C   0  0  0  0  0  0  0  0  0  0  0  0
   -1.0646   -1.0644   -1.2117 O   0  0  0  0  0  0  0  0  0  0  0  0
   -2.8862    0.1163   -0.3224 C   0  0  0  0  0  0  0  0  0  0  0  0
   -3.7597   -0.9734   -0.4093 C   0  0  0  0  0  0  0  0  0  0  0  0
   -5.0739   -0.8439    0.0456 C   0  0  0  0  0  0  0  0  0  0  0  0
   -6.0091   -1.8479    0.0071 O   0  0  0  0  0  0  0  0  0  0  0  0
   -5.6217   -3.0910   -0.5619 C   0  0  0  0  0  0  0  0  0  0  0  0
   -8.3385    1.5140    1.8233 H   0  0  0  0  0  0  0  0  0  0  0  0
   -7.2463    2.4554    0.8015 H   0  0  0  0  0  0  0  0  0  0  0  0
   -6.7425    1.9315    2.4566 H   0  0  0  0  0  0  0  0  0  0  0  0
   -4.9079    2.4205    1.0803 H   0  0  0  0  0  0  0  0  0  0  0  0
   -0.5309    3.1513   -0.0773 H   0  0  0  0  0  0  0  0  0  0  0  0
    0.7172    0.5645   -2.0802 H   0  0  0  0  0  0  0  0  0  0  0  0
    0.9943    2.1493   -1.3510 H   0  0  0  0  0  0  0  0  0  0  0  0
    1.2790   -0.5623    0.0735 H   0  0  0  0  0  0  0  0  0  0  0  0
    1.4916    1.0123    0.8587 H   0  0  0  0  0  0  0  0  0  0  0  0
    3.3715   -0.7296    1.0547 H   0  0  0  0  0  0  0  0  0  0  0  0
    5.6216    0.8175   -1.5322 H   0  0  0  0  0  0  0  0  0  0  0  0
    8.0178    0.4131   -1.5505 H   0  0  0  0  0  0  0  0  0  0  0  0
    9.7402   -0.6537   -0.5355 H   0  0  0  0  0  0  0  0  0  0  0  0
    7.6599   -2.1090    1.9139 H   0  0  0  0  0  0  0  0  0  0  0  0
    5.2304   -1.7157    1.9537 H   0  0  0  0  0  0  0  0  0  0  0  0
   -3.3893   -1.9013   -0.8325 H   0  0  0  0  0  0  0  0  0  0  0  0
   -4.8164   -3.5555    0.0165 H   0  0  0  0  0  0  0  0  0  0  0  0
   -5.3388   -2.9737   -1.6131 H   0  0  0  0  0  0  0  0  0  0  0  0
   -6.4866   -3.7602   -0.5234 H   0  0  0  0  0  0  0  0  0  0  0  0
  1  2  1  0
  2  3  1  0
  3  4  2  0
  4  5  1  0
  5  6  1  0
  6  7  2  0
  7  8  1  0
  8  9  1  0
  9 10  1  0
 10 11  1  0
 11 12  2  0
 11 13  1  0
 13 14  1  0
 14 15  2  0
 15 16  1  0
 16 17  2  0
 17 18  1  0
 17 19  1  0
 19 20  2  0
  8 21  1  0
 21 22  2  0
 21 23  1  0
 23 24  1  0
 24 25  2  0
 25 26  1  0
 26 27  1  0
 25  3  1  0
 23  5  2  0
 20 14  1  0
  1 28  1  0
  1 29  1  0
  1 30  1  0
  4 31  1  0
  7 32  1  0
  9 33  1  0
  9 34  1  0
 10 35  1  0
 10 36  1  0
 13 37  1  0
 15 38  1  0
 16 39  1  0
 18 40  1  0
 19 41  1  0
 20 42  1  0
 24 43  1  0
 27 44  1  0
 27 45  1  0
 27 46  1  0
M  END
$$$$
