
     RDKit          3D

 39 41  0  0  0  0  0  0  0  0999 V2000
    7.3469   -2.0435   -0.0846 C   0  0  0  0  0  0  0  0  0  0  0  0
    6.0458   -1.5681   -0.6822 C   0  0  0  0  0  0  0  0  0  0  0  0
    5.8043   -1.7375   -1.8715 O   0  0  0  0  0  0  0  0  0  0  0  0
    5.2197   -0.9821    0.2607 N   0  0  0  0  0  0  0  0  0  0  0  0
    3.9340   -0.4411    0.0562 C   0  0  0  0  0  0  0  0  0  0  0  0
    3.2816    0.0990    1.1722 C   0  0  0  0  0  0  0  0  0  0  0  0
    2.0005    0.6562    1.0605 C   0  0  0  0  0  0  0  0  0  0  0  0
    1.3501    0.6732   -0.1764 C   0  0  0  0  0  0  0  0  0  0  0  0
   -0.0108    1.2567   -0.3637 C   0  0  0  0  0  0  0  0  0  0  0  0
   -0.3748    1.5735   -1.4966 O   0  0  0  0  0  0  0  0  0  0  0  0
   -0.8901    1.4923    0.8590 C   0  0  0  0  0  0  0  0  0  0  0  0
   -2.2891    1.3218    0.4928 N   0  0  0  0  0  0  0  0  0  0  0  0
   -3.0139    2.3889    0.0195 C   0  0  0  0  0  0  0  0  0  0  0  0
   -4.2547    2.3415   -0.3322 N   0  0  0  0  0  0  0  0  0  0  0  0
   -4.9059    1.1020   -0.2583 C   0  0  0  0  0  0  0  0  0  0  0  0
   -6.2465    1.0225   -0.6369 C   0  0  0  0  0  0  0  0  0  0  0  0
   -6.9128   -0.1981   -0.5800 C   0  0  0  0  0  0  0  0  0  0  0  0
   -8.2000   -0.2634   -0.9444 F   0  0  0  0  0  0  0  0  0  0  0  0
   -6.2667   -1.3537   -0.1510 C   0  0  0  0  0  0  0  0  0  0  0  0
   -4.9276   -1.2882    0.2300 C   0  0  0  0  0  0  0  0  0  0  0  0
   -4.2575   -0.0592    0.1737 C   0  0  0  0  0  0  0  0  0  0  0  0
   -2.8423    0.0539    0.5748 C   0  0  0  0  0  0  0  0  0  0  0  0
   -2.2254   -0.9356    0.9608 O   0  0  0  0  0  0  0  0  0  0  0  0
    2.0045    0.1437   -1.2944 C   0  0  0  0  0  0  0  0  0  0  0  0
    3.2854   -0.4108   -1.1779 C   0  0  0  0  0  0  0  0  0  0  0  0
    8.1058   -2.1056   -0.8699 H   0  0  0  0  0  0  0  0  0  0  0  0
    7.2015   -3.0316    0.3593 H   0  0  0  0  0  0  0  0  0  0  0  0
    7.7054   -1.3460    0.6779 H   0  0  0  0  0  0  0  0  0  0  0  0
    5.5720   -0.9458    1.2088 H   0  0  0  0  0  0  0  0  0  0  0  0
    3.7618    0.0972    2.1482 H   0  0  0  0  0  0  0  0  0  0  0  0
    1.5484    1.0758    1.9538 H   0  0  0  0  0  0  0  0  0  0  0  0
   -0.6488    0.7866    1.6583 H   0  0  0  0  0  0  0  0  0  0  0  0
   -0.7189    2.5147    1.2118 H   0  0  0  0  0  0  0  0  0  0  0  0
   -2.4568    3.3379   -0.0392 H   0  0  0  0  0  0  0  0  0  0  0  0
   -6.7721    1.9082   -0.9789 H   0  0  0  0  0  0  0  0  0  0  0  0
   -6.8097   -2.2934   -0.1185 H   0  0  0  0  0  0  0  0  0  0  0  0
   -4.4102   -2.1838    0.5658 H   0  0  0  0  0  0  0  0  0  0  0  0
    1.5222    0.1530   -2.2712 H   0  0  0  0  0  0  0  0  0  0  0  0
    3.7446   -0.8109   -2.0771 H   0  0  0  0  0  0  0  0  0  0  0  0
  1  2  1  0
  2  3  2  0
  2  4  1  0
  4  5  1  0
  5  6  2  0
  6  7  1  0
  7  8  2  0
  8  9  1  0
  9 10  2  0
  9 11  1  0
 11 12  1  0
 12 13  1  0
 13 14  2  0
 14 15  1  0
 15 16  2  0
 16 17  1  0
 17 18  1  0
 17 19  2  0
 19 20  1  0
 20 21  2  0
 21 22  1  0
 22 23  2  0
  8 24  1  0
 24 25  2  0
 25  5  1  0
 22 12  1  0
 21 15  1  0
  1 26  1  0
  1 27  1  0
  1 28  1  0
  4 29  1  0
  6 30  1  0
  7 31  1  0
 11 32  1  0
 11 33  1  0
 13 34  1  0
 16 35  1  0
 19 36  1  0
 20 37  1  0
 24 38  1  0
 25 39  1  0
M  END
$$$$
