
     RDKit          3D

 42 44  0  0  0  0  0  0  0  0999 V2000
   -0.3730   -4.9476    1.7745 O   0  0  0  0  0  0  0  0  0  0  0  0
   -0.4273   -3.6918    2.4920 S   0  0  0  0  0  6  0  0  0  0  0  0
   -0.9338   -3.5879    3.8433 O   0  0  0  0  0  0  0  0  0  0  0  0
   -1.2761   -2.5049    1.4780 C   0  0  0  0  0  0  0  0  0  0  0  0
   -0.3410   -1.2946    1.4158 C   0  0  2  0  0  0  0  0  0  0  0  0
   -0.6407   -0.4418    0.2675 N   0  0  0  0  0  0  0  0  0  0  0  0
   -1.7833    0.4583    0.4920 C   0  0  0  0  0  0  0  0  0  0  0  0
   -2.1525    1.1617   -0.7982 C   0  0  0  0  0  0  0  0  0  0  0  0
   -2.0691    2.5471   -0.9079 C   0  0  0  0  0  0  0  0  0  0  0  0
   -2.3918    3.1418   -2.1241 C   0  0  0  0  0  0  0  0  0  0  0  0
   -2.7862    2.3434   -3.1910 C   0  0  0  0  0  0  0  0  0  0  0  0
   -2.8419    0.9735   -2.9989 C   0  0  0  0  0  0  0  0  0  0  0  0
   -2.5343    0.3639   -1.8328 N   0  0  0  0  0  0  0  0  0  0  0  0
    1.0804   -1.8773    1.3279 C   0  0  1  0  0  0  0  0  0  0  0  0
    2.3681   -0.6838    1.5969 S   0  0  0  0  0  6  0  0  0  0  0  0
    2.0409    0.0602    2.7994 O   0  0  0  0  0  0  0  0  0  0  0  0
    3.6336   -1.3876    1.4980 O   0  0  0  0  0  0  0  0  0  0  0  0
    2.3166    0.4408    0.2227 C   0  0  0  0  0  0  0  0  0  0  0  0
    1.9326    1.7721    0.4242 C   0  0  0  0  0  0  0  0  0  0  0  0
    1.8908    2.6440   -0.6640 C   0  0  0  0  0  0  0  0  0  0  0  0
    2.2411    2.1820   -1.9293 C   0  0  0  0  0  0  0  0  0  0  0  0
    2.1982    3.0226   -2.9712 F   0  0  0  0  0  0  0  0  0  0  0  0
    2.6457    0.8649   -2.1291 C   0  0  0  0  0  0  0  0  0  0  0  0
    2.6923   -0.0146   -1.0469 C   0  0  0  0  0  0  0  0  0  0  0  0
    1.1739   -2.9355    2.4258 C   0  0  0  0  0  0  0  0  0  0  0  0
   -1.4230   -2.9621    0.4937 H   0  0  0  0  0  0  0  0  0  0  0  0
   -2.2461   -2.2696    1.9225 H   0  0  0  0  0  0  0  0  0  0  0  0
   -0.4295   -0.7170    2.3457 H   0  0  0  0  0  0  0  0  0  0  0  0
   -0.8647   -0.9789   -0.5789 H   0  0  0  0  0  0  0  0  0  0  0  0
   -2.6649   -0.0996    0.8283 H   0  0  0  0  0  0  0  0  0  0  0  0
   -1.5312    1.1901    1.2677 H   0  0  0  0  0  0  0  0  0  0  0  0
   -1.7493    3.1574   -0.0700 H   0  0  0  0  0  0  0  0  0  0  0  0
   -2.3309    4.2202   -2.2406 H   0  0  0  0  0  0  0  0  0  0  0  0
   -3.0413    2.7784   -4.1508 H   0  0  0  0  0  0  0  0  0  0  0  0
   -3.1437    0.3095   -3.8040 H   0  0  0  0  0  0  0  0  0  0  0  0
    1.2553   -2.3485    0.3526 H   0  0  0  0  0  0  0  0  0  0  0  0
    1.6616    2.1332    1.4134 H   0  0  0  0  0  0  0  0  0  0  0  0
    1.5902    3.6790   -0.5359 H   0  0  0  0  0  0  0  0  0  0  0  0
    2.9264    0.5368   -3.1253 H   0  0  0  0  0  0  0  0  0  0  0  0
    3.0252   -1.0382   -1.2001 H   0  0  0  0  0  0  0  0  0  0  0  0
    1.3741   -2.5050    3.4120 H   0  0  0  0  0  0  0  0  0  0  0  0
    1.9287   -3.6947    2.2053 H   0  0  0  0  0  0  0  0  0  0  0  0
  1  2  2  0
  2  3  2  0
  2  4  1  0
  4  5  1  0
  5  6  1  0
  6  7  1  0
  7  8  1  0
  8  9  2  0
  9 10  1  0
 10 11  2  0
 11 12  1  0
 12 13  2  0
  5 14  1  0
 14 15  1  0
 15 16  2  0
 15 17  2  0
 15 18  1  0
 18 19  2  0
 19 20  1  0
 20 21  2  0
 21 22  1  0
 21 23  1  0
 23 24  2  0
 14 25  1  0
 25  2  1  0
 13  8  1  0
 24 18  1  0
  4 26  1  0
  4 27  1  0
  5 28  1  1
  6 29  1  0
  7 30  1  0
  7 31  1  0
  9 32  1  0
 10 33  1  0
 11 34  1  0
 12 35  1  0
 14 36  1  6
 19 37  1  0
 20 38  1  0
 23 39  1  0
 24 40  1  0
 25 41  1  0
 25 42  1  0
M  END
$$$$
