
     RDKit          3D

 35 37  0  0  0  0  0  0  0  0999 V2000
   -2.6343   -2.5217   -1.2087 C   0  0  0  0  0  0  0  0  0  0  0  0
   -1.6342   -2.0834   -0.1482 C   0  0  0  0  0  0  0  0  0  0  0  0
   -1.1570   -0.7158   -0.3915 N   0  0  0  0  0  0  0  0  0  0  0  0
   -0.0004   -0.5978   -1.2982 C   0  0  0  0  0  0  0  0  0  0  0  0
    1.3218   -0.3666   -0.5671 C   0  0  0  0  0  0  0  0  0  0  0  0
    1.4341   -0.3786    0.7742 C   0  0  0  0  0  0  0  0  0  0  0  0
    2.7460   -0.1442    1.4097 C   0  0  0  0  0  0  0  0  0  0  0  0
    2.8554   -0.1700    2.6323 O   0  0  0  0  0  0  0  0  0  0  0  0
    3.7679    0.0848    0.5245 N   0  0  0  0  0  0  0  0  0  0  0  0
    5.0769    0.3320    0.8769 C   0  0  0  0  0  0  0  0  0  0  0  0
    5.8928    0.5174   -0.1672 C   0  0  0  0  0  0  0  0  0  0  0  0
    5.0357    0.3856   -1.6795 S   0  0  0  0  0  0  0  0  0  0  0  0
    3.5308    0.0701   -0.8289 C   0  0  0  0  0  0  0  0  0  0  0  0
    2.3987   -0.1404   -1.4069 N   0  0  0  0  0  0  0  0  0  0  0  0
   -1.8741    0.4067    0.0195 C   0  0  0  0  0  0  0  0  0  0  0  0
   -3.0913    0.3095    0.7179 C   0  0  0  0  0  0  0  0  0  0  0  0
   -3.8078    1.4368    1.1454 C   0  0  0  0  0  0  0  0  0  0  0  0
   -3.3218    2.7108    0.8907 C   0  0  0  0  0  0  0  0  0  0  0  0
   -2.1204    2.8513    0.2118 C   0  0  0  0  0  0  0  0  0  0  0  0
   -1.4130    1.7170   -0.2114 C   0  0  0  0  0  0  0  0  0  0  0  0
   -2.9560   -3.5509   -1.0207 H   0  0  0  0  0  0  0  0  0  0  0  0
   -2.1914   -2.4832   -2.2093 H   0  0  0  0  0  0  0  0  0  0  0  0
   -3.5243   -1.8854   -1.2159 H   0  0  0  0  0  0  0  0  0  0  0  0
   -2.0566   -2.1912    0.8569 H   0  0  0  0  0  0  0  0  0  0  0  0
   -0.7822   -2.7754   -0.1659 H   0  0  0  0  0  0  0  0  0  0  0  0
   -0.1663    0.1877   -2.0460 H   0  0  0  0  0  0  0  0  0  0  0  0
    0.1071   -1.5218   -1.8826 H   0  0  0  0  0  0  0  0  0  0  0  0
    0.6003   -0.5486    1.4430 H   0  0  0  0  0  0  0  0  0  0  0  0
    5.3557    0.3605    1.9229 H   0  0  0  0  0  0  0  0  0  0  0  0
    6.9529    0.7234   -0.1099 H   0  0  0  0  0  0  0  0  0  0  0  0
   -3.5308   -0.6555    0.9485 H   0  0  0  0  0  0  0  0  0  0  0  0
   -4.7464    1.3088    1.6781 H   0  0  0  0  0  0  0  0  0  0  0  0
   -3.8728    3.5863    1.2209 H   0  0  0  0  0  0  0  0  0  0  0  0
   -1.7219    3.8418    0.0090 H   0  0  0  0  0  0  0  0  0  0  0  0
   -0.4734    1.9002   -0.7242 H   0  0  0  0  0  0  0  0  0  0  0  0
  1  2  1  0
  2  3  1  0
  3  4  1  0
  4  5  1  0
  5  6  2  0
  6  7  1  0
  7  8  2  0
  7  9  1  0
  9 10  1  0
 10 11  2  0
 11 12  1  0
 12 13  1  0
 13 14  2  0
  3 15  1  0
 15 16  2  0
 16 17  1  0
 17 18  2  0
 18 19  1  0
 19 20  2  0
 14  5  1  0
 20 15  1  0
 13  9  1  0
  1 21  1  0
  1 22  1  0
  1 23  1  0
  2 24  1  0
  2 25  1  0
  4 26  1  0
  4 27  1  0
  6 28  1  0
 10 29  1  0
 11 30  1  0
 16 31  1  0
 17 32  1  0
 18 33  1  0
 19 34  1  0
 20 35  1  0
M  END
$$$$
