
     RDKit          3D

 44 46  0  0  0  0  0  0  0  0999 V2000
    3.3171    0.6197   -2.8374 C   0  0  0  0  0  0  0  0  0  0  0  0
    4.0725   -0.6091   -2.3545 C   0  0  0  0  0  0  0  0  0  0  0  0
    3.5136   -1.1339   -1.0563 C   0  0  0  0  0  0  0  0  0  0  0  0
    4.0048   -0.6645    0.1687 C   0  0  0  0  0  0  0  0  0  0  0  0
    3.4678   -1.1284    1.3712 C   0  0  0  0  0  0  0  0  0  0  0  0
    2.4329   -2.0610    1.3583 C   0  0  0  0  0  0  0  0  0  0  0  0
    1.8368   -2.5067    2.5701 N   0  0  0  0  0  0  0  0  0  0  0  0
    0.9858   -1.4049    3.5270 S   0  0  0  0  0  6  0  0  0  0  0  0
    0.2548   -2.2003    4.4925 O   0  0  0  0  0  0  0  0  0  0  0  0
    1.8699   -0.3416    3.9521 O   0  0  0  0  0  0  0  0  0  0  0  0
   -0.2045   -0.7200    2.3961 C   0  0  0  0  0  0  0  0  0  0  0  0
   -1.4436   -1.3376    2.2378 C   0  0  0  0  0  0  0  0  0  0  0  0
   -2.3827   -0.7881    1.3560 C   0  0  0  0  0  0  0  0  0  0  0  0
   -2.1080    0.3828    0.6264 C   0  0  0  0  0  0  0  0  0  0  0  0
   -3.0737    0.9201   -0.2702 N   0  0  0  0  0  0  0  0  0  0  0  0
   -4.3517    0.2897   -0.5103 C   0  0  0  0  0  0  0  0  0  0  0  0
   -4.8752    0.9650   -1.7598 C   0  0  0  0  0  0  0  0  0  0  0  0
   -4.3076    2.3658   -1.6632 C   0  0  0  0  0  0  0  0  0  0  0  0
   -3.0025    2.1587   -0.9304 C   0  0  0  0  0  0  0  0  0  0  0  0
   -2.1110    2.9933   -0.9242 O   0  0  0  0  0  0  0  0  0  0  0  0
   -0.8592    0.9909    0.8209 C   0  0  0  0  0  0  0  0  0  0  0  0
    0.0854    0.4541    1.7047 C   0  0  0  0  0  0  0  0  0  0  0  0
    1.9374   -2.5376    0.1449 C   0  0  0  0  0  0  0  0  0  0  0  0
    2.4737   -2.0728   -1.0580 C   0  0  0  0  0  0  0  0  0  0  0  0
    2.2586    0.3944   -3.0070 H   0  0  0  0  0  0  0  0  0  0  0  0
    3.3739    1.4337   -2.1067 H   0  0  0  0  0  0  0  0  0  0  0  0
    3.7425    0.9793   -3.7796 H   0  0  0  0  0  0  0  0  0  0  0  0
    5.1344   -0.3658   -2.2280 H   0  0  0  0  0  0  0  0  0  0  0  0
    4.0302   -1.3948   -3.1186 H   0  0  0  0  0  0  0  0  0  0  0  0
    4.8068    0.0703    0.1953 H   0  0  0  0  0  0  0  0  0  0  0  0
    3.8655   -0.7548    2.3118 H   0  0  0  0  0  0  0  0  0  0  0  0
    1.4087   -3.4301    2.5787 H   0  0  0  0  0  0  0  0  0  0  0  0
   -1.6940   -2.2361    2.7974 H   0  0  0  0  0  0  0  0  0  0  0  0
   -3.3390   -1.2961    1.2735 H   0  0  0  0  0  0  0  0  0  0  0  0
   -5.0048    0.4811    0.3486 H   0  0  0  0  0  0  0  0  0  0  0  0
   -4.2503   -0.7869   -0.6769 H   0  0  0  0  0  0  0  0  0  0  0  0
   -5.9664    0.9474   -1.8286 H   0  0  0  0  0  0  0  0  0  0  0  0
   -4.4723    0.4659   -2.6501 H   0  0  0  0  0  0  0  0  0  0  0  0
   -4.1375    2.8014   -2.6508 H   0  0  0  0  0  0  0  0  0  0  0  0
   -4.9476    3.0224   -1.0657 H   0  0  0  0  0  0  0  0  0  0  0  0
   -0.5769    1.8960    0.2910 H   0  0  0  0  0  0  0  0  0  0  0  0
    1.0414    0.9576    1.8341 H   0  0  0  0  0  0  0  0  0  0  0  0
    1.1239   -3.2562    0.1183 H   0  0  0  0  0  0  0  0  0  0  0  0
    2.0703   -2.4410   -1.9989 H   0  0  0  0  0  0  0  0  0  0  0  0
  1  2  1  0
  2  3  1  0
  3  4  2  0
  4  5  1  0
  5  6  2  0
  6  7  1  0
  7  8  1  0
  8  9  2  0
  8 10  2  0
  8 11  1  0
 11 12  2  0
 12 13  1  0
 13 14  2  0
 14 15  1  0
 15 16  1  0
 16 17  1  0
 17 18  1  0
 18 19  1  0
 19 20  2  0
 14 21  1  0
 21 22  2  0
  6 23  1  0
 23 24  2  0
 24  3  1  0
 22 11  1  0
 19 15  1  0
  1 25  1  0
  1 26  1  0
  1 27  1  0
  2 28  1  0
  2 29  1  0
  4 30  1  0
  5 31  1  0
  7 32  1  0
 12 33  1  0
 13 34  1  0
 16 35  1  0
 16 36  1  0
 17 37  1  0
 17 38  1  0
 18 39  1  0
 18 40  1  0
 21 41  1  0
 22 42  1  0
 23 43  1  0
 24 44  1  0
M  END
$$$$
