
     RDKit          3D

 49 52  0  0  0  0  0  0  0  0999 V2000
    4.9556    2.9934   -3.4001 C   0  0  0  0  0  0  0  0  0  0  0  0
    5.0380    1.2984   -2.7612 S   0  0  0  0  0  0  0  0  0  0  0  0
    4.0997    1.4825   -1.2520 C   0  0  0  0  0  0  0  0  0  0  0  0
    4.4177    2.4533   -0.3042 C   0  0  0  0  0  0  0  0  0  0  0  0
    3.6566    2.5612    0.8546 C   0  0  0  0  0  0  0  0  0  0  0  0
    2.5834    1.6922    1.0783 C   0  0  0  0  0  0  0  0  0  0  0  0
    2.2539    0.6897    0.1581 C   0  0  0  0  0  0  0  0  0  0  0  0
    1.1688   -0.2054    0.3796 N   0  0  0  0  0  0  0  0  0  0  0  0
    0.2978   -0.2204    1.4989 C   0  0  0  0  0  0  0  0  0  0  0  0
    0.2937    0.5116    2.4749 O   0  0  0  0  0  0  0  0  0  0  0  0
   -0.6312   -1.2632    1.2951 N   0  0  0  0  0  0  0  0  0  0  0  0
   -1.8394   -1.3570    2.1064 C   0  0  0  0  0  0  0  0  0  0  0  0
   -3.0350   -0.7026    1.4564 C   0  0  0  0  0  0  0  0  0  0  0  0
   -4.1007   -1.4773    0.9792 C   0  0  0  0  0  0  0  0  0  0  0  0
   -5.1870   -0.8694    0.3498 C   0  0  0  0  0  0  0  0  0  0  0  0
   -5.2228    0.5167    0.1937 C   0  0  0  0  0  0  0  0  0  0  0  0
   -4.1790    1.3105    0.6802 C   0  0  0  0  0  0  0  0  0  0  0  0
   -4.1994    2.7983    0.4865 C   0  0  0  0  0  0  0  0  0  0  0  0
   -3.0856    0.6926    1.3021 C   0  0  0  0  0  0  0  0  0  0  0  0
   -0.5617   -1.7312   -0.0769 C   0  0  0  0  0  0  0  0  0  0  0  0
   -0.7851   -3.2221   -0.2838 C   0  0  0  0  0  0  0  0  0  0  0  0
    0.7833   -3.8917   -0.7712 S   0  0  0  0  0  6  0  0  0  0  0  0
    0.8187   -3.9409   -2.2188 O   0  0  0  0  0  0  0  0  0  0  0  0
    1.0919   -5.0416    0.0499 O   0  0  0  0  0  0  0  0  0  0  0  0
    1.7646   -2.5183   -0.2514 C   0  0  0  0  0  0  0  0  0  0  0  0
    0.8584   -1.3206   -0.4987 C   0  0  0  0  0  0  0  0  0  0  0  0
    3.0340    0.6011   -1.0088 C   0  0  0  0  0  0  0  0  0  0  0  0
    3.9175    3.3319   -3.4606 H   0  0  0  0  0  0  0  0  0  0  0  0
    5.5265    3.6790   -2.7687 H   0  0  0  0  0  0  0  0  0  0  0  0
    5.3860    3.0153   -4.4057 H   0  0  0  0  0  0  0  0  0  0  0  0
    5.2574    3.1268   -0.4499 H   0  0  0  0  0  0  0  0  0  0  0  0
    3.8948    3.3226    1.5933 H   0  0  0  0  0  0  0  0  0  0  0  0
    2.0271    1.8300    2.0000 H   0  0  0  0  0  0  0  0  0  0  0  0
   -1.6656   -0.8994    3.0875 H   0  0  0  0  0  0  0  0  0  0  0  0
   -2.0342   -2.4200    2.2876 H   0  0  0  0  0  0  0  0  0  0  0  0
   -4.0946   -2.5594    1.0924 H   0  0  0  0  0  0  0  0  0  0  0  0
   -6.0099   -1.4757   -0.0199 H   0  0  0  0  0  0  0  0  0  0  0  0
   -6.0741    0.9756   -0.3056 H   0  0  0  0  0  0  0  0  0  0  0  0
   -3.6875    3.3050    1.3106 H   0  0  0  0  0  0  0  0  0  0  0  0
   -5.2267    3.1774    0.4615 H   0  0  0  0  0  0  0  0  0  0  0  0
   -3.7036    3.0595   -0.4529 H   0  0  0  0  0  0  0  0  0  0  0  0
   -2.2623    1.3038    1.6708 H   0  0  0  0  0  0  0  0  0  0  0  0
   -1.2952   -1.1532   -0.6512 H   0  0  0  0  0  0  0  0  0  0  0  0
   -1.4873   -3.4095   -1.1003 H   0  0  0  0  0  0  0  0  0  0  0  0
   -1.1255   -3.7422    0.6150 H   0  0  0  0  0  0  0  0  0  0  0  0
    2.0047   -2.6551    0.8083 H   0  0  0  0  0  0  0  0  0  0  0  0
    2.6909   -2.4837   -0.8285 H   0  0  0  0  0  0  0  0  0  0  0  0
    0.8478   -1.0224   -1.5528 H   0  0  0  0  0  0  0  0  0  0  0  0
    2.8245   -0.1462   -1.7693 H   0  0  0  0  0  0  0  0  0  0  0  0
  1  2  1  0
  2  3  1  0
  3  4  2  0
  4  5  1  0
  5  6  2  0
  6  7  1  0
  7  8  1  0
  8  9  1  0
  9 10  2  0
  9 11  1  0
 11 12  1  0
 12 13  1  0
 13 14  2  0
 14 15  1  0
 15 16  2  0
 16 17  1  0
 17 18  1  0
 17 19  2  0
 11 20  1  0
 20 21  1  0
 21 22  1  0
 22 23  2  0
 22 24  2  0
 22 25  1  0
 25 26  1  0
  7 27  2  0
 27  3  1  0
 26  8  1  0
 19 13  1  0
 26 20  1  0
  1 28  1  0
  1 29  1  0
  1 30  1  0
  4 31  1  0
  5 32  1  0
  6 33  1  0
 12 34  1  0
 12 35  1  0
 14 36  1  0
 15 37  1  0
 16 38  1  0
 18 39  1  0
 18 40  1  0
 18 41  1  0
 19 42  1  0
 20 43  1  0
 21 44  1  0
 21 45  1  0
 25 46  1  0
 25 47  1  0
 26 48  1  0
 27 49  1  0
M  END
$$$$
