
     RDKit          3D

 58 60  0  0  0  0  0  0  0  0999 V2000
    6.8957    1.2685   -0.3270 C   0  0  0  0  0  0  0  0  0  0  0  0
    6.6271   -0.1153   -0.5226 O   0  0  0  0  0  0  0  0  0  0  0  0
    5.3471   -0.4483   -0.8749 C   0  0  0  0  0  0  0  0  0  0  0  0
    5.1081   -1.8216   -0.9780 C   0  0  0  0  0  0  0  0  0  0  0  0
    3.8435   -2.3000   -1.3223 C   0  0  0  0  0  0  0  0  0  0  0  0
    2.8057   -1.4023   -1.5650 C   0  0  0  0  0  0  0  0  0  0  0  0
    3.0388   -0.0299   -1.4670 C   0  0  0  0  0  0  0  0  0  0  0  0
    1.9574    0.8842   -1.6818 N   0  0  0  0  0  0  0  0  0  0  0  0
    1.3498    1.6599   -0.2965 S   0  0  0  0  0  6  0  0  0  0  0  0
    0.1927    2.4348   -0.6942 O   0  0  0  0  0  0  0  0  0  0  0  0
    2.4283    2.2642    0.4555 O   0  0  0  0  0  0  0  0  0  0  0  0
    0.6748    0.4324    0.7380 C   0  0  0  0  0  0  0  0  0  0  0  0
   -0.4520   -0.3519    0.3589 C   0  0  0  0  0  0  0  0  0  0  0  0
   -1.1426   -0.2721   -0.9252 C   0  0  0  0  0  0  0  0  0  0  0  0
   -0.4978   -0.4126   -1.9651 O   0  0  0  0  0  0  0  0  0  0  0  0
   -2.5132   -0.0273   -0.9154 N   0  0  0  0  0  0  0  0  0  0  0  0
   -3.2273    0.5253    0.2398 C   0  0  0  0  0  0  0  0  0  0  0  0
   -4.2872    1.5371   -0.1864 C   0  0  0  0  0  0  0  0  0  0  0  0
   -5.3264    0.9106   -1.1306 C   0  0  0  0  0  0  0  0  0  0  0  0
   -6.0127    1.9976   -1.9583 C   0  0  0  0  0  0  0  0  0  0  0  0
   -4.7137   -0.1791   -2.0286 C   0  0  0  0  0  0  0  0  0  0  0  0
   -3.2082   -0.0115   -2.1983 C   0  0  0  0  0  0  0  0  0  0  0  0
   -0.6876   -1.2497    1.3944 C   0  0  0  0  0  0  0  0  0  0  0  0
   -1.6804   -2.3595    1.4800 C   0  0  0  0  0  0  0  0  0  0  0  0
    0.2179   -0.9709    2.4017 N   0  0  0  0  0  0  0  0  0  0  0  0
    0.2695   -1.6361    3.6904 C   0  0  0  0  0  0  0  0  0  0  0  0
    1.0953    0.0161    1.9929 C   0  0  0  0  0  0  0  0  0  0  0  0
    2.2535    0.4856    2.8078 C   0  0  0  0  0  0  0  0  0  0  0  0
    4.3074    0.4475   -1.1278 C   0  0  0  0  0  0  0  0  0  0  0  0
    6.7651    1.8312   -1.2573 H   0  0  0  0  0  0  0  0  0  0  0  0
    6.2785    1.6819    0.4773 H   0  0  0  0  0  0  0  0  0  0  0  0
    7.9431    1.3650   -0.0258 H   0  0  0  0  0  0  0  0  0  0  0  0
    5.9167   -2.5232   -0.7856 H   0  0  0  0  0  0  0  0  0  0  0  0
    3.6687   -3.3696   -1.3981 H   0  0  0  0  0  0  0  0  0  0  0  0
    1.8222   -1.7835   -1.8248 H   0  0  0  0  0  0  0  0  0  0  0  0
    1.1562    0.4663   -2.1777 H   0  0  0  0  0  0  0  0  0  0  0  0
   -3.7008   -0.3132    0.7618 H   0  0  0  0  0  0  0  0  0  0  0  0
   -2.5302    1.0081    0.9307 H   0  0  0  0  0  0  0  0  0  0  0  0
   -3.7886    2.3819   -0.6795 H   0  0  0  0  0  0  0  0  0  0  0  0
   -4.7924    1.9441    0.6972 H   0  0  0  0  0  0  0  0  0  0  0  0
   -6.1032    0.4322   -0.5187 H   0  0  0  0  0  0  0  0  0  0  0  0
   -6.8147    1.5709   -2.5696 H   0  0  0  0  0  0  0  0  0  0  0  0
   -5.3043    2.4951   -2.6294 H   0  0  0  0  0  0  0  0  0  0  0  0
   -6.4573    2.7582   -1.3076 H   0  0  0  0  0  0  0  0  0  0  0  0
   -4.9012   -1.1563   -1.5629 H   0  0  0  0  0  0  0  0  0  0  0  0
   -5.2029   -0.2070   -3.0091 H   0  0  0  0  0  0  0  0  0  0  0  0
   -2.8129   -0.8140   -2.8316 H   0  0  0  0  0  0  0  0  0  0  0  0
   -2.9762    0.9394   -2.6934 H   0  0  0  0  0  0  0  0  0  0  0  0
   -2.4680   -2.1137    2.1992 H   0  0  0  0  0  0  0  0  0  0  0  0
   -2.1533   -2.5493    0.5116 H   0  0  0  0  0  0  0  0  0  0  0  0
   -1.1970   -3.2914    1.7913 H   0  0  0  0  0  0  0  0  0  0  0  0
   -0.6625   -2.1726    3.8770 H   0  0  0  0  0  0  0  0  0  0  0  0
    1.1105   -2.3339    3.6791 H   0  0  0  0  0  0  0  0  0  0  0  0
    0.3945   -0.8810    4.4703 H   0  0  0  0  0  0  0  0  0  0  0  0
    2.0828    1.5111    3.1494 H   0  0  0  0  0  0  0  0  0  0  0  0
    2.4347   -0.1358    3.6882 H   0  0  0  0  0  0  0  0  0  0  0  0
    3.1724    0.4630    2.2130 H   0  0  0  0  0  0  0  0  0  0  0  0
    4.4565    1.5202   -1.0664 H   0  0  0  0  0  0  0  0  0  0  0  0
  1  2  1  0
  2  3  1  0
  3  4  2  0
  4  5  1  0
  5  6  2  0
  6  7  1  0
  7  8  1  0
  8  9  1  0
  9 10  2  0
  9 11  2  0
  9 12  1  0
 12 13  1  0
 13 14  1  0
 14 15  2  0
 14 16  1  0
 16 17  1  0
 17 18  1  0
 18 19  1  0
 19 20  1  0
 19 21  1  0
 21 22  1  0
 13 23  2  0
 23 24  1  0
 23 25  1  0
 25 26  1  0
 25 27  1  0
 27 28  1  0
  7 29  2  0
 29  3  1  0
 27 12  2  0
 22 16  1  0
  1 30  1  0
  1 31  1  0
  1 32  1  0
  4 33  1  0
  5 34  1  0
  6 35  1  0
  8 36  1  0
 17 37  1  0
 17 38  1  0
 18 39  1  0
 18 40  1  0
 19 41  1  0
 20 42  1  0
 20 43  1  0
 20 44  1  0
 21 45  1  0
 21 46  1  0
 22 47  1  0
 22 48  1  0
 24 49  1  0
 24 50  1  0
 24 51  1  0
 26 52  1  0
 26 53  1  0
 26 54  1  0
 28 55  1  0
 28 56  1  0
 28 57  1  0
 29 58  1  0
M  END
$$$$
