
     RDKit          3D

 66 68  0  0  0  0  0  0  0  0999 V2000
   -6.5885    2.8331    0.2396 C   0  0  0  0  0  0  0  0  0  0  0  0
   -7.0323    1.3774    0.1825 C   0  0  0  0  0  0  0  0  0  0  0  0
   -5.9746    0.4837   -0.3000 N   0  0  0  0  0  0  0  0  0  0  0  0
   -6.1017   -0.0115   -1.6745 C   0  0  0  0  0  0  0  0  0  0  0  0
   -5.8609    1.0683   -2.7173 C   0  0  0  0  0  0  0  0  0  0  0  0
   -4.9741    0.1336    0.6064 C   0  0  0  0  0  0  0  0  0  0  0  0
   -5.0030    0.5415    1.7717 O   0  0  0  0  0  0  0  0  0  0  0  0
   -3.8103   -0.7452    0.1272 C   0  0  0  0  0  0  0  0  0  0  0  0
   -2.8878    0.0435   -0.8212 C   0  0  0  0  0  0  0  0  0  0  0  0
   -1.4158   -0.3836   -0.7629 C   0  0  0  0  0  0  0  0  0  0  0  0
   -1.2871   -1.8827   -0.4797 C   0  0  0  0  0  0  0  0  0  0  0  0
    0.1323   -2.4495   -0.7225 C   0  0  0  0  0  0  0  0  0  0  0  0
    1.1654   -2.0017    0.2104 N   0  0  0  0  0  0  0  0  0  0  0  0
    1.4587   -2.8441    1.2940 C   0  0  0  0  0  0  0  0  0  0  0  0
    0.8718   -3.9091    1.4882 O   0  0  0  0  0  0  0  0  0  0  0  0
    2.5009   -2.3441    2.1450 C   0  0  0  0  0  0  0  0  0  0  0  0
    3.0297   -3.1516    3.5423 S   0  0  0  0  0  0  0  0  0  0  0  0
    4.2015   -1.9427    3.8526 C   0  0  0  0  0  0  0  0  0  0  0  0
    4.1747   -0.9436    2.9004 C   0  0  0  0  0  0  0  0  0  0  0  0
    3.1738   -1.1759    1.9107 C   0  0  0  0  0  0  0  0  0  0  0  0
    2.8474   -0.3991    0.7997 N   0  0  0  0  0  0  0  0  0  0  0  0
    3.5960    0.8057    0.4493 C   0  0  0  0  0  0  0  0  0  0  0  0
    4.8431    0.4750   -0.3777 C   0  0  0  0  0  0  0  0  0  0  0  0
    5.1571   -0.6621   -0.7196 O   0  0  0  0  0  0  0  0  0  0  0  0
    5.6000    1.5918   -0.6965 N   0  0  0  0  0  0  0  0  0  0  0  0
    6.8729    1.4769   -1.3975 C   0  0  0  0  0  0  0  0  0  0  0  0
    7.1992    2.7863   -2.1096 C   0  0  0  0  0  0  0  0  0  0  0  0
    7.9890    1.0970   -0.4260 C   0  0  0  0  0  0  0  0  0  0  0  0
    1.8649   -0.8274   -0.1014 C   0  0  0  0  0  0  0  0  0  0  0  0
    1.6225   -0.1793   -1.1234 O   0  0  0  0  0  0  0  0  0  0  0  0
   -1.8625   -2.2091    0.9098 C   0  0  0  0  0  0  0  0  0  0  0  0
   -3.0125   -1.2852    1.3244 C   0  0  0  0  0  0  0  0  0  0  0  0
   -5.7391    2.9670    0.9178 H   0  0  0  0  0  0  0  0  0  0  0  0
   -7.4092    3.4640    0.5969 H   0  0  0  0  0  0  0  0  0  0  0  0
   -6.2833    3.1968   -0.7455 H   0  0  0  0  0  0  0  0  0  0  0  0
   -7.3372    1.0538    1.1846 H   0  0  0  0  0  0  0  0  0  0  0  0
   -7.9127    1.2807   -0.4638 H   0  0  0  0  0  0  0  0  0  0  0  0
   -7.1118   -0.4216   -1.7874 H   0  0  0  0  0  0  0  0  0  0  0  0
   -5.4193   -0.8414   -1.8601 H   0  0  0  0  0  0  0  0  0  0  0  0
   -4.8960    1.5616   -2.5665 H   0  0  0  0  0  0  0  0  0  0  0  0
   -6.6399    1.8360   -2.6796 H   0  0  0  0  0  0  0  0  0  0  0  0
   -5.8720    0.6337   -3.7218 H   0  0  0  0  0  0  0  0  0  0  0  0
   -4.2259   -1.6209   -0.3850 H   0  0  0  0  0  0  0  0  0  0  0  0
   -3.2389   -0.0976   -1.8501 H   0  0  0  0  0  0  0  0  0  0  0  0
   -2.9516    1.1216   -0.6288 H   0  0  0  0  0  0  0  0  0  0  0  0
   -0.9416   -0.1246   -1.7165 H   0  0  0  0  0  0  0  0  0  0  0  0
   -0.9018    0.1903    0.0193 H   0  0  0  0  0  0  0  0  0  0  0  0
   -1.9267   -2.3926   -1.2167 H   0  0  0  0  0  0  0  0  0  0  0  0
    0.0736   -3.5446   -0.6971 H   0  0  0  0  0  0  0  0  0  0  0  0
    0.4448   -2.1961   -1.7434 H   0  0  0  0  0  0  0  0  0  0  0  0
    4.8543   -2.0256    4.7112 H   0  0  0  0  0  0  0  0  0  0  0  0
    4.8538   -0.1010    2.9295 H   0  0  0  0  0  0  0  0  0  0  0  0
    3.8916    1.3353    1.3616 H   0  0  0  0  0  0  0  0  0  0  0  0
    2.9672    1.4873   -0.1353 H   0  0  0  0  0  0  0  0  0  0  0  0
    5.3700    2.4796   -0.2676 H   0  0  0  0  0  0  0  0  0  0  0  0
    6.7767    0.6832   -2.1488 H   0  0  0  0  0  0  0  0  0  0  0  0
    7.3060    3.6119   -1.3976 H   0  0  0  0  0  0  0  0  0  0  0  0
    8.1332    2.7024   -2.6755 H   0  0  0  0  0  0  0  0  0  0  0  0
    6.4011    3.0571   -2.8109 H   0  0  0  0  0  0  0  0  0  0  0  0
    8.9504    1.0217   -0.9450 H   0  0  0  0  0  0  0  0  0  0  0  0
    7.7846    0.1304    0.0475 H   0  0  0  0  0  0  0  0  0  0  0  0
    8.0881    1.8387    0.3760 H   0  0  0  0  0  0  0  0  0  0  0  0
   -2.2080   -3.2503    0.9094 H   0  0  0  0  0  0  0  0  0  0  0  0
   -1.1001   -2.1378    1.6913 H   0  0  0  0  0  0  0  0  0  0  0  0
   -2.5978   -0.4428    1.8959 H   0  0  0  0  0  0  0  0  0  0  0  0
   -3.6721   -1.8223    2.0171 H   0  0  0  0  0  0  0  0  0  0  0  0
  1  2  1  0
  2  3  1  0
  3  4  1  0
  4  5  1  0
  3  6  1  0
  6  7  2  0
  6  8  1  0
  8  9  1  0
  9 10  1  0
 10 11  1  0
 11 12  1  0
 12 13  1  0
 13 14  1  0
 14 15  2  0
 14 16  1  0
 16 17  1  0
 17 18  1  0
 18 19  2  0
 19 20  1  0
 20 21  1  0
 21 22  1  0
 22 23  1  0
 23 24  2  0
 23 25  1  0
 25 26  1  0
 26 27  1  0
 26 28  1  0
 21 29  1  0
 29 30  2  0
 11 31  1  0
 31 32  1  0
 32  8  1  0
 29 13  1  0
 20 16  2  0
  1 33  1  0
  1 34  1  0
  1 35  1  0
  2 36  1  0
  2 37  1  0
  4 38  1  0
  4 39  1  0
  5 40  1  0
  5 41  1  0
  5 42  1  0
  8 43  1  0
  9 44  1  0
  9 45  1  0
 10 46  1  0
 10 47  1  0
 11 48  1  0
 12 49  1  0
 12 50  1  0
 18 51  1  0
 19 52  1  0
 22 53  1  0
 22 54  1  0
 25 55  1  0
 26 56  1  0
 27 57  1  0
 27 58  1  0
 27 59  1  0
 28 60  1  0
 28 61  1  0
 28 62  1  0
 31 63  1  0
 31 64  1  0
 32 65  1  0
 32 66  1  0
M  END
$$$$
