
     RDKit          3D

 50 53  0  0  0  0  0  0  0  0999 V2000
   -6.6756   -1.6640   -1.1758 C   0  0  0  0  0  0  0  0  0  0  0  0
   -5.8824   -0.5744   -0.5168 C   0  0  0  0  0  0  0  0  0  0  0  0
   -6.4878    0.6313   -0.1647 C   0  0  0  0  0  0  0  0  0  0  0  0
   -5.7333    1.6510    0.4136 C   0  0  0  0  0  0  0  0  0  0  0  0
   -4.3567    1.4889    0.6466 C   0  0  0  0  0  0  0  0  0  0  0  0
   -3.6016    2.6303    1.2729 C   0  0  0  0  0  0  0  0  0  0  0  0
   -3.7341    0.2729    0.2909 C   0  0  0  0  0  0  0  0  0  0  0  0
   -2.3432    0.1271    0.5080 N   0  0  0  0  0  0  0  0  0  0  0  0
   -1.5925   -1.0262    0.4406 C   0  0  0  0  0  0  0  0  0  0  0  0
   -2.0464   -2.1615    0.3306 O   0  0  0  0  0  0  0  0  0  0  0  0
   -0.2142   -0.8085    0.5360 N   0  0  0  0  0  0  0  0  0  0  0  0
    0.4414    0.4831    0.3233 C   0  0  0  0  0  0  0  0  0  0  0  0
    1.8132    0.3207   -0.3143 C   0  0  0  0  0  0  0  0  0  0  0  0
    2.7457   -0.5690    0.5392 C   0  0  0  0  0  0  0  0  0  0  0  0
    1.9611   -1.6356    1.3270 C   0  0  0  0  0  0  0  0  0  0  0  0
    0.6520   -1.9829    0.6341 C   0  0  0  0  0  0  0  0  0  0  0  0
    3.5287    0.2153    1.4777 N   0  0  0  0  0  0  0  0  0  0  0  0
    4.5982    0.9602    1.0677 C   0  0  0  0  0  0  0  0  0  0  0  0
    5.0243    1.8967    1.7286 O   0  0  0  0  0  0  0  0  0  0  0  0
    5.1982    0.5443   -0.2074 C   0  0  0  0  0  0  0  0  0  0  0  0
    6.2872    1.2316   -0.7492 C   0  0  0  0  0  0  0  0  0  0  0  0
    6.8629    0.7785   -1.9366 C   0  0  0  0  0  0  0  0  0  0  0  0
    6.3563   -0.3596   -2.5682 C   0  0  0  0  0  0  0  0  0  0  0  0
    5.2690   -1.0433   -2.0188 C   0  0  0  0  0  0  0  0  0  0  0  0
    4.6806   -0.5810   -0.8431 C   0  0  0  0  0  0  0  0  0  0  0  0
    3.6207   -1.2931   -0.3540 O   0  0  0  0  0  0  0  0  0  0  0  0
   -4.5055   -0.7366   -0.3007 C   0  0  0  0  0  0  0  0  0  0  0  0
   -6.2994   -2.6504   -0.8847 H   0  0  0  0  0  0  0  0  0  0  0  0
   -7.7284   -1.6179   -0.8777 H   0  0  0  0  0  0  0  0  0  0  0  0
   -6.6129   -1.5665   -2.2640 H   0  0  0  0  0  0  0  0  0  0  0  0
   -7.5501    0.7861   -0.3392 H   0  0  0  0  0  0  0  0  0  0  0  0
   -6.2316    2.5807    0.6806 H   0  0  0  0  0  0  0  0  0  0  0  0
   -3.1651    2.3187    2.2273 H   0  0  0  0  0  0  0  0  0  0  0  0
   -4.2549    3.4857    1.4756 H   0  0  0  0  0  0  0  0  0  0  0  0
   -2.8095    2.9762    0.6009 H   0  0  0  0  0  0  0  0  0  0  0  0
   -1.8831    0.9004    0.9555 H   0  0  0  0  0  0  0  0  0  0  0  0
   -0.1795    1.1154   -0.3199 H   0  0  0  0  0  0  0  0  0  0  0  0
    0.5230    0.9730    1.3004 H   0  0  0  0  0  0  0  0  0  0  0  0
    2.2536    1.3104   -0.4852 H   0  0  0  0  0  0  0  0  0  0  0  0
    1.6855   -0.1264   -1.3100 H   0  0  0  0  0  0  0  0  0  0  0  0
    1.7235   -1.2710    2.3358 H   0  0  0  0  0  0  0  0  0  0  0  0
    2.5623   -2.5447    1.4511 H   0  0  0  0  0  0  0  0  0  0  0  0
    0.8269   -2.3594   -0.3809 H   0  0  0  0  0  0  0  0  0  0  0  0
    0.1388   -2.7732    1.1934 H   0  0  0  0  0  0  0  0  0  0  0  0
    3.0865    0.5757    2.3133 H   0  0  0  0  0  0  0  0  0  0  0  0
    6.6914    2.1057   -0.2438 H   0  0  0  0  0  0  0  0  0  0  0  0
    7.7131    1.3052   -2.3637 H   0  0  0  0  0  0  0  0  0  0  0  0
    6.8125   -0.7178   -3.4883 H   0  0  0  0  0  0  0  0  0  0  0  0
    4.8805   -1.9312   -2.5106 H   0  0  0  0  0  0  0  0  0  0  0  0
   -4.0493   -1.6709   -0.6162 H   0  0  0  0  0  0  0  0  0  0  0  0
  1  2  1  0
  2  3  2  0
  3  4  1  0
  4  5  2  0
  5  6  1  0
  5  7  1  0
  7  8  1  0
  8  9  1  0
  9 10  2  0
  9 11  1  0
 11 12  1  0
 12 13  1  0
 13 14  1  0
 14 15  1  0
 15 16  1  0
 14 17  1  0
 17 18  1  0
 18 19  2  0
 18 20  1  0
 20 21  2  0
 21 22  1  0
 22 23  2  0
 23 24  1  0
 24 25  2  0
 25 26  1  0
  7 27  2  0
 27  2  1  0
 16 11  1  0
 25 20  1  0
 26 14  1  0
  1 28  1  0
  1 29  1  0
  1 30  1  0
  3 31  1  0
  4 32  1  0
  6 33  1  0
  6 34  1  0
  6 35  1  0
  8 36  1  0
 12 37  1  0
 12 38  1  0
 13 39  1  0
 13 40  1  0
 15 41  1  0
 15 42  1  0
 16 43  1  0
 16 44  1  0
 17 45  1  0
 21 46  1  0
 22 47  1  0
 23 48  1  0
 24 49  1  0
 27 50  1  0
M  END
$$$$
