
     RDKit          3D

 53 55  0  0  0  0  0  0  0  0999 V2000
    8.5369   -0.3649   -1.8162 C   0  0  0  0  0  0  0  0  0  0  0  0
    7.1882    0.2330   -1.5032 C   0  0  0  0  0  0  0  0  0  0  0  0
    6.8584    1.3218   -1.9580 O   0  0  0  0  0  0  0  0  0  0  0  0
    6.4385   -0.5879   -0.6793 N   0  0  0  0  0  0  0  0  0  0  0  0
    5.1464   -0.3443   -0.1717 C   0  0  0  0  0  0  0  0  0  0  0  0
    4.5681   -1.3524    0.6129 C   0  0  0  0  0  0  0  0  0  0  0  0
    3.2879   -1.1956    1.1503 C   0  0  0  0  0  0  0  0  0  0  0  0
    2.5764   -0.0238    0.8928 C   0  0  0  0  0  0  0  0  0  0  0  0
    0.9463    0.1879    1.5588 S   0  0  0  0  0  6  0  0  0  0  0  0
    0.7287   -0.8469    2.5465 O   0  0  0  0  0  0  0  0  0  0  0  0
    0.8362    1.5824    1.9456 O   0  0  0  0  0  0  0  0  0  0  0  0
   -0.1798   -0.0590    0.1934 C   0  0  1  0  0  0  0  0  0  0  0  0
    0.1511   -1.2244   -0.7212 C   0  0  0  0  0  0  0  0  0  0  0  0
   -0.5547   -2.6533    0.0542 S   0  0  0  0  0  6  0  0  0  0  0  0
   -1.2676   -3.4117   -0.9523 O   0  0  0  0  0  0  0  0  0  0  0  0
    0.4764   -3.2626    0.8674 O   0  0  0  0  0  0  0  0  0  0  0  0
   -1.7207   -1.7914    1.0933 C   0  0  0  0  0  0  0  0  0  0  0  0
   -1.6145   -0.2957    0.7221 C   0  0  2  0  0  0  0  0  0  0  0  0
   -2.5936    0.0677   -0.3266 N   0  0  0  0  0  0  0  0  0  0  0  0
   -3.9817    0.1811    0.1659 C   0  0  0  0  0  0  0  0  0  0  0  0
   -4.2613    1.5435    0.8370 C   0  0  0  0  0  0  0  0  0  0  0  0
   -4.8634    2.5575   -0.1288 C   0  0  0  0  0  0  0  0  0  0  0  0
   -6.1975    2.0702   -0.6985 C   0  0  0  0  0  0  0  0  0  0  0  0
   -6.2842    0.5479   -0.8272 C   0  0  0  0  0  0  0  0  0  0  0  0
   -4.9085   -0.0708   -1.0410 C   0  0  0  0  0  0  0  0  0  0  0  0
    3.1455    1.0002    0.1354 C   0  0  0  0  0  0  0  0  0  0  0  0
    4.4272    0.8328   -0.3993 C   0  0  0  0  0  0  0  0  0  0  0  0
    9.1243   -0.4535   -0.8982 H   0  0  0  0  0  0  0  0  0  0  0  0
    8.4127   -1.3495   -2.2756 H   0  0  0  0  0  0  0  0  0  0  0  0
    9.0721    0.2823   -2.5169 H   0  0  0  0  0  0  0  0  0  0  0  0
    6.8592   -1.4717   -0.4190 H   0  0  0  0  0  0  0  0  0  0  0  0
    5.1035   -2.2767    0.8177 H   0  0  0  0  0  0  0  0  0  0  0  0
    2.8600   -1.9933    1.7564 H   0  0  0  0  0  0  0  0  0  0  0  0
   -0.1146    0.8761   -0.3781 H   0  0  0  0  0  0  0  0  0  0  0  0
    1.2112   -1.3971   -0.9034 H   0  0  0  0  0  0  0  0  0  0  0  0
   -0.3504   -1.1053   -1.6877 H   0  0  0  0  0  0  0  0  0  0  0  0
   -1.4436   -1.9672    2.1355 H   0  0  0  0  0  0  0  0  0  0  0  0
   -2.7106   -2.2238    0.9290 H   0  0  0  0  0  0  0  0  0  0  0  0
   -1.8012    0.3195    1.6094 H   0  0  0  0  0  0  0  0  0  0  0  0
   -2.3499    0.9636   -0.7571 H   0  0  0  0  0  0  0  0  0  0  0  0
   -4.1845   -0.6013    0.9067 H   0  0  0  0  0  0  0  0  0  0  0  0
   -3.3553    1.9607    1.2911 H   0  0  0  0  0  0  0  0  0  0  0  0
   -4.9635    1.3881    1.6669 H   0  0  0  0  0  0  0  0  0  0  0  0
   -4.1590    2.7407   -0.9495 H   0  0  0  0  0  0  0  0  0  0  0  0
   -5.0108    3.5197    0.3748 H   0  0  0  0  0  0  0  0  0  0  0  0
   -6.3505    2.5361   -1.6794 H   0  0  0  0  0  0  0  0  0  0  0  0
   -7.0224    2.4166   -0.0642 H   0  0  0  0  0  0  0  0  0  0  0  0
   -6.7331    0.1281    0.0818 H   0  0  0  0  0  0  0  0  0  0  0  0
   -6.9527    0.2867   -1.6553 H   0  0  0  0  0  0  0  0  0  0  0  0
   -4.4796    0.3470   -1.9622 H   0  0  0  0  0  0  0  0  0  0  0  0
   -5.0043   -1.1508   -1.2082 H   0  0  0  0  0  0  0  0  0  0  0  0
    2.6155    1.9343   -0.0388 H   0  0  0  0  0  0  0  0  0  0  0  0
    4.8429    1.6496   -0.9824 H   0  0  0  0  0  0  0  0  0  0  0  0
  1  2  1  0
  2  3  2  0
  2  4  1  0
  4  5  1  0
  5  6  2  0
  6  7  1  0
  7  8  2  0
  8  9  1  0
  9 10  2  0
  9 11  2  0
  9 12  1  0
 12 13  1  0
 13 14  1  0
 14 15  2  0
 14 16  2  0
 14 17  1  0
 17 18  1  0
 18 19  1  0
 19 20  1  0
 20 21  1  0
 21 22  1  0
 22 23  1  0
 23 24  1  0
 24 25  1  0
  8 26  1  0
 26 27  2  0
 27  5  1  0
 18 12  1  0
 25 20  1  0
  1 28  1  0
  1 29  1  0
  1 30  1  0
  4 31  1  0
  6 32  1  0
  7 33  1  0
 12 34  1  6
 13 35  1  0
 13 36  1  0
 17 37  1  0
 17 38  1  0
 18 39  1  1
 19 40  1  0
 20 41  1  0
 21 42  1  0
 21 43  1  0
 22 44  1  0
 22 45  1  0
 23 46  1  0
 23 47  1  0
 24 48  1  0
 24 49  1  0
 25 50  1  0
 25 51  1  0
 26 52  1  0
 27 53  1  0
M  END
$$$$
