
     RDKit          3D

 44 45  0  0  0  0  0  0  0  0999 V2000
   -5.0137   -1.8166   -0.7482 C   0  0  0  0  0  0  0  0  0  0  0  0
   -4.8938   -1.7357    0.7671 C   0  0  0  0  0  0  0  0  0  0  0  0
   -4.9154   -0.2965    1.2822 C   0  0  0  0  0  0  0  0  0  0  0  0
   -3.7815    0.4885    0.8333 N   0  0  0  0  0  0  0  0  0  0  0  0
   -2.5456    0.3192    1.4075 C   0  0  0  0  0  0  0  0  0  0  0  0
   -2.2793   -0.5228    2.2523 O   0  0  0  0  0  0  0  0  0  0  0  0
   -1.6447    1.2172    0.9015 N   0  0  0  0  0  0  0  0  0  0  0  0
   -0.2662    1.1527    1.3178 C   0  0  0  0  0  0  0  0  0  0  0  0
    0.5081    2.0926    0.4612 C   0  0  0  0  0  0  0  0  0  0  0  0
    0.7578    3.4404    0.6578 C   0  0  0  0  0  0  0  0  0  0  0  0
    1.5252    3.9075   -0.4315 C   0  0  0  0  0  0  0  0  0  0  0  0
    1.7281    2.8389   -1.2735 C   0  0  0  0  0  0  0  0  0  0  0  0
    1.1290    1.7308   -0.7194 N   0  0  0  0  0  0  0  0  0  0  0  0
    1.1031    0.4157   -1.3612 C   0  0  0  0  0  0  0  0  0  0  0  0
    2.1033   -0.5470   -0.7692 C   0  0  0  0  0  0  0  0  0  0  0  0
    1.6760   -1.7844   -0.2665 C   0  0  0  0  0  0  0  0  0  0  0  0
    2.5949   -2.6945    0.2560 C   0  0  0  0  0  0  0  0  0  0  0  0
    3.9531   -2.3827    0.2794 C   0  0  0  0  0  0  0  0  0  0  0  0
    4.4040   -1.1541   -0.2123 C   0  0  0  0  0  0  0  0  0  0  0  0
    5.8672   -0.8227   -0.2171 C   0  0  0  0  0  0  0  0  0  0  0  0
    3.4758   -0.2504   -0.7484 C   0  0  0  0  0  0  0  0  0  0  0  0
   -5.0432   -2.8635   -1.0696 H   0  0  0  0  0  0  0  0  0  0  0  0
   -4.1613   -1.3377   -1.2412 H   0  0  0  0  0  0  0  0  0  0  0  0
   -5.9316   -1.3305   -1.0951 H   0  0  0  0  0  0  0  0  0  0  0  0
   -3.9758   -2.2455    1.0800 H   0  0  0  0  0  0  0  0  0  0  0  0
   -5.7324   -2.2818    1.2149 H   0  0  0  0  0  0  0  0  0  0  0  0
   -4.9279   -0.2915    2.3784 H   0  0  0  0  0  0  0  0  0  0  0  0
   -5.8208    0.2144    0.9348 H   0  0  0  0  0  0  0  0  0  0  0  0
   -3.9744    1.4454    0.5763 H   0  0  0  0  0  0  0  0  0  0  0  0
   -1.8282    1.5338   -0.0374 H   0  0  0  0  0  0  0  0  0  0  0  0
    0.0907    0.1221    1.2468 H   0  0  0  0  0  0  0  0  0  0  0  0
   -0.2139    1.4459    2.3725 H   0  0  0  0  0  0  0  0  0  0  0  0
    0.4124    4.0238    1.5024 H   0  0  0  0  0  0  0  0  0  0  0  0
    1.8868    4.9153   -0.5883 H   0  0  0  0  0  0  0  0  0  0  0  0
    2.2587    2.7756   -2.2154 H   0  0  0  0  0  0  0  0  0  0  0  0
    1.3117    0.5540   -2.4286 H   0  0  0  0  0  0  0  0  0  0  0  0
    0.0768    0.0399   -1.2811 H   0  0  0  0  0  0  0  0  0  0  0  0
    0.6207   -2.0507   -0.2714 H   0  0  0  0  0  0  0  0  0  0  0  0
    2.2510   -3.6490    0.6460 H   0  0  0  0  0  0  0  0  0  0  0  0
    4.6569   -3.1045    0.6870 H   0  0  0  0  0  0  0  0  0  0  0  0
    6.4077   -1.4109    0.5311 H   0  0  0  0  0  0  0  0  0  0  0  0
    6.0246    0.2339    0.0239 H   0  0  0  0  0  0  0  0  0  0  0  0
    6.2952   -1.0325   -1.2021 H   0  0  0  0  0  0  0  0  0  0  0  0
    3.8307    0.6982   -1.1474 H   0  0  0  0  0  0  0  0  0  0  0  0
  1  2  1  0
  2  3  1  0
  3  4  1  0
  4  5  1  0
  5  6  2  0
  5  7  1  0
  7  8  1  0
  8  9  1  0
  9 10  2  0
 10 11  1  0
 11 12  2  0
 12 13  1  0
 13 14  1  0
 14 15  1  0
 15 16  2  0
 16 17  1  0
 17 18  2  0
 18 19  1  0
 19 20  1  0
 19 21  2  0
 13  9  1  0
 21 15  1  0
  1 22  1  0
  1 23  1  0
  1 24  1  0
  2 25  1  0
  2 26  1  0
  3 27  1  0
  3 28  1  0
  4 29  1  0
  7 30  1  0
  8 31  1  0
  8 32  1  0
 10 33  1  0
 11 34  1  0
 12 35  1  0
 14 36  1  0
 14 37  1  0
 16 38  1  0
 17 39  1  0
 18 40  1  0
 20 41  1  0
 20 42  1  0
 20 43  1  0
 21 44  1  0
M  END
$$$$
