
     RDKit          3D

 41 43  0  0  0  0  0  0  0  0999 V2000
   -6.5301   -1.8304    0.1923 C   0  0  0  0  0  0  0  0  0  0  0  0
   -7.4627   -0.9463    1.0002 C   0  0  0  0  0  0  0  0  0  0  0  0
   -7.1719    0.5523    0.8809 C   0  0  0  0  0  0  0  0  0  0  0  0
   -5.8543    0.9805    1.5341 C   0  0  0  0  0  0  0  0  0  0  0  0
   -4.6380    0.8971    0.6223 C   0  0  0  0  0  0  0  0  0  0  0  0
   -4.7287    0.7085   -0.5841 O   0  0  0  0  0  0  0  0  0  0  0  0
   -3.4725    1.1060    1.3316 N   0  0  0  0  0  0  0  0  0  0  0  0
   -2.2424    1.0456    0.7368 C   0  0  0  0  0  0  0  0  0  0  0  0
   -1.9021    0.7319   -0.4866 N   0  0  0  0  0  0  0  0  0  0  0  0
   -0.5321    0.7944   -0.6674 N   0  0  0  0  0  0  0  0  0  0  0  0
    0.0953    1.1201    0.4393 C   0  0  0  0  0  0  0  0  0  0  0  0
    1.8332    1.2366    0.5331 S   0  0  0  0  0  0  0  0  0  0  0  0
    2.2937    0.4010   -1.0186 C   0  0  0  0  0  0  0  0  0  0  0  0
    3.8009    0.2798   -1.1264 C   0  0  0  0  0  0  0  0  0  0  0  0
    4.4741    0.9611   -2.0718 C   0  0  0  0  0  0  0  0  0  0  0  0
    5.9426    0.8105   -2.1861 C   0  0  0  0  0  0  0  0  0  0  0  0
    6.5420    1.3928   -3.0801 O   0  0  0  0  0  0  0  0  0  0  0  0
    6.4844   -0.0245   -1.2326 N   0  0  0  0  0  0  0  0  0  0  0  0
    7.8378   -0.2581   -1.1550 N   0  0  0  0  0  0  0  0  0  0  0  0
    8.0619   -1.0635   -0.1667 C   0  0  0  0  0  0  0  0  0  0  0  0
    9.4205   -1.5510    0.2112 C   0  0  0  0  0  0  0  0  0  0  0  0
    6.6760   -1.6496    0.7214 S   0  0  0  0  0  0  0  0  0  0  0  0
    5.6934   -0.6744   -0.3192 C   0  0  0  0  0  0  0  0  0  0  0  0
    4.4085   -0.5829   -0.2299 N   0  0  0  0  0  0  0  0  0  0  0  0
   -0.9398    1.4221    1.7739 S   0  0  0  0  0  0  0  0  0  0  0  0
   -6.5155   -1.5228   -0.8577 H   0  0  0  0  0  0  0  0  0  0  0  0
   -5.5092   -1.8095    0.5838 H   0  0  0  0  0  0  0  0  0  0  0  0
   -6.8687   -2.8709    0.2312 H   0  0  0  0  0  0  0  0  0  0  0  0
   -7.4243   -1.2479    2.0496 H   0  0  0  0  0  0  0  0  0  0  0  0
   -8.4904   -1.1203    0.6567 H   0  0  0  0  0  0  0  0  0  0  0  0
   -7.9847    1.0787    1.3975 H   0  0  0  0  0  0  0  0  0  0  0  0
   -7.2241    0.8665   -0.1684 H   0  0  0  0  0  0  0  0  0  0  0  0
   -5.6669    0.3901    2.4372 H   0  0  0  0  0  0  0  0  0  0  0  0
   -5.9419    2.0270    1.8357 H   0  0  0  0  0  0  0  0  0  0  0  0
   -3.4983    1.3619    2.3077 H   0  0  0  0  0  0  0  0  0  0  0  0
    1.8441   -0.5977   -1.0626 H   0  0  0  0  0  0  0  0  0  0  0  0
    1.8955    0.9824   -1.8593 H   0  0  0  0  0  0  0  0  0  0  0  0
    4.0020    1.6302   -2.7817 H   0  0  0  0  0  0  0  0  0  0  0  0
    9.6189   -2.4940   -0.3029 H   0  0  0  0  0  0  0  0  0  0  0  0
    9.4960   -1.7177    1.2911 H   0  0  0  0  0  0  0  0  0  0  0  0
   10.1780   -0.8154   -0.0900 H   0  0  0  0  0  0  0  0  0  0  0  0
  1  2  1  0
  2  3  1  0
  3  4  1  0
  4  5  1  0
  5  6  2  0
  5  7  1  0
  7  8  1  0
  8  9  2  0
  9 10  1  0
 10 11  2  0
 11 12  1  0
 12 13  1  0
 13 14  1  0
 14 15  2  0
 15 16  1  0
 16 17  2  0
 16 18  1  0
 18 19  1  0
 19 20  2  0
 20 21  1  0
 20 22  1  0
 22 23  1  0
 23 24  2  0
 11 25  1  0
 25  8  1  0
 24 14  1  0
 23 18  1  0
  1 26  1  0
  1 27  1  0
  1 28  1  0
  2 29  1  0
  2 30  1  0
  3 31  1  0
  3 32  1  0
  4 33  1  0
  4 34  1  0
  7 35  1  0
 13 36  1  0
 13 37  1  0
 15 38  1  0
 21 39  1  0
 21 40  1  0
 21 41  1  0
M  END
$$$$
