
     RDKit          3D

 46 48  0  0  0  0  0  0  0  0999 V2000
    2.9833   -1.9957   -1.1613 O   0  0  0  0  0  0  0  0  0  0  0  0
    3.0041   -1.1455   -0.2652 C   0  0  0  0  0  0  0  0  0  0  0  0
    2.1341   -1.3175    0.9782 C   0  0  0  0  0  0  0  0  0  0  0  0
    0.6787   -1.2568    0.7026 N   0  0  0  0  0  0  0  0  0  0  0  0
    0.1277   -2.4618    0.0456 C   0  0  0  0  0  0  0  0  0  0  0  0
   -0.7346   -2.1368   -1.1607 C   0  0  0  0  0  0  0  0  0  0  0  0
   -1.8950   -1.2180   -0.8004 C   0  0  0  0  0  0  0  0  0  0  0  0
   -1.5191   -0.1187    0.1262 N   0  0  0  0  0  0  0  0  0  0  0  0
   -2.3860    1.0797   -0.0205 C   0  0  0  0  0  0  0  0  0  0  0  0
   -3.8004    0.8344    0.4446 C   0  0  0  0  0  0  0  0  0  0  0  0
   -4.0570    0.3888    1.7504 C   0  0  0  0  0  0  0  0  0  0  0  0
   -5.3687    0.1755    2.1812 C   0  0  0  0  0  0  0  0  0  0  0  0
   -6.4369    0.4088    1.3150 C   0  0  0  0  0  0  0  0  0  0  0  0
   -6.1931    0.8564    0.0177 C   0  0  0  0  0  0  0  0  0  0  0  0
   -4.8834    1.0669   -0.4052 C   0  0  0  0  0  0  0  0  0  0  0  0
   -4.6726    1.4962   -1.6576 F   0  0  0  0  0  0  0  0  0  0  0  0
    0.1137    0.2475    0.2334 S   0  0  0  0  0  6  0  0  0  0  0  0
    0.5943    0.5688   -1.0876 O   0  0  0  0  0  0  0  0  0  0  0  0
    0.3216    1.1574    1.3355 O   0  0  0  0  0  0  0  0  0  0  0  0
    3.8157   -0.0363   -0.3483 N   0  0  0  0  0  0  0  0  0  0  0  0
    4.6417    0.1923   -1.5208 C   0  0  0  0  0  0  0  0  0  0  0  0
    5.5487    1.3468   -1.1248 C   0  0  0  0  0  0  0  0  0  0  0  0
    4.6686    2.1553   -0.1816 C   0  0  0  0  0  0  0  0  0  0  0  0
    3.9018    1.0819    0.5796 C   0  0  0  0  0  0  0  0  0  0  0  0
    2.3854   -0.5984    1.7618 H   0  0  0  0  0  0  0  0  0  0  0  0
    2.3792   -2.2956    1.4116 H   0  0  0  0  0  0  0  0  0  0  0  0
    0.9202   -3.1513   -0.2611 H   0  0  0  0  0  0  0  0  0  0  0  0
   -0.4748   -2.9934    0.7924 H   0  0  0  0  0  0  0  0  0  0  0  0
   -0.1217   -1.6828   -1.9481 H   0  0  0  0  0  0  0  0  0  0  0  0
   -1.1326   -3.0641   -1.5901 H   0  0  0  0  0  0  0  0  0  0  0  0
   -2.3318   -0.8223   -1.7244 H   0  0  0  0  0  0  0  0  0  0  0  0
   -2.6680   -1.8148   -0.3007 H   0  0  0  0  0  0  0  0  0  0  0  0
   -2.0011    1.9117    0.5815 H   0  0  0  0  0  0  0  0  0  0  0  0
   -2.3658    1.4146   -1.0648 H   0  0  0  0  0  0  0  0  0  0  0  0
   -3.2291    0.2041    2.4335 H   0  0  0  0  0  0  0  0  0  0  0  0
   -5.5556   -0.1718    3.1947 H   0  0  0  0  0  0  0  0  0  0  0  0
   -7.4572    0.2436    1.6518 H   0  0  0  0  0  0  0  0  0  0  0  0
   -7.0144    1.0444   -0.6666 H   0  0  0  0  0  0  0  0  0  0  0  0
    5.1968   -0.7103   -1.7937 H   0  0  0  0  0  0  0  0  0  0  0  0
    3.9807    0.4686   -2.3500 H   0  0  0  0  0  0  0  0  0  0  0  0
    6.4240    0.9696   -0.5825 H   0  0  0  0  0  0  0  0  0  0  0  0
    5.8985    1.9234   -1.9853 H   0  0  0  0  0  0  0  0  0  0  0  0
    5.2385    2.8146    0.4786 H   0  0  0  0  0  0  0  0  0  0  0  0
    3.9718    2.7709   -0.7635 H   0  0  0  0  0  0  0  0  0  0  0  0
    4.4564    0.7426    1.4608 H   0  0  0  0  0  0  0  0  0  0  0  0
    2.9135    1.4268    0.8863 H   0  0  0  0  0  0  0  0  0  0  0  0
  1  2  2  0
  2  3  1  0
  3  4  1  0
  4  5  1  0
  5  6  1  0
  6  7  1  0
  7  8  1  0
  8  9  1  0
  9 10  1  0
 10 11  2  0
 11 12  1  0
 12 13  2  0
 13 14  1  0
 14 15  2  0
 15 16  1  0
  8 17  1  0
 17 18  2  0
 17 19  2  0
  2 20  1  0
 20 21  1  0
 21 22  1  0
 22 23  1  0
 23 24  1  0
 17  4  1  0
 24 20  1  0
 15 10  1  0
  3 25  1  0
  3 26  1  0
  5 27  1  0
  5 28  1  0
  6 29  1  0
  6 30  1  0
  7 31  1  0
  7 32  1  0
  9 33  1  0
  9 34  1  0
 11 35  1  0
 12 36  1  0
 13 37  1  0
 14 38  1  0
 21 39  1  0
 21 40  1  0
 22 41  1  0
 22 42  1  0
 23 43  1  0
 23 44  1  0
 24 45  1  0
 24 46  1  0
M  END
$$$$
