
     RDKit          3D

 59 61  0  0  0  0  0  0  0  0999 V2000
   -7.5896    1.3735    0.6277 C   0  0  0  0  0  0  0  0  0  0  0  0
   -7.4102    0.7076   -0.7309 C   0  0  0  0  0  0  0  0  0  0  0  0
   -6.4303   -0.4751   -0.6853 C   0  0  0  0  0  0  0  0  0  0  0  0
   -6.4227   -1.2079   -2.0279 C   0  0  0  0  0  0  0  0  0  0  0  0
   -5.0869   -0.0145   -0.3506 N   0  0  0  0  0  0  0  0  0  0  0  0
   -4.1528   -0.8677    0.1831 C   0  0  0  0  0  0  0  0  0  0  0  0
   -4.4151   -2.0377    0.4511 O   0  0  0  0  0  0  0  0  0  0  0  0
   -2.9134   -0.2995    0.4111 N   0  0  0  0  0  0  0  0  0  0  0  0
   -2.6053    1.1278    0.2666 C   0  0  0  0  0  0  0  0  0  0  0  0
   -1.1887    1.4997    0.7508 C   0  0  0  0  0  0  0  0  0  0  0  0
   -0.9442    0.9939    2.1072 N   0  0  0  0  0  0  0  0  0  0  0  0
    0.3555    1.4006    2.6672 C   0  0  0  0  0  0  0  0  0  0  0  0
    1.5686    0.9286    1.9230 C   0  0  0  0  0  0  0  0  0  0  0  0
    2.1507    1.4674    0.8649 N   0  0  0  0  0  0  0  0  0  0  0  0
    3.2094    0.6290    0.6181 C   0  0  0  0  0  0  0  0  0  0  0  0
    4.2072    0.6686   -0.3690 C   0  0  0  0  0  0  0  0  0  0  0  0
    5.2013   -0.3360   -0.3978 C   0  0  0  0  0  0  0  0  0  0  0  0
    6.3270   -0.3424   -1.4518 C   0  0  0  0  0  0  0  0  0  0  0  0
    6.2691    0.8490   -2.4345 C   0  0  0  0  0  0  0  0  0  0  0  0
    7.7004   -0.2840   -0.7468 C   0  0  0  0  0  0  0  0  0  0  0  0
    6.2412   -1.6342   -2.2928 C   0  0  0  0  0  0  0  0  0  0  0  0
    5.1476   -1.3603    0.5795 C   0  0  0  0  0  0  0  0  0  0  0  0
    4.1592   -1.4169    1.5741 C   0  0  0  0  0  0  0  0  0  0  0  0
    3.2226   -0.3973    1.5440 C   0  0  0  0  0  0  0  0  0  0  0  0
    2.1714   -0.2121    2.3920 O   0  0  0  0  0  0  0  0  0  0  0  0
   -1.2321   -0.4468    2.2472 C   0  0  0  0  0  0  0  0  0  0  0  0
   -1.8545   -1.1160    1.0024 C   0  0  0  0  0  0  0  0  0  0  0  0
   -7.9485    0.6551    1.3716 H   0  0  0  0  0  0  0  0  0  0  0  0
   -6.6518    1.8045    0.9887 H   0  0  0  0  0  0  0  0  0  0  0  0
   -8.3246    2.1813    0.5552 H   0  0  0  0  0  0  0  0  0  0  0  0
   -7.0651    1.4586   -1.4519 H   0  0  0  0  0  0  0  0  0  0  0  0
   -8.3907    0.3582   -1.0761 H   0  0  0  0  0  0  0  0  0  0  0  0
   -6.7550   -1.1811    0.0899 H   0  0  0  0  0  0  0  0  0  0  0  0
   -5.7545   -2.0746   -2.0017 H   0  0  0  0  0  0  0  0  0  0  0  0
   -7.4254   -1.5650   -2.2839 H   0  0  0  0  0  0  0  0  0  0  0  0
   -6.0777   -0.5509   -2.8343 H   0  0  0  0  0  0  0  0  0  0  0  0
   -4.7205    0.7248   -0.9238 H   0  0  0  0  0  0  0  0  0  0  0  0
   -2.7104    1.3955   -0.7909 H   0  0  0  0  0  0  0  0  0  0  0  0
   -3.3558    1.6925    0.8338 H   0  0  0  0  0  0  0  0  0  0  0  0
   -0.4567    1.0940    0.0415 H   0  0  0  0  0  0  0  0  0  0  0  0
   -1.0932    2.5918    0.7304 H   0  0  0  0  0  0  0  0  0  0  0  0
    0.3896    2.4971    2.7120 H   0  0  0  0  0  0  0  0  0  0  0  0
    0.4170    1.0688    3.7118 H   0  0  0  0  0  0  0  0  0  0  0  0
    4.1770    1.4848   -1.0804 H   0  0  0  0  0  0  0  0  0  0  0  0
    6.3622    1.8078   -1.9112 H   0  0  0  0  0  0  0  0  0  0  0  0
    5.3321    0.8590   -3.0031 H   0  0  0  0  0  0  0  0  0  0  0  0
    7.0871    0.7989   -3.1636 H   0  0  0  0  0  0  0  0  0  0  0  0
    8.5181   -0.2467   -1.4762 H   0  0  0  0  0  0  0  0  0  0  0  0
    7.7795    0.6063   -0.1103 H   0  0  0  0  0  0  0  0  0  0  0  0
    7.8795   -1.1592   -0.1119 H   0  0  0  0  0  0  0  0  0  0  0  0
    6.3834   -2.5341   -1.6849 H   0  0  0  0  0  0  0  0  0  0  0  0
    5.2653   -1.7210   -2.7856 H   0  0  0  0  0  0  0  0  0  0  0  0
    7.0116   -1.6496   -3.0734 H   0  0  0  0  0  0  0  0  0  0  0  0
    5.8984   -2.1501    0.5805 H   0  0  0  0  0  0  0  0  0  0  0  0
    4.1293   -2.2023    2.3185 H   0  0  0  0  0  0  0  0  0  0  0  0
   -0.3434   -1.0241    2.5287 H   0  0  0  0  0  0  0  0  0  0  0  0
   -1.9381   -0.5466    3.0817 H   0  0  0  0  0  0  0  0  0  0  0  0
   -1.0873   -1.2489    0.2280 H   0  0  0  0  0  0  0  0  0  0  0  0
   -2.2168   -2.1148    1.2683 H   0  0  0  0  0  0  0  0  0  0  0  0
  1  2  1  0
  2  3  1  0
  3  4  1  0
  3  5  1  0
  5  6  1  0
  6  7  2  0
  6  8  1  0
  8  9  1  0
  9 10  1  0
 10 11  1  0
 11 12  1  0
 12 13  1  0
 13 14  2  0
 14 15  1  0
 15 16  2  0
 16 17  1  0
 17 18  1  0
 18 19  1  0
 18 20  1  0
 18 21  1  0
 17 22  2  0
 22 23  1  0
 23 24  2  0
 24 25  1  0
 11 26  1  0
 26 27  1  0
 27  8  1  0
 25 13  1  0
 24 15  1  0
  1 28  1  0
  1 29  1  0
  1 30  1  0
  2 31  1  0
  2 32  1  0
  3 33  1  0
  4 34  1  0
  4 35  1  0
  4 36  1  0
  5 37  1  0
  9 38  1  0
  9 39  1  0
 10 40  1  0
 10 41  1  0
 12 42  1  0
 12 43  1  0
 16 44  1  0
 19 45  1  0
 19 46  1  0
 19 47  1  0
 20 48  1  0
 20 49  1  0
 20 50  1  0
 21 51  1  0
 21 52  1  0
 21 53  1  0
 22 54  1  0
 23 55  1  0
 26 56  1  0
 26 57  1  0
 27 58  1  0
 27 59  1  0
M  END
$$$$
