
     RDKit          3D

 56 59  0  0  0  0  0  0  0  0999 V2000
   -7.5814    0.0824   -1.9041 C   0  0  0  0  0  0  0  0  0  0  0  0
   -6.2701    0.7449   -1.5750 C   0  0  0  0  0  0  0  0  0  0  0  0
   -6.0753    2.0796   -1.9592 C   0  0  0  0  0  0  0  0  0  0  0  0
   -4.8807    2.7323   -1.6757 C   0  0  0  0  0  0  0  0  0  0  0  0
   -3.8643    2.0567   -1.0061 C   0  0  0  0  0  0  0  0  0  0  0  0
   -4.0246    0.7210   -0.6014 C   0  0  0  0  0  0  0  0  0  0  0  0
   -2.9899    0.0326    0.0634 N   0  0  0  0  0  0  0  0  0  0  0  0
   -1.8377   -0.2598   -0.8146 C   0  0  0  0  0  0  0  0  0  0  0  0
   -0.6557   -0.8151    0.0025 C   0  0  0  0  0  0  0  0  0  0  0  0
   -0.2206    0.1148    1.0588 N   0  0  0  0  0  0  0  0  0  0  0  0
    1.0979    0.3049    1.4585 C   0  0  0  0  0  0  0  0  0  0  0  0
    1.4674    1.3055    2.0698 O   0  0  0  0  0  0  0  0  0  0  0  0
    2.1156   -0.7215    1.1285 C   0  0  0  0  0  0  0  0  0  0  0  0
    1.8873   -2.0805    1.3720 C   0  0  0  0  0  0  0  0  0  0  0  0
    2.8817   -3.0125    1.0772 C   0  0  0  0  0  0  0  0  0  0  0  0
    4.1016   -2.5847    0.5488 C   0  0  0  0  0  0  0  0  0  0  0  0
    4.3342   -1.2270    0.3063 C   0  0  0  0  0  0  0  0  0  0  0  0
    5.6367   -0.8425   -0.1566 N   0  0  0  0  0  0  0  0  0  0  0  0
    5.7837    0.2883   -1.1059 C   0  0  0  0  0  0  0  0  0  0  0  0
    6.5598    1.3804   -0.3780 C   0  0  0  0  0  0  0  0  0  0  0  0
    7.6590    0.6655    0.3855 C   0  0  0  0  0  0  0  0  0  0  0  0
    6.8585   -0.7761    1.0636 S   0  0  0  0  0  6  0  0  0  0  0  0
    6.2690   -0.4111    2.3323 O   0  0  0  0  0  0  0  0  0  0  0  0
    7.7243   -1.9225    0.9049 O   0  0  0  0  0  0  0  0  0  0  0  0
    3.3522   -0.2907    0.6318 C   0  0  0  0  0  0  0  0  0  0  0  0
   -1.2147    1.1034    1.4913 C   0  0  0  0  0  0  0  0  0  0  0  0
   -2.6584    0.5836    1.3998 C   0  0  0  0  0  0  0  0  0  0  0  0
   -5.2479    0.0635   -0.8696 C   0  0  0  0  0  0  0  0  0  0  0  0
   -5.4431   -1.3751   -0.4545 C   0  0  0  0  0  0  0  0  0  0  0  0
   -8.1641   -0.0739   -0.9902 H   0  0  0  0  0  0  0  0  0  0  0  0
   -8.1814    0.6971   -2.5841 H   0  0  0  0  0  0  0  0  0  0  0  0
   -7.4137   -0.8773   -2.4025 H   0  0  0  0  0  0  0  0  0  0  0  0
   -6.8581    2.6200   -2.4869 H   0  0  0  0  0  0  0  0  0  0  0  0
   -4.7402    3.7660   -1.9794 H   0  0  0  0  0  0  0  0  0  0  0  0
   -2.9363    2.5823   -0.8016 H   0  0  0  0  0  0  0  0  0  0  0  0
   -2.1326   -1.0004   -1.5675 H   0  0  0  0  0  0  0  0  0  0  0  0
   -1.5029    0.6419   -1.3437 H   0  0  0  0  0  0  0  0  0  0  0  0
    0.1788   -1.0358   -0.6695 H   0  0  0  0  0  0  0  0  0  0  0  0
   -0.9590   -1.7433    0.5001 H   0  0  0  0  0  0  0  0  0  0  0  0
    0.9530   -2.4144    1.8169 H   0  0  0  0  0  0  0  0  0  0  0  0
    2.7194   -4.0687    1.2777 H   0  0  0  0  0  0  0  0  0  0  0  0
    4.8809   -3.3146    0.3386 H   0  0  0  0  0  0  0  0  0  0  0  0
    4.8280    0.6673   -1.4777 H   0  0  0  0  0  0  0  0  0  0  0  0
    6.3550   -0.0700   -1.9700 H   0  0  0  0  0  0  0  0  0  0  0  0
    6.9608    2.1263   -1.0698 H   0  0  0  0  0  0  0  0  0  0  0  0
    5.8965    1.8969    0.3266 H   0  0  0  0  0  0  0  0  0  0  0  0
    8.4542    0.3280   -0.2856 H   0  0  0  0  0  0  0  0  0  0  0  0
    8.0760    1.2703    1.1925 H   0  0  0  0  0  0  0  0  0  0  0  0
    3.5336    0.7743    0.5228 H   0  0  0  0  0  0  0  0  0  0  0  0
   -1.0876    1.9860    0.8529 H   0  0  0  0  0  0  0  0  0  0  0  0
   -0.9961    1.4110    2.5200 H   0  0  0  0  0  0  0  0  0  0  0  0
   -3.3556    1.3727    1.7111 H   0  0  0  0  0  0  0  0  0  0  0  0
   -2.7795   -0.2362    2.1193 H   0  0  0  0  0  0  0  0  0  0  0  0
   -5.2270   -2.0366   -1.2995 H   0  0  0  0  0  0  0  0  0  0  0  0
   -4.7989   -1.6573    0.3841 H   0  0  0  0  0  0  0  0  0  0  0  0
   -6.4676   -1.5517   -0.1138 H   0  0  0  0  0  0  0  0  0  0  0  0
  1  2  1  0
  2  3  2  0
  3  4  1  0
  4  5  2  0
  5  6  1  0
  6  7  1  0
  7  8  1  0
  8  9  1  0
  9 10  1  0
 10 11  1  0
 11 12  2  0
 11 13  1  0
 13 14  2  0
 14 15  1  0
 15 16  2  0
 16 17  1  0
 17 18  1  0
 18 19  1  0
 19 20  1  0
 20 21  1  0
 21 22  1  0
 22 23  2  0
 22 24  2  0
 17 25  2  0
 10 26  1  0
 26 27  1  0
  6 28  2  0
 28 29  1  0
 28  2  1  0
 27  7  1  0
 25 13  1  0
 22 18  1  0
  1 30  1  0
  1 31  1  0
  1 32  1  0
  3 33  1  0
  4 34  1  0
  5 35  1  0
  8 36  1  0
  8 37  1  0
  9 38  1  0
  9 39  1  0
 14 40  1  0
 15 41  1  0
 16 42  1  0
 19 43  1  0
 19 44  1  0
 20 45  1  0
 20 46  1  0
 21 47  1  0
 21 48  1  0
 25 49  1  0
 26 50  1  0
 26 51  1  0
 27 52  1  0
 27 53  1  0
 29 54  1  0
 29 55  1  0
 29 56  1  0
M  END
$$$$
