
     RDKit          3D

 52 54  0  0  0  0  0  0  0  0999 V2000
   -5.5701   -2.7547    0.0438 C   0  0  0  0  0  0  0  0  0  0  0  0
   -4.8636   -1.5316    0.2213 O   0  0  0  0  0  0  0  0  0  0  0  0
   -5.5683   -0.3658    0.0680 C   0  0  0  0  0  0  0  0  0  0  0  0
   -6.8855   -0.2918   -0.4026 C   0  0  0  0  0  0  0  0  0  0  0  0
   -7.5168    0.9469   -0.5527 C   0  0  0  0  0  0  0  0  0  0  0  0
   -6.8361    2.1211   -0.2450 C   0  0  0  0  0  0  0  0  0  0  0  0
   -5.5246    2.0591    0.2227 C   0  0  0  0  0  0  0  0  0  0  0  0
   -4.8816    0.8190    0.3939 C   0  0  0  0  0  0  0  0  0  0  0  0
   -3.4562    0.8060    0.8838 C   0  0  0  0  0  0  0  0  0  0  0  0
   -2.5409    0.9970   -0.2214 N   0  0  0  0  0  0  0  0  0  0  0  0
   -1.4103    1.7697   -0.1106 C   0  0  0  0  0  0  0  0  0  0  0  0
   -1.1349    2.4358    0.8825 O   0  0  0  0  0  0  0  0  0  0  0  0
   -0.5590    1.7537   -1.3622 C   0  0  0  0  0  0  0  0  0  0  0  0
    0.7670    2.4929   -1.1776 C   0  0  0  0  0  0  0  0  0  0  0  0
    1.7683    1.6989   -0.4695 N   0  0  0  0  0  0  0  0  0  0  0  0
    1.9872    1.9011    0.8747 C   0  0  0  0  0  0  0  0  0  0  0  0
    2.8522    1.2590    1.5862 N   0  0  0  0  0  0  0  0  0  0  0  0
    3.6321    0.2856    0.9458 C   0  0  0  0  0  0  0  0  0  0  0  0
    4.5876   -0.4051    1.6942 C   0  0  0  0  0  0  0  0  0  0  0  0
    5.3940   -1.3850    1.0961 C   0  0  0  0  0  0  0  0  0  0  0  0
    6.3573   -2.1046    1.7610 O   0  0  0  0  0  0  0  0  0  0  0  0
    6.4189   -1.9646    3.1768 C   0  0  0  0  0  0  0  0  0  0  0  0
    5.2479   -1.6719   -0.2798 C   0  0  0  0  0  0  0  0  0  0  0  0
    6.0827   -2.6382   -0.7876 O   0  0  0  0  0  0  0  0  0  0  0  0
    5.9884   -2.9314   -2.1745 C   0  0  0  0  0  0  0  0  0  0  0  0
    4.2897   -0.9848   -1.0286 C   0  0  0  0  0  0  0  0  0  0  0  0
    3.4910   -0.0145   -0.4086 C   0  0  0  0  0  0  0  0  0  0  0  0
    2.4727    0.7301   -1.1738 C   0  0  0  0  0  0  0  0  0  0  0  0
    2.2839    0.4723   -2.3599 O   0  0  0  0  0  0  0  0  0  0  0  0
   -5.9176   -2.8657   -0.9891 H   0  0  0  0  0  0  0  0  0  0  0  0
   -6.4038   -2.8361    0.7538 H   0  0  0  0  0  0  0  0  0  0  0  0
   -4.8755   -3.5752    0.2512 H   0  0  0  0  0  0  0  0  0  0  0  0
   -7.4480   -1.1809   -0.6717 H   0  0  0  0  0  0  0  0  0  0  0  0
   -8.5380    0.9941   -0.9201 H   0  0  0  0  0  0  0  0  0  0  0  0
   -7.3213    3.0853   -0.3727 H   0  0  0  0  0  0  0  0  0  0  0  0
   -4.9921    2.9839    0.4497 H   0  0  0  0  0  0  0  0  0  0  0  0
   -3.3126    1.5740    1.6531 H   0  0  0  0  0  0  0  0  0  0  0  0
   -3.1993   -0.1495    1.3591 H   0  0  0  0  0  0  0  0  0  0  0  0
   -2.6447    0.3680   -1.0039 H   0  0  0  0  0  0  0  0  0  0  0  0
   -1.1366    2.2573   -2.1469 H   0  0  0  0  0  0  0  0  0  0  0  0
   -0.3953    0.7162   -1.6714 H   0  0  0  0  0  0  0  0  0  0  0  0
    0.6235    3.4466   -0.6540 H   0  0  0  0  0  0  0  0  0  0  0  0
    1.1735    2.7303   -2.1711 H   0  0  0  0  0  0  0  0  0  0  0  0
    1.3623    2.6806    1.3394 H   0  0  0  0  0  0  0  0  0  0  0  0
    4.6813   -0.1459    2.7459 H   0  0  0  0  0  0  0  0  0  0  0  0
    5.4628   -2.2352    3.6432 H   0  0  0  0  0  0  0  0  0  0  0  0
    7.1797   -2.6604    3.5491 H   0  0  0  0  0  0  0  0  0  0  0  0
    6.7286   -0.9516    3.4603 H   0  0  0  0  0  0  0  0  0  0  0  0
    6.7330   -3.6979   -2.4030 H   0  0  0  0  0  0  0  0  0  0  0  0
    5.0050   -3.3402   -2.4264 H   0  0  0  0  0  0  0  0  0  0  0  0
    6.2203   -2.0506   -2.7838 H   0  0  0  0  0  0  0  0  0  0  0  0
    4.1419   -1.1806   -2.0875 H   0  0  0  0  0  0  0  0  0  0  0  0
  1  2  1  0
  2  3  1  0
  3  4  2  0
  4  5  1  0
  5  6  2  0
  6  7  1  0
  7  8  2  0
  8  9  1  0
  9 10  1  0
 10 11  1  0
 11 12  2  0
 11 13  1  0
 13 14  1  0
 14 15  1  0
 15 16  1  0
 16 17  2  0
 17 18  1  0
 18 19  2  0
 19 20  1  0
 20 21  1  0
 21 22  1  0
 20 23  2  0
 23 24  1  0
 24 25  1  0
 23 26  1  0
 26 27  2  0
 27 28  1  0
 28 29  2  0
  8  3  1  0
 28 15  1  0
 27 18  1  0
  1 30  1  0
  1 31  1  0
  1 32  1  0
  4 33  1  0
  5 34  1  0
  6 35  1  0
  7 36  1  0
  9 37  1  0
  9 38  1  0
 10 39  1  0
 13 40  1  0
 13 41  1  0
 14 42  1  0
 14 43  1  0
 16 44  1  0
 19 45  1  0
 22 46  1  0
 22 47  1  0
 22 48  1  0
 25 49  1  0
 25 50  1  0
 25 51  1  0
 26 52  1  0
M  END
$$$$
