
     RDKit          3D

 45 47  0  0  0  0  0  0  0  0999 V2000
    6.8175   -3.1789    1.7003 C   0  0  0  0  0  0  0  0  0  0  0  0
    6.4085   -1.7162    1.7108 C   0  0  0  0  0  0  0  0  0  0  0  0
    4.9897   -1.5909    1.7525 O   0  0  0  0  0  0  0  0  0  0  0  0
    4.3532   -1.6113    0.4759 C   0  0  0  0  0  0  0  0  0  0  0  0
    4.3761   -0.2243   -0.1623 C   0  0  0  0  0  0  0  0  0  0  0  0
    3.6099   -0.1726   -1.4813 C   0  0  0  0  0  0  0  0  0  0  0  0
    2.1756   -0.2887   -1.3084 N   0  0  0  0  0  0  0  0  0  0  0  0
    1.4025    0.7991   -0.9386 C   0  0  0  0  0  0  0  0  0  0  0  0
    1.9070    1.9087   -0.7859 O   0  0  0  0  0  0  0  0  0  0  0  0
   -0.0133    0.5126   -0.7467 C   0  0  0  0  0  0  0  0  0  0  0  0
   -0.7780   -0.5541   -1.1780 C   0  0  0  0  0  0  0  0  0  0  0  0
   -2.1431   -0.4397   -0.7793 C   0  0  0  0  0  0  0  0  0  0  0  0
   -2.4090    0.7122   -0.0582 C   0  0  0  0  0  0  0  0  0  0  0  0
   -3.6243    1.0937    0.4532 N   0  0  0  0  0  0  0  0  0  0  0  0
   -3.6657    1.6589    1.8143 C   0  0  0  0  0  0  0  0  0  0  0  0
   -4.8331    1.0857    2.6021 C   0  0  0  0  0  0  0  0  0  0  0  0
   -6.4057    1.7003    1.9594 S   0  0  0  0  0  0  0  0  0  0  0  0
   -6.0677    1.5919    0.2095 C   0  0  0  0  0  0  0  0  0  0  0  0
   -7.1798    1.8191   -0.5398 N   0  0  0  0  0  0  0  0  0  0  0  0
   -7.0571    1.7778   -1.8781 C   0  0  0  0  0  0  0  0  0  0  0  0
   -5.8662    1.5183   -2.5204 C   0  0  0  0  0  0  0  0  0  0  0  0
   -4.7338    1.2889   -1.7404 C   0  0  0  0  0  0  0  0  0  0  0  0
   -4.7917    1.3167   -0.3340 C   0  0  0  0  0  0  0  0  0  0  0  0
   -0.9696    1.6353    0.1247 S   0  0  0  0  0  0  0  0  0  0  0  0
    6.4610   -3.6885    0.8006 H   0  0  0  0  0  0  0  0  0  0  0  0
    6.3818   -3.7058    2.5573 H   0  0  0  0  0  0  0  0  0  0  0  0
    7.9073   -3.2752    1.7441 H   0  0  0  0  0  0  0  0  0  0  0  0
    6.8356   -1.1822    0.8573 H   0  0  0  0  0  0  0  0  0  0  0  0
    6.7975   -1.2461    2.6194 H   0  0  0  0  0  0  0  0  0  0  0  0
    4.8104   -2.3627   -0.1790 H   0  0  0  0  0  0  0  0  0  0  0  0
    3.3176   -1.9192    0.6499 H   0  0  0  0  0  0  0  0  0  0  0  0
    3.9788    0.5114    0.5488 H   0  0  0  0  0  0  0  0  0  0  0  0
    5.4140    0.0730   -0.3498 H   0  0  0  0  0  0  0  0  0  0  0  0
    3.8208    0.7798   -1.9782 H   0  0  0  0  0  0  0  0  0  0  0  0
    3.9264   -0.9750   -2.1538 H   0  0  0  0  0  0  0  0  0  0  0  0
    1.7671   -1.2111   -1.2742 H   0  0  0  0  0  0  0  0  0  0  0  0
   -0.3976   -1.3784   -1.7664 H   0  0  0  0  0  0  0  0  0  0  0  0
   -2.9083   -1.1732   -1.0137 H   0  0  0  0  0  0  0  0  0  0  0  0
   -2.7596    1.3844    2.3676 H   0  0  0  0  0  0  0  0  0  0  0  0
   -3.6925    2.7567    1.7787 H   0  0  0  0  0  0  0  0  0  0  0  0
   -4.8296   -0.0095    2.5638 H   0  0  0  0  0  0  0  0  0  0  0  0
   -4.7587    1.3836    3.6523 H   0  0  0  0  0  0  0  0  0  0  0  0
   -7.9686    1.9726   -2.4346 H   0  0  0  0  0  0  0  0  0  0  0  0
   -5.8103    1.5047   -3.6027 H   0  0  0  0  0  0  0  0  0  0  0  0
   -3.7951    1.1177   -2.2602 H   0  0  0  0  0  0  0  0  0  0  0  0
  1  2  1  0
  2  3  1  0
  3  4  1  0
  4  5  1  0
  5  6  1  0
  6  7  1  0
  7  8  1  0
  8  9  2  0
  8 10  1  0
 10 11  2  0
 11 12  1  0
 12 13  2  0
 13 14  1  0
 14 15  1  0
 15 16  1  0
 16 17  1  0
 17 18  1  0
 18 19  2  0
 19 20  1  0
 20 21  2  0
 21 22  1  0
 22 23  2  0
 13 24  1  0
 24 10  1  0
 23 14  1  0
 23 18  1  0
  1 25  1  0
  1 26  1  0
  1 27  1  0
  2 28  1  0
  2 29  1  0
  4 30  1  0
  4 31  1  0
  5 32  1  0
  5 33  1  0
  6 34  1  0
  6 35  1  0
  7 36  1  0
 11 37  1  0
 12 38  1  0
 15 39  1  0
 15 40  1  0
 16 41  1  0
 16 42  1  0
 20 43  1  0
 21 44  1  0
 22 45  1  0
M  END
$$$$
