
     RDKit          3D

 47 50  0  0  0  0  0  0  0  0999 V2000
    5.8289   -2.3642    1.0904 C   0  0  0  0  0  0  0  0  0  0  0  0
    5.0639   -1.1920    0.5485 C   0  0  0  0  0  0  0  0  0  0  0  0
    4.5338   -0.2307    1.4196 C   0  0  0  0  0  0  0  0  0  0  0  0
    3.8521    0.8795    0.9183 C   0  0  0  0  0  0  0  0  0  0  0  0
    3.6912    1.0254   -0.4619 C   0  0  0  0  0  0  0  0  0  0  0  0
    2.8459    2.4552   -1.1062 S   0  0  0  0  0  6  0  0  0  0  0  0
    3.3250    2.6698   -2.4561 O   0  0  0  0  0  0  0  0  0  0  0  0
    2.9341    3.4999   -0.1075 O   0  0  0  0  0  0  0  0  0  0  0  0
    1.2331    1.9537   -1.2000 N   0  0  0  0  0  0  0  0  0  0  0  0
    0.4806    1.8388    0.0792 C   0  0  0  0  0  0  0  0  0  0  0  0
   -0.9202    1.2500   -0.1706 C   0  0  0  0  0  0  0  0  0  0  0  0
   -0.8819   -0.1300   -0.7131 N   0  0  0  0  0  0  0  0  0  0  0  0
   -2.1399   -0.4589   -1.4187 C   0  0  0  0  0  0  0  0  0  0  0  0
   -3.3526   -0.4208   -0.5380 C   0  0  0  0  0  0  0  0  0  0  0  0
   -4.1737    0.5910   -0.3119 N   0  0  0  0  0  0  0  0  0  0  0  0
   -5.0852    0.0728    0.5730 C   0  0  0  0  0  0  0  0  0  0  0  0
   -6.2005    0.6513    1.1922 C   0  0  0  0  0  0  0  0  0  0  0  0
   -6.9582   -0.1435    2.0665 C   0  0  0  0  0  0  0  0  0  0  0  0
   -6.6126   -1.4783    2.3157 C   0  0  0  0  0  0  0  0  0  0  0  0
   -5.5008   -2.0704    1.7037 C   0  0  0  0  0  0  0  0  0  0  0  0
   -4.7780   -1.2503    0.8461 C   0  0  0  0  0  0  0  0  0  0  0  0
   -3.6643   -1.5782    0.1308 O   0  0  0  0  0  0  0  0  0  0  0  0
    0.2959   -0.3372   -1.5812 C   0  0  0  0  0  0  0  0  0  0  0  0
    0.8686    0.9397   -2.2248 C   0  0  0  0  0  0  0  0  0  0  0  0
    4.2528    0.0969   -1.3425 C   0  0  0  0  0  0  0  0  0  0  0  0
    4.9341   -1.0107   -0.8350 C   0  0  0  0  0  0  0  0  0  0  0  0
    5.4426   -2.6629    2.0706 H   0  0  0  0  0  0  0  0  0  0  0  0
    6.8876   -2.1061    1.1903 H   0  0  0  0  0  0  0  0  0  0  0  0
    5.7362   -3.2308    0.4273 H   0  0  0  0  0  0  0  0  0  0  0  0
    4.6568   -0.3380    2.4956 H   0  0  0  0  0  0  0  0  0  0  0  0
    3.4580    1.6240    1.6065 H   0  0  0  0  0  0  0  0  0  0  0  0
    1.0185    1.2050    0.7907 H   0  0  0  0  0  0  0  0  0  0  0  0
    0.3705    2.8370    0.5166 H   0  0  0  0  0  0  0  0  0  0  0  0
   -1.4709    1.2454    0.7770 H   0  0  0  0  0  0  0  0  0  0  0  0
   -1.4506    1.9222   -0.8590 H   0  0  0  0  0  0  0  0  0  0  0  0
   -2.2939    0.2152   -2.2710 H   0  0  0  0  0  0  0  0  0  0  0  0
   -2.0689   -1.4749   -1.8282 H   0  0  0  0  0  0  0  0  0  0  0  0
   -6.4647    1.6844    0.9971 H   0  0  0  0  0  0  0  0  0  0  0  0
   -7.8285    0.2867    2.5584 H   0  0  0  0  0  0  0  0  0  0  0  0
   -7.2205   -2.0683    2.9996 H   0  0  0  0  0  0  0  0  0  0  0  0
   -5.2172   -3.0994    1.8838 H   0  0  0  0  0  0  0  0  0  0  0  0
    0.0920   -1.0801   -2.3620 H   0  0  0  0  0  0  0  0  0  0  0  0
    1.0773   -0.7837   -0.9528 H   0  0  0  0  0  0  0  0  0  0  0  0
    1.7269    0.6715   -2.8476 H   0  0  0  0  0  0  0  0  0  0  0  0
    0.1267    1.3895   -2.8956 H   0  0  0  0  0  0  0  0  0  0  0  0
    4.1767    0.2328   -2.4188 H   0  0  0  0  0  0  0  0  0  0  0  0
    5.3734   -1.7282   -1.5254 H   0  0  0  0  0  0  0  0  0  0  0  0
  1  2  1  0
  2  3  2  0
  3  4  1  0
  4  5  2  0
  5  6  1  0
  6  7  2  0
  6  8  2  0
  6  9  1  0
  9 10  1  0
 10 11  1  0
 11 12  1  0
 12 13  1  0
 13 14  1  0
 14 15  2  0
 15 16  1  0
 16 17  2  0
 17 18  1  0
 18 19  2  0
 19 20  1  0
 20 21  2  0
 21 22  1  0
 12 23  1  0
 23 24  1  0
  5 25  1  0
 25 26  2  0
 26  2  1  0
 24  9  1  0
 22 14  1  0
 21 16  1  0
  1 27  1  0
  1 28  1  0
  1 29  1  0
  3 30  1  0
  4 31  1  0
 10 32  1  0
 10 33  1  0
 11 34  1  0
 11 35  1  0
 13 36  1  0
 13 37  1  0
 17 38  1  0
 18 39  1  0
 19 40  1  0
 20 41  1  0
 23 42  1  0
 23 43  1  0
 24 44  1  0
 24 45  1  0
 25 46  1  0
 26 47  1  0
M  END
$$$$
