
     RDKit          3D

 54 56  0  0  0  0  0  0  0  0999 V2000
    2.4157    0.4604   -2.6575 C   0  0  0  0  0  0  0  0  0  0  0  0
    1.5171    0.6152   -1.4387 C   0  0  0  0  0  0  0  0  0  0  0  0
    2.1669    0.0446   -0.2233 N   0  0  0  0  0  0  0  0  0  0  0  0
    3.3396    0.7444    0.2426 C   0  0  0  0  0  0  0  0  0  0  0  0
    4.5526    0.0537    0.2455 C   0  0  0  0  0  0  0  0  0  0  0  0
    5.7164    0.6877    0.6823 C   0  0  0  0  0  0  0  0  0  0  0  0
    5.6669    2.0113    1.1194 C   0  0  0  0  0  0  0  0  0  0  0  0
    4.4544    2.7008    1.1242 C   0  0  0  0  0  0  0  0  0  0  0  0
    3.2892    2.0687    0.6873 C   0  0  0  0  0  0  0  0  0  0  0  0
    1.0609   -0.3013    1.0575 S   0  0  0  0  0  6  0  0  0  0  0  0
    1.7775   -0.8929    2.1666 O   0  0  0  0  0  0  0  0  0  0  0  0
    0.1997    0.8530    1.2106 O   0  0  0  0  0  0  0  0  0  0  0  0
    0.0228   -1.5872    0.5185 C   0  0  0  0  0  0  0  0  0  0  0  0
    0.4084   -2.7210   -0.1843 C   0  0  0  0  0  0  0  0  0  0  0  0
    1.7398   -3.1733   -0.6624 C   0  0  0  0  0  0  0  0  0  0  0  0
   -0.7190   -3.4840   -0.3732 N   0  0  0  0  0  0  0  0  0  0  0  0
   -1.8051   -2.8778    0.2090 C   0  0  0  0  0  0  0  0  0  0  0  0
   -3.1489   -3.5126    0.2106 C   0  0  0  0  0  0  0  0  0  0  0  0
   -1.3750   -1.6833    0.7738 C   0  0  0  0  0  0  0  0  0  0  0  0
   -2.2083   -0.7702    1.5455 C   0  0  0  0  0  0  0  0  0  0  0  0
   -2.3225   -0.9189    2.7587 O   0  0  0  0  0  0  0  0  0  0  0  0
   -2.8729    0.2287    0.8326 N   0  0  0  0  0  0  0  0  0  0  0  0
   -3.6014    1.2437    1.5889 C   0  0  0  0  0  0  0  0  0  0  0  0
   -3.4404    2.6261    0.9670 C   0  0  0  0  0  0  0  0  0  0  0  0
   -3.9171    2.6650   -0.4856 C   0  0  0  0  0  0  0  0  0  0  0  0
   -3.8741    1.2975   -1.1662 C   0  0  0  0  0  0  0  0  0  0  0  0
   -2.7575    0.4197   -0.6132 C   0  0  0  0  0  0  0  0  0  0  0  0
    2.7076   -0.5847   -2.8025 H   0  0  0  0  0  0  0  0  0  0  0  0
    3.3293    1.0557   -2.5632 H   0  0  0  0  0  0  0  0  0  0  0  0
    1.8910    0.7967   -3.5574 H   0  0  0  0  0  0  0  0  0  0  0  0
    0.5865    0.0770   -1.6475 H   0  0  0  0  0  0  0  0  0  0  0  0
    1.2613    1.6700   -1.2914 H   0  0  0  0  0  0  0  0  0  0  0  0
    4.5920   -0.9803   -0.0837 H   0  0  0  0  0  0  0  0  0  0  0  0
    6.6588    0.1467    0.6906 H   0  0  0  0  0  0  0  0  0  0  0  0
    6.5722    2.5026    1.4673 H   0  0  0  0  0  0  0  0  0  0  0  0
    4.4142    3.7278    1.4784 H   0  0  0  0  0  0  0  0  0  0  0  0
    2.3488    2.6126    0.7117 H   0  0  0  0  0  0  0  0  0  0  0  0
    1.7588   -4.2570   -0.8181 H   0  0  0  0  0  0  0  0  0  0  0  0
    1.9861   -2.6906   -1.6125 H   0  0  0  0  0  0  0  0  0  0  0  0
    2.5209   -2.9316    0.0648 H   0  0  0  0  0  0  0  0  0  0  0  0
   -0.7378   -4.3871   -0.8313 H   0  0  0  0  0  0  0  0  0  0  0  0
   -3.2199   -4.3009   -0.5457 H   0  0  0  0  0  0  0  0  0  0  0  0
   -3.3554   -3.9571    1.1892 H   0  0  0  0  0  0  0  0  0  0  0  0
   -3.9268   -2.7730   -0.0036 H   0  0  0  0  0  0  0  0  0  0  0  0
   -4.6570    0.9476    1.5964 H   0  0  0  0  0  0  0  0  0  0  0  0
   -3.2610    1.2688    2.6294 H   0  0  0  0  0  0  0  0  0  0  0  0
   -3.9817    3.3754    1.5553 H   0  0  0  0  0  0  0  0  0  0  0  0
   -2.3798    2.9079    0.9983 H   0  0  0  0  0  0  0  0  0  0  0  0
   -3.2971    3.3784   -1.0420 H   0  0  0  0  0  0  0  0  0  0  0  0
   -4.9427    3.0506   -0.5318 H   0  0  0  0  0  0  0  0  0  0  0  0
   -4.8357    0.7920   -1.0082 H   0  0  0  0  0  0  0  0  0  0  0  0
   -3.7603    1.4241   -2.2486 H   0  0  0  0  0  0  0  0  0  0  0  0
   -2.7752   -0.5496   -1.1194 H   0  0  0  0  0  0  0  0  0  0  0  0
   -1.7827    0.8800   -0.8105 H   0  0  0  0  0  0  0  0  0  0  0  0
  1  2  1  0
  2  3  1  0
  3  4  1  0
  4  5  2  0
  5  6  1  0
  6  7  2  0
  7  8  1  0
  8  9  2  0
  3 10  1  0
 10 11  2  0
 10 12  2  0
 10 13  1  0
 13 14  2  0
 14 15  1  0
 14 16  1  0
 16 17  1  0
 17 18  1  0
 17 19  2  0
 19 20  1  0
 20 21  2  0
 20 22  1  0
 22 23  1  0
 23 24  1  0
 24 25  1  0
 25 26  1  0
 26 27  1  0
  9  4  1  0
 19 13  1  0
 27 22  1  0
  1 28  1  0
  1 29  1  0
  1 30  1  0
  2 31  1  0
  2 32  1  0
  5 33  1  0
  6 34  1  0
  7 35  1  0
  8 36  1  0
  9 37  1  0
 15 38  1  0
 15 39  1  0
 15 40  1  0
 16 41  1  0
 18 42  1  0
 18 43  1  0
 18 44  1  0
 23 45  1  0
 23 46  1  0
 24 47  1  0
 24 48  1  0
 25 49  1  0
 25 50  1  0
 26 51  1  0
 26 52  1  0
 27 53  1  0
 27 54  1  0
M  END
$$$$
