
     RDKit          3D

 59 62  0  0  0  0  0  0  0  0999 V2000
   -4.2994    0.0491   -2.5249 O   0  0  0  0  0  0  0  0  0  0  0  0
   -4.0740    0.3004   -1.3471 C   0  0  0  0  0  0  0  0  0  0  0  0
   -2.7015    0.1914   -0.7026 C   0  0  0  0  0  0  0  0  0  0  0  0
   -1.6024   -0.2784   -1.6750 C   0  0  0  0  0  0  0  0  0  0  0  0
   -1.1950    0.8019   -2.6945 C   0  0  0  0  0  0  0  0  0  0  0  0
   -0.3652    1.9295   -2.0800 C   0  0  0  0  0  0  0  0  0  0  0  0
    0.7701    1.4124   -1.3201 N   0  0  0  0  0  0  0  0  0  0  0  0
    1.8976    2.2535   -1.1969 C   0  0  0  0  0  0  0  0  0  0  0  0
    1.8814    3.3930   -1.6675 O   0  0  0  0  0  0  0  0  0  0  0  0
    3.0770    1.7249   -0.5303 C   0  0  0  0  0  0  0  0  0  0  0  0
    3.6765    2.3295    0.4788 N   0  0  0  0  0  0  0  0  0  0  0  0
    4.8007    1.6422    0.8974 N   0  0  0  0  0  0  0  0  0  0  0  0
    5.0183    0.5677    0.1599 C   0  0  0  0  0  0  0  0  0  0  0  0
    6.1364   -0.3375    0.3903 C   0  0  0  0  0  0  0  0  0  0  0  0
    6.3254   -1.3517   -0.2757 O   0  0  0  0  0  0  0  0  0  0  0  0
    6.9524    0.0878    1.4319 N   0  0  0  0  0  0  0  0  0  0  0  0
    8.0994   -0.5383    1.9574 C   0  0  0  0  0  0  0  0  0  0  0  0
    8.7783    0.1362    2.9832 C   0  0  0  0  0  0  0  0  0  0  0  0
    9.9230   -0.4132    3.5658 C   0  0  0  0  0  0  0  0  0  0  0  0
   10.3981   -1.6480    3.1286 C   0  0  0  0  0  0  0  0  0  0  0  0
    9.7265   -2.3219    2.1120 C   0  0  0  0  0  0  0  0  0  0  0  0
   10.3162   -3.8487    1.5743 Cl  0  0  0  0  0  0  0  0  0  0  0  0
    8.5833   -1.7749    1.5246 C   0  0  0  0  0  0  0  0  0  0  0  0
    3.8734    0.3079   -1.0888 S   0  0  0  0  0  0  0  0  0  0  0  0
    0.4368    0.4088   -0.3081 C   0  0  0  0  0  0  0  0  0  0  0  0
   -0.3499   -0.7499   -0.9145 C   0  0  0  0  0  0  0  0  0  0  0  0
   -5.0464    0.7191   -0.4638 N   0  0  0  0  0  0  0  0  0  0  0  0
   -6.4481    0.7219   -0.8519 C   0  0  0  0  0  0  0  0  0  0  0  0
   -7.0634   -0.6827   -0.7428 C   0  0  0  0  0  0  0  0  0  0  0  0
   -8.5107   -0.7285   -1.2130 C   0  0  0  0  0  0  0  0  0  0  0  0
   -9.2883   -0.5218    0.0641 C   0  0  0  0  0  0  0  0  0  0  0  0
   -8.4317   -1.2574    1.0677 C   0  0  0  0  0  0  0  0  0  0  0  0
   -7.0717   -1.0688    0.6545 O   0  0  0  0  0  0  0  0  0  0  0  0
   -2.7949   -0.5362    0.1141 H   0  0  0  0  0  0  0  0  0  0  0  0
   -2.4526    1.1600   -0.2562 H   0  0  0  0  0  0  0  0  0  0  0  0
   -1.9907   -1.1399   -2.2351 H   0  0  0  0  0  0  0  0  0  0  0  0
   -2.0726    1.2248   -3.1951 H   0  0  0  0  0  0  0  0  0  0  0  0
   -0.5950    0.3201   -3.4793 H   0  0  0  0  0  0  0  0  0  0  0  0
   -0.0108    2.5890   -2.8811 H   0  0  0  0  0  0  0  0  0  0  0  0
   -0.9701    2.5434   -1.4013 H   0  0  0  0  0  0  0  0  0  0  0  0
    6.6836    0.9770    1.8478 H   0  0  0  0  0  0  0  0  0  0  0  0
    8.4296    1.1036    3.3406 H   0  0  0  0  0  0  0  0  0  0  0  0
   10.4413    0.1209    4.3589 H   0  0  0  0  0  0  0  0  0  0  0  0
   11.2876   -2.0766    3.5836 H   0  0  0  0  0  0  0  0  0  0  0  0
    8.0919   -2.3389    0.7376 H   0  0  0  0  0  0  0  0  0  0  0  0
    1.3276    0.0220    0.1902 H   0  0  0  0  0  0  0  0  0  0  0  0
   -0.1491    0.9150    0.4687 H   0  0  0  0  0  0  0  0  0  0  0  0
    0.3003   -1.2884   -1.6170 H   0  0  0  0  0  0  0  0  0  0  0  0
   -0.6232   -1.4650   -0.1296 H   0  0  0  0  0  0  0  0  0  0  0  0
   -4.8675    0.6013    0.5255 H   0  0  0  0  0  0  0  0  0  0  0  0
   -6.9485    1.4200   -0.1718 H   0  0  0  0  0  0  0  0  0  0  0  0
   -6.5310    1.1033   -1.8759 H   0  0  0  0  0  0  0  0  0  0  0  0
   -6.4550   -1.4080   -1.2952 H   0  0  0  0  0  0  0  0  0  0  0  0
   -8.7492    0.0005   -1.9928 H   0  0  0  0  0  0  0  0  0  0  0  0
   -8.7330   -1.7277   -1.6101 H   0  0  0  0  0  0  0  0  0  0  0  0
  -10.3122   -0.9000    0.0189 H   0  0  0  0  0  0  0  0  0  0  0  0
   -9.3238    0.5463    0.3085 H   0  0  0  0  0  0  0  0  0  0  0  0
   -8.6408   -2.3334    1.0571 H   0  0  0  0  0  0  0  0  0  0  0  0
   -8.5650   -0.8886    2.0894 H   0  0  0  0  0  0  0  0  0  0  0  0
  1  2  2  0
  2  3  1  0
  3  4  1  0
  4  5  1  0
  5  6  1  0
  6  7  1  0
  7  8  1  0
  8  9  2  0
  8 10  1  0
 10 11  2  0
 11 12  1  0
 12 13  2  0
 13 14  1  0
 14 15  2  0
 14 16  1  0
 16 17  1  0
 17 18  2  0
 18 19  1  0
 19 20  2  0
 20 21  1  0
 21 22  1  0
 21 23  2  0
 13 24  1  0
  7 25  1  0
 25 26  1  0
  2 27  1  0
 27 28  1  0
 28 29  1  0
 29 30  1  0
 30 31  1  0
 31 32  1  0
 32 33  1  0
 26  4  1  0
 33 29  1  0
 24 10  1  0
 23 17  1  0
  3 34  1  0
  3 35  1  0
  4 36  1  0
  5 37  1  0
  5 38  1  0
  6 39  1  0
  6 40  1  0
 16 41  1  0
 18 42  1  0
 19 43  1  0
 20 44  1  0
 23 45  1  0
 25 46  1  0
 25 47  1  0
 26 48  1  0
 26 49  1  0
 27 50  1  0
 28 51  1  0
 28 52  1  0
 29 53  1  0
 30 54  1  0
 30 55  1  0
 31 56  1  0
 31 57  1  0
 32 58  1  0
 32 59  1  0
M  END
$$$$
