
     RDKit          3D

 47 49  0  0  0  0  0  0  0  0999 V2000
   -8.3201    0.1254    0.1212 C   0  0  0  0  0  0  0  0  0  0  0  0
   -6.8479    0.2980    0.2324 C   0  0  0  0  0  0  0  0  0  0  0  0
   -6.0010    0.6911   -0.7296 C   0  0  0  0  0  0  0  0  0  0  0  0
   -4.6851    0.7588   -0.3261 N   0  0  0  0  0  0  0  0  0  0  0  0
   -3.6393    1.1445   -1.1253 C   0  0  0  0  0  0  0  0  0  0  0  0
   -3.7248    1.4852   -2.3013 O   0  0  0  0  0  0  0  0  0  0  0  0
   -2.3225    1.1320   -0.4537 C   0  0  0  0  0  0  0  0  0  0  0  0
   -2.2370    0.7534    0.8335 C   0  0  0  0  0  0  0  0  0  0  0  0
   -0.8989    0.7267    1.5407 C   0  0  0  0  0  0  0  0  0  0  0  0
   -0.3258   -0.9827    1.8574 S   0  0  0  0  0  0  0  0  0  0  0  0
   -0.0060   -1.5034    0.1673 C   0  0  0  0  0  0  0  0  0  0  0  0
   -1.0071   -2.2250   -0.4972 C   0  0  0  0  0  0  0  0  0  0  0  0
   -0.8344   -2.6015   -1.8270 C   0  0  0  0  0  0  0  0  0  0  0  0
    0.3410   -2.2661   -2.4930 C   0  0  0  0  0  0  0  0  0  0  0  0
    1.3543   -1.5657   -1.8306 C   0  0  0  0  0  0  0  0  0  0  0  0
    1.1997   -1.1856   -0.4950 C   0  0  0  0  0  0  0  0  0  0  0  0
    2.2043   -0.5140    0.2406 N   0  0  0  0  0  0  0  0  0  0  0  0
    3.4290   -0.0510   -0.2061 C   0  0  0  0  0  0  0  0  0  0  0  0
    3.8326   -0.0718   -1.3624 O   0  0  0  0  0  0  0  0  0  0  0  0
    4.2386    0.5573    0.9333 C   0  0  0  0  0  0  0  0  0  0  0  0
    5.6845    0.9082    0.5493 C   0  0  0  0  0  0  0  0  0  0  0  0
    6.5414   -0.3509    0.3946 C   0  0  0  0  0  0  0  0  0  0  0  0
    6.3013    1.8239    1.6086 C   0  0  0  0  0  0  0  0  0  0  0  0
   -3.3323    0.4000    1.5955 N   0  0  0  0  0  0  0  0  0  0  0  0
   -4.4682    0.4142    0.9870 C   0  0  0  0  0  0  0  0  0  0  0  0
   -5.9993   -0.0106    1.7322 S   0  0  0  0  0  0  0  0  0  0  0  0
   -8.6062   -0.9089    0.3385 H   0  0  0  0  0  0  0  0  0  0  0  0
   -8.8415    0.7848    0.8227 H   0  0  0  0  0  0  0  0  0  0  0  0
   -8.6747    0.3644   -0.8871 H   0  0  0  0  0  0  0  0  0  0  0  0
   -6.2603    0.9479   -1.7495 H   0  0  0  0  0  0  0  0  0  0  0  0
   -1.4674    1.4143   -1.0549 H   0  0  0  0  0  0  0  0  0  0  0  0
   -0.9888    1.2366    2.5064 H   0  0  0  0  0  0  0  0  0  0  0  0
   -0.1306    1.2649    0.9744 H   0  0  0  0  0  0  0  0  0  0  0  0
   -1.9308   -2.4873    0.0143 H   0  0  0  0  0  0  0  0  0  0  0  0
   -1.6145   -3.1549   -2.3437 H   0  0  0  0  0  0  0  0  0  0  0  0
    0.4805   -2.5584   -3.5314 H   0  0  0  0  0  0  0  0  0  0  0  0
    2.2612   -1.3461   -2.3858 H   0  0  0  0  0  0  0  0  0  0  0  0
    1.9886   -0.3942    1.2255 H   0  0  0  0  0  0  0  0  0  0  0  0
    4.2326   -0.1346    1.7847 H   0  0  0  0  0  0  0  0  0  0  0  0
    3.7086    1.4682    1.2401 H   0  0  0  0  0  0  0  0  0  0  0  0
    5.6898    1.4478   -0.4060 H   0  0  0  0  0  0  0  0  0  0  0  0
    7.5681   -0.0878    0.1179 H   0  0  0  0  0  0  0  0  0  0  0  0
    6.5807   -0.9219    1.3287 H   0  0  0  0  0  0  0  0  0  0  0  0
    6.1483   -1.0091   -0.3862 H   0  0  0  0  0  0  0  0  0  0  0  0
    5.7286    2.7529    1.7009 H   0  0  0  0  0  0  0  0  0  0  0  0
    6.3219    1.3390    2.5906 H   0  0  0  0  0  0  0  0  0  0  0  0
    7.3289    2.0919    1.3409 H   0  0  0  0  0  0  0  0  0  0  0  0
  1  2  1  0
  2  3  2  0
  3  4  1  0
  4  5  1  0
  5  6  2  0
  5  7  1  0
  7  8  2  0
  8  9  1  0
  9 10  1  0
 10 11  1  0
 11 12  2  0
 12 13  1  0
 13 14  2  0
 14 15  1  0
 15 16  2  0
 16 17  1  0
 17 18  1  0
 18 19  2  0
 18 20  1  0
 20 21  1  0
 21 22  1  0
 21 23  1  0
  8 24  1  0
 24 25  2  0
 25 26  1  0
 26  2  1  0
 25  4  1  0
 16 11  1  0
  1 27  1  0
  1 28  1  0
  1 29  1  0
  3 30  1  0
  7 31  1  0
  9 32  1  0
  9 33  1  0
 12 34  1  0
 13 35  1  0
 14 36  1  0
 15 37  1  0
 17 38  1  0
 20 39  1  0
 20 40  1  0
 21 41  1  0
 22 42  1  0
 22 43  1  0
 22 44  1  0
 23 45  1  0
 23 46  1  0
 23 47  1  0
M  END
$$$$
