
     RDKit          3D

 56 59  0  0  0  0  0  0  0  0999 V2000
   10.3791    2.5828   -0.9458 O   0  0  0  0  0  0  0  0  0  0  0  0
    9.4340    1.8221   -0.7781 C   0  0  0  0  0  0  0  0  0  0  0  0
    8.3026    1.8044   -1.7204 C   0  0  0  0  0  0  0  0  0  0  0  0
    7.2728    0.9773   -1.5223 C   0  0  0  0  0  0  0  0  0  0  0  0
    7.3098    0.0878   -0.3283 C   0  0  0  0  0  0  0  0  0  0  0  0
    6.2098   -0.8344   -0.0485 C   0  0  0  0  0  0  0  0  0  0  0  0
    6.1978   -1.8484    0.8970 C   0  0  0  0  0  0  0  0  0  0  0  0
    4.9716   -2.5716    0.9219 C   0  0  0  0  0  0  0  0  0  0  0  0
    4.0655   -2.0866    0.0027 C   0  0  0  0  0  0  0  0  0  0  0  0
    2.4025   -2.5705   -0.4030 S   0  0  0  0  0  6  0  0  0  0  0  0
    2.0577   -3.5790    0.5732 O   0  0  0  0  0  0  0  0  0  0  0  0
    2.4158   -2.8377   -1.8229 O   0  0  0  0  0  0  0  0  0  0  0  0
    1.4037   -1.2328   -0.1620 N   0  0  0  0  0  0  0  0  0  0  0  0
    1.3102   -0.6941    1.2031 C   0  0  0  0  0  0  0  0  0  0  0  0
    0.0739    0.1957    1.3228 C   0  0  0  0  0  0  0  0  0  0  0  0
   -1.2269   -0.6181    1.2520 C   0  0  0  0  0  0  0  0  0  0  0  0
   -2.4196    0.2040    1.5179 N   0  0  0  0  0  0  0  0  0  0  0  0
   -2.6122    1.2519    0.4869 C   0  0  0  0  0  0  0  0  0  0  0  0
   -4.0812    1.6886    0.2724 C   0  0  0  0  0  0  0  0  0  0  0  0
   -4.8979    0.5434   -0.1556 N   0  0  0  0  0  0  0  0  0  0  0  0
   -6.0793    0.7051   -0.8605 C   0  0  0  0  0  0  0  0  0  0  0  0
   -6.6771   -0.3626   -1.5516 C   0  0  0  0  0  0  0  0  0  0  0  0
   -7.8680   -0.2096   -2.2728 C   0  0  0  0  0  0  0  0  0  0  0  0
   -8.4977    1.0273   -2.3229 C   0  0  0  0  0  0  0  0  0  0  0  0
   -7.9328    2.1055   -1.6539 C   0  0  0  0  0  0  0  0  0  0  0  0
   -6.7403    1.9420   -0.9369 C   0  0  0  0  0  0  0  0  0  0  0  0
   -4.4907   -0.7754    0.3583 C   0  0  0  0  0  0  0  0  0  0  0  0
   -3.6338   -0.6372    1.6395 C   0  0  0  0  0  0  0  0  0  0  0  0
    4.7054   -0.7653   -0.8700 S   0  0  0  0  0  0  0  0  0  0  0  0
    8.3107    0.0837    0.5073 N   0  0  0  0  0  0  0  0  0  0  0  0
    9.3466    0.9426    0.2678 N   0  0  0  0  0  0  0  0  0  0  0  0
    8.3599    2.4797   -2.5638 H   0  0  0  0  0  0  0  0  0  0  0  0
    6.4454    0.9447   -2.2155 H   0  0  0  0  0  0  0  0  0  0  0  0
    7.0451   -2.0659    1.5392 H   0  0  0  0  0  0  0  0  0  0  0  0
    4.7568   -3.4078    1.5781 H   0  0  0  0  0  0  0  0  0  0  0  0
    1.5234   -0.5458   -0.9066 H   0  0  0  0  0  0  0  0  0  0  0  0
    2.2020   -0.0916    1.4058 H   0  0  0  0  0  0  0  0  0  0  0  0
    1.2603   -1.4985    1.9436 H   0  0  0  0  0  0  0  0  0  0  0  0
    0.0969    0.9582    0.5352 H   0  0  0  0  0  0  0  0  0  0  0  0
    0.1174    0.7214    2.2849 H   0  0  0  0  0  0  0  0  0  0  0  0
   -1.1641   -1.4043    2.0154 H   0  0  0  0  0  0  0  0  0  0  0  0
   -1.3135   -1.1217    0.2809 H   0  0  0  0  0  0  0  0  0  0  0  0
   -2.0237    2.1324    0.7690 H   0  0  0  0  0  0  0  0  0  0  0  0
   -2.2325    0.9030   -0.4836 H   0  0  0  0  0  0  0  0  0  0  0  0
   -4.0784    2.4721   -0.4950 H   0  0  0  0  0  0  0  0  0  0  0  0
   -4.4892    2.1159    1.1965 H   0  0  0  0  0  0  0  0  0  0  0  0
   -6.2074   -1.3422   -1.5623 H   0  0  0  0  0  0  0  0  0  0  0  0
   -8.2944   -1.0602   -2.7975 H   0  0  0  0  0  0  0  0  0  0  0  0
   -9.4215    1.1503   -2.8806 H   0  0  0  0  0  0  0  0  0  0  0  0
   -8.4166    3.0780   -1.6820 H   0  0  0  0  0  0  0  0  0  0  0  0
   -6.3496    2.8104   -0.4147 H   0  0  0  0  0  0  0  0  0  0  0  0
   -5.3672   -1.3812    0.6186 H   0  0  0  0  0  0  0  0  0  0  0  0
   -3.9240   -1.3084   -0.4144 H   0  0  0  0  0  0  0  0  0  0  0  0
   -3.3905   -1.6347    2.0259 H   0  0  0  0  0  0  0  0  0  0  0  0
   -4.2600   -0.1740    2.4140 H   0  0  0  0  0  0  0  0  0  0  0  0
   10.1134    0.9291    0.9326 H   0  0  0  0  0  0  0  0  0  0  0  0
  1  2  2  0
  2  3  1  0
  3  4  2  0
  4  5  1  0
  5  6  1  0
  6  7  2  0
  7  8  1  0
  8  9  2  0
  9 10  1  0
 10 11  2  0
 10 12  2  0
 10 13  1  0
 13 14  1  0
 14 15  1  0
 15 16  1  0
 16 17  1  0
 17 18  1  0
 18 19  1  0
 19 20  1  0
 20 21  1  0
 21 22  2  0
 22 23  1  0
 23 24  2  0
 24 25  1  0
 25 26  2  0
 20 27  1  0
 27 28  1  0
  9 29  1  0
  5 30  2  0
 30 31  1  0
 31  2  1  0
 29  6  1  0
 28 17  1  0
 26 21  1  0
  3 32  1  0
  4 33  1  0
  7 34  1  0
  8 35  1  0
 13 36  1  0
 14 37  1  0
 14 38  1  0
 15 39  1  0
 15 40  1  0
 16 41  1  0
 16 42  1  0
 18 43  1  0
 18 44  1  0
 19 45  1  0
 19 46  1  0
 22 47  1  0
 23 48  1  0
 24 49  1  0
 25 50  1  0
 26 51  1  0
 27 52  1  0
 27 53  1  0
 28 54  1  0
 28 55  1  0
 31 56  1  0
M  END
$$$$
