
     RDKit          3D

 53 55  0  0  0  0  0  0  0  0999 V2000
   -4.8715    0.5013    3.5267 C   0  0  0  0  0  0  0  0  0  0  0  0
   -5.1410    0.8687    2.1813 O   0  0  0  0  0  0  0  0  0  0  0  0
   -4.4789    0.1926    1.1865 C   0  0  0  0  0  0  0  0  0  0  0  0
   -3.5948   -0.8712    1.4035 C   0  0  0  0  0  0  0  0  0  0  0  0
   -2.9487   -1.5115    0.3325 C   0  0  0  0  0  0  0  0  0  0  0  0
   -3.2154   -1.0898   -0.9734 C   0  0  0  0  0  0  0  0  0  0  0  0
   -4.1034   -0.0222   -1.1953 C   0  0  0  0  0  0  0  0  0  0  0  0
   -4.7310    0.6256   -0.1270 C   0  0  0  0  0  0  0  0  0  0  0  0
   -5.6100    1.6711   -0.2618 O   0  0  0  0  0  0  0  0  0  0  0  0
   -5.7643    2.2399   -1.5538 C   0  0  0  0  0  0  0  0  0  0  0  0
   -2.5851   -1.7942   -2.1385 C   0  0  0  0  0  0  0  0  0  0  0  0
   -1.0741   -1.7173   -2.1295 C   0  0  0  0  0  0  0  0  0  0  0  0
   -0.4726   -1.0427   -2.9722 O   0  0  0  0  0  0  0  0  0  0  0  0
   -0.3966   -2.4908   -1.1900 N   0  0  0  0  0  0  0  0  0  0  0  0
    1.0355   -2.7329   -1.4363 C   0  0  0  0  0  0  0  0  0  0  0  0
    1.9302   -1.6595   -0.8080 C   0  0  0  0  0  0  0  0  0  0  0  0
    2.9089   -1.9504   -0.1226 O   0  0  0  0  0  0  0  0  0  0  0  0
    1.6091   -0.3620   -1.1449 N   0  0  0  0  0  0  0  0  0  0  0  0
    2.4325    0.7665   -0.7510 C   0  0  0  0  0  0  0  0  0  0  0  0
    2.3300    1.0665    0.7457 C   0  0  0  0  0  0  0  0  0  0  0  0
    3.2601    2.5671    1.2271 S   0  0  0  0  0  0  0  0  0  0  0  0
    4.9436    2.0924    0.8627 C   0  0  0  0  0  0  0  0  0  0  0  0
    5.7723    3.0288    0.2337 C   0  0  0  0  0  0  0  0  0  0  0  0
    7.0988    2.7137   -0.0715 C   0  0  0  0  0  0  0  0  0  0  0  0
    7.6103    1.4610    0.2586 C   0  0  0  0  0  0  0  0  0  0  0  0
    6.7980    0.5273    0.8987 C   0  0  0  0  0  0  0  0  0  0  0  0
    5.4715    0.8435    1.2053 C   0  0  0  0  0  0  0  0  0  0  0  0
   -0.9319   -3.0047   -0.0187 C   0  0  0  0  0  0  0  0  0  0  0  0
   -2.0392   -2.6255    0.6363 C   0  0  0  0  0  0  0  0  0  0  0  0
   -5.1822   -0.5302    3.7232 H   0  0  0  0  0  0  0  0  0  0  0  0
   -5.4617    1.1543    4.1767 H   0  0  0  0  0  0  0  0  0  0  0  0
   -3.8156    0.6520    3.7751 H   0  0  0  0  0  0  0  0  0  0  0  0
   -3.3859   -1.2134    2.4122 H   0  0  0  0  0  0  0  0  0  0  0  0
   -4.2976    0.2828   -2.2190 H   0  0  0  0  0  0  0  0  0  0  0  0
   -6.2398    1.5317   -2.2397 H   0  0  0  0  0  0  0  0  0  0  0  0
   -6.4254    3.1071   -1.4611 H   0  0  0  0  0  0  0  0  0  0  0  0
   -4.8065    2.5934   -1.9505 H   0  0  0  0  0  0  0  0  0  0  0  0
   -2.9301   -1.3591   -3.0851 H   0  0  0  0  0  0  0  0  0  0  0  0
   -2.9006   -2.8445   -2.1657 H   0  0  0  0  0  0  0  0  0  0  0  0
    1.3182   -3.7134   -1.0354 H   0  0  0  0  0  0  0  0  0  0  0  0
    1.2342   -2.7533   -2.5146 H   0  0  0  0  0  0  0  0  0  0  0  0
    0.9285   -0.2292   -1.8937 H   0  0  0  0  0  0  0  0  0  0  0  0
    3.4625    0.5411   -1.0471 H   0  0  0  0  0  0  0  0  0  0  0  0
    2.0864    1.6242   -1.3387 H   0  0  0  0  0  0  0  0  0  0  0  0
    1.2799    1.2451    1.0066 H   0  0  0  0  0  0  0  0  0  0  0  0
    2.6504    0.2171    1.3555 H   0  0  0  0  0  0  0  0  0  0  0  0
    5.3909    4.0129   -0.0289 H   0  0  0  0  0  0  0  0  0  0  0  0
    7.7312    3.4475   -0.5644 H   0  0  0  0  0  0  0  0  0  0  0  0
    8.6419    1.2138    0.0226 H   0  0  0  0  0  0  0  0  0  0  0  0
    7.1948   -0.4493    1.1640 H   0  0  0  0  0  0  0  0  0  0  0  0
    4.8682    0.0989    1.7174 H   0  0  0  0  0  0  0  0  0  0  0  0
   -0.3224   -3.7728    0.4593 H   0  0  0  0  0  0  0  0  0  0  0  0
   -2.2616   -3.1478    1.5670 H   0  0  0  0  0  0  0  0  0  0  0  0
  1  2  1  0
  2  3  1  0
  3  4  2  0
  4  5  1  0
  5  6  2  0
  6  7  1  0
  7  8  2  0
  8  9  1  0
  9 10  1  0
  6 11  1  0
 11 12  1  0
 12 13  2  0
 12 14  1  0
 14 15  1  0
 15 16  1  0
 16 17  2  0
 16 18  1  0
 18 19  1  0
 19 20  1  0
 20 21  1  0
 21 22  1  0
 22 23  2  0
 23 24  1  0
 24 25  2  0
 25 26  1  0
 26 27  2  0
 14 28  1  0
 28 29  2  0
  8  3  1  0
 27 22  1  0
 29  5  1  0
  1 30  1  0
  1 31  1  0
  1 32  1  0
  4 33  1  0
  7 34  1  0
 10 35  1  0
 10 36  1  0
 10 37  1  0
 11 38  1  0
 11 39  1  0
 15 40  1  0
 15 41  1  0
 18 42  1  0
 19 43  1  0
 19 44  1  0
 20 45  1  0
 20 46  1  0
 23 47  1  0
 24 48  1  0
 25 49  1  0
 26 50  1  0
 27 51  1  0
 28 52  1  0
 29 53  1  0
M  END
$$$$
