
     RDKit          3D

 44 45  0  0  0  0  0  0  0  0999 V2000
   -5.2702    1.5370    1.8014 C   0  0  0  0  0  0  0  0  0  0  0  0
   -4.6997    0.7103    0.7155 C   0  0  0  0  0  0  0  0  0  0  0  0
   -5.3283    0.2793   -0.4687 C   0  0  0  0  0  0  0  0  0  0  0  0
   -4.3809   -0.4641   -1.1402 C   0  0  0  0  0  0  0  0  0  0  0  0
   -4.4658   -1.1781   -2.4371 C   0  0  0  0  0  0  0  0  0  0  0  0
   -3.2634   -0.4401   -0.3424 N   0  0  0  0  0  0  0  0  0  0  0  0
   -1.9828   -1.1172   -0.5680 C   0  0  0  0  0  0  0  0  0  0  0  0
   -1.9162   -2.3899    0.2828 C   0  0  0  0  0  0  0  0  0  0  0  0
   -0.8069   -0.1698   -0.2941 C   0  0  0  0  0  0  0  0  0  0  0  0
    0.4910   -0.7087   -0.8476 C   0  0  0  0  0  0  0  0  0  0  0  0
    0.5486   -1.5813   -1.7054 O   0  0  0  0  0  0  0  0  0  0  0  0
    1.6017   -0.0996   -0.3159 N   0  0  0  0  0  0  0  0  0  0  0  0
    2.9285   -0.4011   -0.8013 C   0  0  0  0  0  0  0  0  0  0  0  0
    3.9745    0.0489    0.1893 C   0  0  0  0  0  0  0  0  0  0  0  0
    4.3929   -0.8626    1.1782 C   0  0  0  0  0  0  0  0  0  0  0  0
    5.3428   -0.5001    2.1323 C   0  0  0  0  0  0  0  0  0  0  0  0
    5.8893    0.7791    2.1147 C   0  0  0  0  0  0  0  0  0  0  0  0
    5.4776    1.6989    1.1493 C   0  0  0  0  0  0  0  0  0  0  0  0
    4.5086    1.3558    0.1892 C   0  0  0  0  0  0  0  0  0  0  0  0
    4.1011    2.3841   -0.8300 C   0  0  0  0  0  0  0  0  0  0  0  0
   -3.4379    0.2756    0.7872 N   0  0  0  0  0  0  0  0  0  0  0  0
   -4.8582    2.5498    1.7677 H   0  0  0  0  0  0  0  0  0  0  0  0
   -6.3597    1.6041    1.7104 H   0  0  0  0  0  0  0  0  0  0  0  0
   -5.0407    1.1040    2.7785 H   0  0  0  0  0  0  0  0  0  0  0  0
   -6.3397    0.4773   -0.7897 H   0  0  0  0  0  0  0  0  0  0  0  0
   -5.4598   -1.0594   -2.8831 H   0  0  0  0  0  0  0  0  0  0  0  0
   -4.2879   -2.2498   -2.3045 H   0  0  0  0  0  0  0  0  0  0  0  0
   -3.7314   -0.7859   -3.1483 H   0  0  0  0  0  0  0  0  0  0  0  0
   -1.9703   -1.4060   -1.6252 H   0  0  0  0  0  0  0  0  0  0  0  0
   -1.8862   -2.1598    1.3522 H   0  0  0  0  0  0  0  0  0  0  0  0
   -1.0300   -2.9811    0.0397 H   0  0  0  0  0  0  0  0  0  0  0  0
   -2.7974   -3.0189    0.1044 H   0  0  0  0  0  0  0  0  0  0  0  0
   -0.6936    0.0185    0.7822 H   0  0  0  0  0  0  0  0  0  0  0  0
   -0.9823    0.7994   -0.7837 H   0  0  0  0  0  0  0  0  0  0  0  0
    1.4880    0.7139    0.2741 H   0  0  0  0  0  0  0  0  0  0  0  0
    3.0594    0.0881   -1.7736 H   0  0  0  0  0  0  0  0  0  0  0  0
    3.0115   -1.4782   -0.9888 H   0  0  0  0  0  0  0  0  0  0  0  0
    3.9741   -1.8683    1.2069 H   0  0  0  0  0  0  0  0  0  0  0  0
    5.6577   -1.2175    2.8875 H   0  0  0  0  0  0  0  0  0  0  0  0
    6.6359    1.0610    2.8537 H   0  0  0  0  0  0  0  0  0  0  0  0
    5.9184    2.6945    1.1546 H   0  0  0  0  0  0  0  0  0  0  0  0
    3.0103    2.4491   -0.9000 H   0  0  0  0  0  0  0  0  0  0  0  0
    4.5151    2.1282   -1.8107 H   0  0  0  0  0  0  0  0  0  0  0  0
    4.4623    3.3805   -0.5600 H   0  0  0  0  0  0  0  0  0  0  0  0
  1  2  1  0
  2  3  1  0
  3  4  2  0
  4  5  1  0
  4  6  1  0
  6  7  1  0
  7  8  1  0
  7  9  1  0
  9 10  1  0
 10 11  2  0
 10 12  1  0
 12 13  1  0
 13 14  1  0
 14 15  2  0
 15 16  1  0
 16 17  2  0
 17 18  1  0
 18 19  2  0
 19 20  1  0
  6 21  1  0
 21  2  2  0
 19 14  1  0
  1 22  1  0
  1 23  1  0
  1 24  1  0
  3 25  1  0
  5 26  1  0
  5 27  1  0
  5 28  1  0
  7 29  1  0
  8 30  1  0
  8 31  1  0
  8 32  1  0
  9 33  1  0
  9 34  1  0
 12 35  1  0
 13 36  1  0
 13 37  1  0
 15 38  1  0
 16 39  1  0
 17 40  1  0
 18 41  1  0
 20 42  1  0
 20 43  1  0
 20 44  1  0
M  END
$$$$
