
     RDKit          3D

 57 59  0  0  0  0  0  0  0  0999 V2000
    8.9593   -0.8329    0.9902 C   0  0  0  0  0  0  0  0  0  0  0  0
    7.6875   -0.5762    1.5668 O   0  0  0  0  0  0  0  0  0  0  0  0
    6.5773   -0.9794    0.8661 C   0  0  0  0  0  0  0  0  0  0  0  0
    6.6152   -1.5925   -0.3905 C   0  0  0  0  0  0  0  0  0  0  0  0
    5.4324   -1.9683   -1.0325 C   0  0  0  0  0  0  0  0  0  0  0  0
    4.1947   -1.7405   -0.4259 C   0  0  0  0  0  0  0  0  0  0  0  0
    2.9128   -2.1271   -1.1216 C   0  0  0  0  0  0  0  0  0  0  0  0
    2.2894   -0.9406   -1.8615 C   0  0  0  0  0  0  0  0  0  0  0  0
    1.0627   -1.3002   -2.5515 N   0  0  0  0  0  0  0  0  0  0  0  0
   -0.1184   -1.4461   -1.8597 C   0  0  0  0  0  0  0  0  0  0  0  0
   -0.1989   -1.4238   -0.6354 O   0  0  0  0  0  0  0  0  0  0  0  0
   -1.3175   -1.7234   -2.7421 C   0  0  0  0  0  0  0  0  0  0  0  0
   -2.5821   -1.1529   -2.1209 C   0  0  0  0  0  0  0  0  0  0  0  0
   -2.6865    0.6052   -2.4129 S   0  0  0  0  0  6  0  0  0  0  0  0
   -1.4625    1.2478   -1.9790 O   0  0  0  0  0  0  0  0  0  0  0  0
   -3.1679    0.7928   -3.7694 O   0  0  0  0  0  0  0  0  0  0  0  0
   -3.9762    1.1273   -1.3043 C   0  0  0  0  0  0  0  0  0  0  0  0
   -5.2802    1.3283   -1.7973 C   0  0  0  0  0  0  0  0  0  0  0  0
   -6.2987    1.7488   -0.9361 C   0  0  0  0  0  0  0  0  0  0  0  0
   -5.9751    1.9629    0.3917 C   0  0  0  0  0  0  0  0  0  0  0  0
   -4.6785    1.7747    0.8739 C   0  0  0  0  0  0  0  0  0  0  0  0
   -3.6562    1.3601    0.0392 C   0  0  0  0  0  0  0  0  0  0  0  0
   -4.6349    2.0947    2.3378 C   0  0  0  0  0  0  0  0  0  0  0  0
   -6.0856    2.4877    2.6358 C   0  0  0  0  0  0  0  0  0  0  0  0
   -6.5181    2.8274    3.7264 O   0  0  0  0  0  0  0  0  0  0  0  0
   -6.7996    2.3812    1.4391 N   0  0  0  0  0  0  0  0  0  0  0  0
   -8.2006    2.6758    1.2992 C   0  0  0  0  0  0  0  0  0  0  0  0
    4.1541   -1.1212    0.8326 C   0  0  0  0  0  0  0  0  0  0  0  0
    5.3337   -0.7388    1.4834 C   0  0  0  0  0  0  0  0  0  0  0  0
    5.3783   -0.1291    2.7134 O   0  0  0  0  0  0  0  0  0  0  0  0
    4.1425    0.1479    3.3560 C   0  0  0  0  0  0  0  0  0  0  0  0
    9.7215   -0.4651    1.6840 H   0  0  0  0  0  0  0  0  0  0  0  0
    9.0815   -0.2917    0.0462 H   0  0  0  0  0  0  0  0  0  0  0  0
    9.1236   -1.9071    0.8559 H   0  0  0  0  0  0  0  0  0  0  0  0
    7.5516   -1.7910   -0.9001 H   0  0  0  0  0  0  0  0  0  0  0  0
    5.4884   -2.4416   -2.0101 H   0  0  0  0  0  0  0  0  0  0  0  0
    2.2141   -2.5386   -0.3828 H   0  0  0  0  0  0  0  0  0  0  0  0
    3.1048   -2.9457   -1.8271 H   0  0  0  0  0  0  0  0  0  0  0  0
    2.9820   -0.5580   -2.6199 H   0  0  0  0  0  0  0  0  0  0  0  0
    2.0682   -0.1192   -1.1695 H   0  0  0  0  0  0  0  0  0  0  0  0
    1.0197   -1.1149   -3.5457 H   0  0  0  0  0  0  0  0  0  0  0  0
   -1.1580   -1.3263   -3.7501 H   0  0  0  0  0  0  0  0  0  0  0  0
   -1.4052   -2.8131   -2.8192 H   0  0  0  0  0  0  0  0  0  0  0  0
   -2.6252   -1.3221   -1.0413 H   0  0  0  0  0  0  0  0  0  0  0  0
   -3.4694   -1.6011   -2.5797 H   0  0  0  0  0  0  0  0  0  0  0  0
   -5.5058    1.1664   -2.8499 H   0  0  0  0  0  0  0  0  0  0  0  0
   -7.3037    1.9058   -1.3116 H   0  0  0  0  0  0  0  0  0  0  0  0
   -2.6444    1.2276    0.4140 H   0  0  0  0  0  0  0  0  0  0  0  0
   -4.3643    1.2159    2.9283 H   0  0  0  0  0  0  0  0  0  0  0  0
   -3.9765    2.9433    2.5395 H   0  0  0  0  0  0  0  0  0  0  0  0
   -8.3283    3.4961    0.5867 H   0  0  0  0  0  0  0  0  0  0  0  0
   -8.6283    2.9729    2.2611 H   0  0  0  0  0  0  0  0  0  0  0  0
   -8.7242    1.7853    0.9389 H   0  0  0  0  0  0  0  0  0  0  0  0
    3.1819   -0.9481    1.2851 H   0  0  0  0  0  0  0  0  0  0  0  0
    4.3638    0.6388    4.3087 H   0  0  0  0  0  0  0  0  0  0  0  0
    3.5331    0.8369    2.7618 H   0  0  0  0  0  0  0  0  0  0  0  0
    3.5969   -0.7751    3.5776 H   0  0  0  0  0  0  0  0  0  0  0  0
  1  2  1  0
  2  3  1  0
  3  4  2  0
  4  5  1  0
  5  6  2  0
  6  7  1  0
  7  8  1  0
  8  9  1  0
  9 10  1  0
 10 11  2  0
 10 12  1  0
 12 13  1  0
 13 14  1  0
 14 15  2  0
 14 16  2  0
 14 17  1  0
 17 18  2  0
 18 19  1  0
 19 20  2  0
 20 21  1  0
 21 22  2  0
 21 23  1  0
 23 24  1  0
 24 25  2  0
 24 26  1  0
 26 27  1  0
  6 28  1  0
 28 29  2  0
 29 30  1  0
 30 31  1  0
 29  3  1  0
 22 17  1  0
 26 20  1  0
  1 32  1  0
  1 33  1  0
  1 34  1  0
  4 35  1  0
  5 36  1  0
  7 37  1  0
  7 38  1  0
  8 39  1  0
  8 40  1  0
  9 41  1  0
 12 42  1  0
 12 43  1  0
 13 44  1  0
 13 45  1  0
 18 46  1  0
 19 47  1  0
 22 48  1  0
 23 49  1  0
 23 50  1  0
 27 51  1  0
 27 52  1  0
 27 53  1  0
 28 54  1  0
 31 55  1  0
 31 56  1  0
 31 57  1  0
M  END
$$$$
