
     RDKit          3D

 47 49  0  0  0  0  0  0  0  0999 V2000
    7.0608    1.7407    0.4592 C   0  0  0  0  0  0  0  0  0  0  0  0
    5.6404    2.1454    0.8093 C   0  0  0  0  0  0  0  0  0  0  0  0
    4.6613    1.2101    0.2958 N   0  0  0  0  0  0  0  0  0  0  0  0
    4.1558    0.1344    0.9698 C   0  0  0  0  0  0  0  0  0  0  0  0
    3.2666   -0.5111    0.2493 N   0  0  0  0  0  0  0  0  0  0  0  0
    3.1986    0.1825   -0.9519 C   0  0  0  0  0  0  0  0  0  0  0  0
    2.1709   -0.2864   -2.2837 S   0  0  0  0  0  6  0  0  0  0  0  0
    2.8001   -1.4661   -2.8416 O   0  0  0  0  0  0  0  0  0  0  0  0
    2.0192    0.9202   -3.0732 O   0  0  0  0  0  0  0  0  0  0  0  0
    0.6232   -0.7292   -1.7093 N   0  0  0  0  0  0  0  0  0  0  0  0
    0.6191   -1.7700   -0.6426 C   0  0  0  0  0  0  0  0  0  0  0  0
   -0.6069   -2.6807   -0.7204 C   0  0  0  0  0  0  0  0  0  0  0  0
   -1.9068   -1.9129   -0.9891 C   0  0  0  0  0  0  0  0  0  0  0  0
   -2.4149   -1.2040    0.2746 C   0  0  0  0  0  0  0  0  0  0  0  0
   -1.7760   -1.2090    1.3206 O   0  0  0  0  0  0  0  0  0  0  0  0
   -3.6611   -0.6246    0.0853 N   0  0  0  0  0  0  0  0  0  0  0  0
   -4.4105    0.1304    1.0112 C   0  0  0  0  0  0  0  0  0  0  0  0
   -3.9725    0.4470    2.3007 C   0  0  0  0  0  0  0  0  0  0  0  0
   -4.7776    1.2098    3.1542 C   0  0  0  0  0  0  0  0  0  0  0  0
   -6.0181    1.6549    2.7172 C   0  0  0  0  0  0  0  0  0  0  0  0
   -6.7871    2.3857    3.5352 F   0  0  0  0  0  0  0  0  0  0  0  0
   -6.4714    1.3527    1.4406 C   0  0  0  0  0  0  0  0  0  0  0  0
   -5.6672    0.5914    0.5879 C   0  0  0  0  0  0  0  0  0  0  0  0
   -1.7586   -0.9311   -2.1653 C   0  0  0  0  0  0  0  0  0  0  0  0
   -0.3642   -0.9484   -2.7815 C   0  0  0  0  0  0  0  0  0  0  0  0
    4.0640    1.2595   -0.9311 C   0  0  0  0  0  0  0  0  0  0  0  0
    7.2041    1.6971   -0.6260 H   0  0  0  0  0  0  0  0  0  0  0  0
    7.7734    2.4625    0.8696 H   0  0  0  0  0  0  0  0  0  0  0  0
    7.3011    0.7526    0.8669 H   0  0  0  0  0  0  0  0  0  0  0  0
    5.5125    2.1997    1.8961 H   0  0  0  0  0  0  0  0  0  0  0  0
    5.4050    3.1335    0.3965 H   0  0  0  0  0  0  0  0  0  0  0  0
    4.4689   -0.1315    1.9722 H   0  0  0  0  0  0  0  0  0  0  0  0
    1.5124   -2.4009   -0.6982 H   0  0  0  0  0  0  0  0  0  0  0  0
    0.6373   -1.2528    0.3225 H   0  0  0  0  0  0  0  0  0  0  0  0
   -0.6805   -3.2717    0.2008 H   0  0  0  0  0  0  0  0  0  0  0  0
   -0.4572   -3.4077   -1.5303 H   0  0  0  0  0  0  0  0  0  0  0  0
   -2.6763   -2.6554   -1.2430 H   0  0  0  0  0  0  0  0  0  0  0  0
   -4.0912   -0.7608   -0.8205 H   0  0  0  0  0  0  0  0  0  0  0  0
   -3.0062    0.1208    2.6735 H   0  0  0  0  0  0  0  0  0  0  0  0
   -4.4382    1.4576    4.1554 H   0  0  0  0  0  0  0  0  0  0  0  0
   -7.4437    1.7108    1.1177 H   0  0  0  0  0  0  0  0  0  0  0  0
   -6.0378    0.3656   -0.4085 H   0  0  0  0  0  0  0  0  0  0  0  0
   -1.9844    0.0956   -1.8491 H   0  0  0  0  0  0  0  0  0  0  0  0
   -2.4919   -1.1806   -2.9418 H   0  0  0  0  0  0  0  0  0  0  0  0
   -0.3113   -0.1467   -3.5251 H   0  0  0  0  0  0  0  0  0  0  0  0
   -0.1694   -1.8937   -3.2999 H   0  0  0  0  0  0  0  0  0  0  0  0
    4.2864    2.0147   -1.6725 H   0  0  0  0  0  0  0  0  0  0  0  0
  1  2  1  0
  2  3  1  0
  3  4  1  0
  4  5  2  0
  5  6  1  0
  6  7  1  0
  7  8  2  0
  7  9  2  0
  7 10  1  0
 10 11  1  0
 11 12  1  0
 12 13  1  0
 13 14  1  0
 14 15  2  0
 14 16  1  0
 16 17  1  0
 17 18  2  0
 18 19  1  0
 19 20  2  0
 20 21  1  0
 20 22  1  0
 22 23  2  0
 13 24  1  0
 24 25  1  0
  6 26  2  0
 26  3  1  0
 25 10  1  0
 23 17  1  0
  1 27  1  0
  1 28  1  0
  1 29  1  0
  2 30  1  0
  2 31  1  0
  4 32  1  0
 11 33  1  0
 11 34  1  0
 12 35  1  0
 12 36  1  0
 13 37  1  0
 16 38  1  0
 18 39  1  0
 19 40  1  0
 22 41  1  0
 23 42  1  0
 24 43  1  0
 24 44  1  0
 25 45  1  0
 25 46  1  0
 26 47  1  0
M  END
$$$$
