
     RDKit          3D

 59 62  0  0  0  0  0  0  0  0999 V2000
    3.4578   -0.2610    1.9269 C   0  0  0  0  0  0  0  0  0  0  0  0
    3.4695    0.3729    0.5737 C   0  0  0  0  0  0  0  0  0  0  0  0
    4.6367    0.7175   -0.1382 C   0  0  0  0  0  0  0  0  0  0  0  0
    6.0491    0.6084    0.1866 C   0  0  0  0  0  0  0  0  0  0  0  0
    6.8889   -0.2534   -0.5342 C   0  0  0  0  0  0  0  0  0  0  0  0
    8.2434   -0.3628   -0.2057 C   0  0  0  0  0  0  0  0  0  0  0  0
    8.7648    0.3872    0.8459 C   0  0  0  0  0  0  0  0  0  0  0  0
   10.4296    0.2473    1.2541 Cl  0  0  0  0  0  0  0  0  0  0  0  0
    7.9441    1.2484    1.5706 C   0  0  0  0  0  0  0  0  0  0  0  0
    6.5898    1.3586    1.2420 C   0  0  0  0  0  0  0  0  0  0  0  0
    4.0302    1.3689   -1.4785 S   0  0  0  0  0  6  0  0  0  0  0  0
    4.6395    2.8020   -1.8742 O   0  0  0  0  0  0  0  0  0  0  0  0
    4.4197    0.4698   -2.7626 O   0  0  0  0  0  0  0  0  0  0  0  0
    2.4782    1.3996   -1.3705 N   0  0  0  0  0  0  0  0  0  0  0  0
    2.2375    0.7631   -0.2101 C   0  0  0  0  0  0  0  0  0  0  0  0
    0.9705    0.5252    0.2669 N   0  0  0  0  0  0  0  0  0  0  0  0
    0.6116   -0.8547    0.6463 C   0  0  0  0  0  0  0  0  0  0  0  0
   -0.8463   -1.1912    0.3306 C   0  0  0  0  0  0  0  0  0  0  0  0
   -1.1798   -0.7889   -1.1060 C   0  0  0  0  0  0  0  0  0  0  0  0
   -2.5745   -1.2151   -1.5670 C   0  0  0  0  0  0  0  0  0  0  0  0
   -2.6517   -1.9635   -2.5492 O   0  0  0  0  0  0  0  0  0  0  0  0
   -3.7222   -0.7822   -0.9195 N   0  0  0  0  0  0  0  0  0  0  0  0
   -5.0036   -1.2889   -1.4194 C   0  0  0  0  0  0  0  0  0  0  0  0
   -6.0758   -1.3312   -0.3366 C   0  0  0  0  0  0  0  0  0  0  0  0
   -6.3088    0.0419    0.3142 C   0  0  0  0  0  0  0  0  0  0  0  0
   -6.6530   -0.1469    1.7867 C   0  0  0  0  0  0  0  0  0  0  0  0
   -7.8439   -0.7693    2.0239 N   0  0  0  0  0  0  0  0  0  0  0  0
   -5.9313    0.1982    2.7150 O   0  0  0  0  0  0  0  0  0  0  0  0
   -5.0994    0.9733    0.1471 C   0  0  0  0  0  0  0  0  0  0  0  0
   -3.7921    0.1875    0.1746 C   0  0  0  0  0  0  0  0  0  0  0  0
   -0.8435    0.6753   -1.4140 C   0  0  0  0  0  0  0  0  0  0  0  0
   -0.1283    1.3579   -0.2492 C   0  0  0  0  0  0  0  0  0  0  0  0
    2.6797    0.1800    2.5575 H   0  0  0  0  0  0  0  0  0  0  0  0
    4.4070   -0.1244    2.4517 H   0  0  0  0  0  0  0  0  0  0  0  0
    3.2779   -1.3363    1.8382 H   0  0  0  0  0  0  0  0  0  0  0  0
    6.5008   -0.8475   -1.3610 H   0  0  0  0  0  0  0  0  0  0  0  0
    8.8825   -1.0324   -0.7761 H   0  0  0  0  0  0  0  0  0  0  0  0
    8.3512    1.8388    2.3876 H   0  0  0  0  0  0  0  0  0  0  0  0
    5.9643    2.0437    1.8122 H   0  0  0  0  0  0  0  0  0  0  0  0
    1.2540   -1.5738    0.1210 H   0  0  0  0  0  0  0  0  0  0  0  0
    0.7730   -0.9916    1.7211 H   0  0  0  0  0  0  0  0  0  0  0  0
   -1.0191   -2.2645    0.4760 H   0  0  0  0  0  0  0  0  0  0  0  0
   -1.4876   -0.6824    1.0546 H   0  0  0  0  0  0  0  0  0  0  0  0
   -0.4996   -1.3859   -1.7354 H   0  0  0  0  0  0  0  0  0  0  0  0
   -4.8766   -2.2937   -1.8379 H   0  0  0  0  0  0  0  0  0  0  0  0
   -5.3149   -0.6319   -2.2408 H   0  0  0  0  0  0  0  0  0  0  0  0
   -5.7748   -2.0669    0.4214 H   0  0  0  0  0  0  0  0  0  0  0  0
   -7.0163   -1.6992   -0.7639 H   0  0  0  0  0  0  0  0  0  0  0  0
   -7.1724    0.5321   -0.1555 H   0  0  0  0  0  0  0  0  0  0  0  0
   -8.1315   -0.8598    2.9907 H   0  0  0  0  0  0  0  0  0  0  0  0
   -8.5403   -0.9067    1.3046 H   0  0  0  0  0  0  0  0  0  0  0  0
   -5.0852    1.7535    0.9167 H   0  0  0  0  0  0  0  0  0  0  0  0
   -5.1810    1.4921   -0.8173 H   0  0  0  0  0  0  0  0  0  0  0  0
   -3.7033   -0.3713    1.1124 H   0  0  0  0  0  0  0  0  0  0  0  0
   -2.9595    0.8850    0.1202 H   0  0  0  0  0  0  0  0  0  0  0  0
   -1.7314    1.2522   -1.6959 H   0  0  0  0  0  0  0  0  0  0  0  0
   -0.1929    0.7008   -2.2983 H   0  0  0  0  0  0  0  0  0  0  0  0
    0.2206    2.3534   -0.5517 H   0  0  0  0  0  0  0  0  0  0  0  0
   -0.8312    1.5429    0.5718 H   0  0  0  0  0  0  0  0  0  0  0  0
  1  2  1  0
  2  3  2  0
  3  4  1  0
  4  5  2  0
  5  6  1  0
  6  7  2  0
  7  8  1  0
  7  9  1  0
  9 10  2  0
  3 11  1  0
 11 12  2  0
 11 13  2  0
 11 14  1  0
 14 15  2  0
 15 16  1  0
 16 17  1  0
 17 18  1  0
 18 19  1  0
 19 20  1  0
 20 21  2  0
 20 22  1  0
 22 23  1  0
 23 24  1  0
 24 25  1  0
 25 26  1  0
 26 27  1  0
 26 28  2  0
 25 29  1  0
 29 30  1  0
 19 31  1  0
 31 32  1  0
 15  2  1  0
 32 16  1  0
 10  4  1  0
 30 22  1  0
  1 33  1  0
  1 34  1  0
  1 35  1  0
  5 36  1  0
  6 37  1  0
  9 38  1  0
 10 39  1  0
 17 40  1  0
 17 41  1  0
 18 42  1  0
 18 43  1  0
 19 44  1  0
 23 45  1  0
 23 46  1  0
 24 47  1  0
 24 48  1  0
 25 49  1  0
 27 50  1  0
 27 51  1  0
 29 52  1  0
 29 53  1  0
 30 54  1  0
 30 55  1  0
 31 56  1  0
 31 57  1  0
 32 58  1  0
 32 59  1  0
M  END
$$$$
