
     RDKit          3D

 49 52  0  0  0  0  0  0  0  0999 V2000
    8.0436   -3.3504   -0.2313 C   0  0  0  0  0  0  0  0  0  0  0  0
    7.9538   -2.1114    0.4660 O   0  0  0  0  0  0  0  0  0  0  0  0
    6.8627   -1.3346    0.1903 C   0  0  0  0  0  0  0  0  0  0  0  0
    6.6709   -0.2614    1.0576 C   0  0  0  0  0  0  0  0  0  0  0  0
    5.5872    0.6070    0.8886 C   0  0  0  0  0  0  0  0  0  0  0  0
    4.6822    0.4227   -0.1597 C   0  0  0  0  0  0  0  0  0  0  0  0
    3.6152    1.3421   -0.2615 N   0  0  0  0  0  0  0  0  0  0  0  0
    2.6385    1.3927   -1.2463 C   0  0  0  0  0  0  0  0  0  0  0  0
    2.5550    0.6549   -2.2253 O   0  0  0  0  0  0  0  0  0  0  0  0
    1.6329    2.5086   -1.0395 C   0  0  0  0  0  0  0  0  0  0  0  0
    0.2837    1.9980   -0.9007 N   0  0  0  0  0  0  0  0  0  0  0  0
   -0.5329    1.6140   -1.9276 C   0  0  0  0  0  0  0  0  0  0  0  0
   -1.7246    1.2687   -1.4935 N   0  0  0  0  0  0  0  0  0  0  0  0
   -1.6650    1.4166   -0.1142 C   0  0  0  0  0  0  0  0  0  0  0  0
   -3.0092    1.0933    0.9617 S   0  0  0  0  0  6  0  0  0  0  0  0
   -3.6684    2.3816    1.0774 O   0  0  0  0  0  0  0  0  0  0  0  0
   -2.3789    0.4702    2.1091 O   0  0  0  0  0  0  0  0  0  0  0  0
   -4.0710   -0.0091    0.2118 N   0  0  0  0  0  0  0  0  0  0  0  0
   -4.6100    0.4299   -1.1178 C   0  0  0  0  0  0  0  0  0  0  0  0
   -6.0647   -0.0627   -1.1943 C   0  0  0  0  0  0  0  0  0  0  0  0
   -6.3436   -0.4963    0.2041 C   0  0  0  0  0  0  0  0  0  0  0  0
   -7.5515   -0.9330    0.7274 C   0  0  0  0  0  0  0  0  0  0  0  0
   -7.5839   -1.3457    2.0618 C   0  0  0  0  0  0  0  0  0  0  0  0
   -6.4164   -1.3355    2.8381 C   0  0  0  0  0  0  0  0  0  0  0  0
   -5.2054   -0.8941    2.2967 C   0  0  0  0  0  0  0  0  0  0  0  0
   -5.1927   -0.4474    0.9858 C   0  0  0  0  0  0  0  0  0  0  0  0
   -0.4191    1.8816    0.2653 C   0  0  0  0  0  0  0  0  0  0  0  0
    4.8840   -0.6448   -1.0317 C   0  0  0  0  0  0  0  0  0  0  0  0
    5.9680   -1.5191   -0.8577 C   0  0  0  0  0  0  0  0  0  0  0  0
    8.8990   -3.8988    0.1708 H   0  0  0  0  0  0  0  0  0  0  0  0
    8.2212   -3.1921   -1.3004 H   0  0  0  0  0  0  0  0  0  0  0  0
    7.1515   -3.9625   -0.0643 H   0  0  0  0  0  0  0  0  0  0  0  0
    7.3682   -0.1034    1.8777 H   0  0  0  0  0  0  0  0  0  0  0  0
    5.4713    1.4272    1.5947 H   0  0  0  0  0  0  0  0  0  0  0  0
    3.5796    2.0381    0.4745 H   0  0  0  0  0  0  0  0  0  0  0  0
    1.6595    3.1748   -1.9078 H   0  0  0  0  0  0  0  0  0  0  0  0
    1.8591    3.1075   -0.1533 H   0  0  0  0  0  0  0  0  0  0  0  0
   -0.2104    1.6056   -2.9622 H   0  0  0  0  0  0  0  0  0  0  0  0
   -4.0152   -0.0089   -1.9245 H   0  0  0  0  0  0  0  0  0  0  0  0
   -4.5915    1.5184   -1.2275 H   0  0  0  0  0  0  0  0  0  0  0  0
   -6.7372    0.7404   -1.5150 H   0  0  0  0  0  0  0  0  0  0  0  0
   -6.1531   -0.9073   -1.8822 H   0  0  0  0  0  0  0  0  0  0  0  0
   -8.4524   -0.9529    0.1216 H   0  0  0  0  0  0  0  0  0  0  0  0
   -8.5180   -1.6909    2.4992 H   0  0  0  0  0  0  0  0  0  0  0  0
   -6.4500   -1.6809    3.8700 H   0  0  0  0  0  0  0  0  0  0  0  0
   -4.3060   -0.9118    2.9033 H   0  0  0  0  0  0  0  0  0  0  0  0
   -0.0135    2.1240    1.2394 H   0  0  0  0  0  0  0  0  0  0  0  0
    4.2147   -0.8363   -1.8612 H   0  0  0  0  0  0  0  0  0  0  0  0
    6.0830   -2.3269   -1.5710 H   0  0  0  0  0  0  0  0  0  0  0  0
  1  2  1  0
  2  3  1  0
  3  4  2  0
  4  5  1  0
  5  6  2  0
  6  7  1  0
  7  8  1  0
  8  9  2  0
  8 10  1  0
 10 11  1  0
 11 12  1  0
 12 13  2  0
 13 14  1  0
 14 15  1  0
 15 16  2  0
 15 17  2  0
 15 18  1  0
 18 19  1  0
 19 20  1  0
 20 21  1  0
 21 22  2  0
 22 23  1  0
 23 24  2  0
 24 25  1  0
 25 26  2  0
 14 27  2  0
  6 28  1  0
 28 29  2  0
 29  3  1  0
 27 11  1  0
 26 18  1  0
 26 21  1  0
  1 30  1  0
  1 31  1  0
  1 32  1  0
  4 33  1  0
  5 34  1  0
  7 35  1  0
 10 36  1  0
 10 37  1  0
 12 38  1  0
 19 39  1  0
 19 40  1  0
 20 41  1  0
 20 42  1  0
 22 43  1  0
 23 44  1  0
 24 45  1  0
 25 46  1  0
 27 47  1  0
 28 48  1  0
 29 49  1  0
M  END
$$$$
