
     RDKit          3D

 44 45  0  0  0  0  0  0  0  0999 V2000
    6.7559    0.3134    0.9757 C   0  0  0  0  0  0  0  0  0  0  0  0
    5.6108   -0.2132    1.8272 C   0  0  0  0  0  0  0  0  0  0  0  0
    4.3077   -0.2216    1.0706 C   0  0  0  0  0  0  0  0  0  0  0  0
    3.4679    0.8960    1.0842 C   0  0  0  0  0  0  0  0  0  0  0  0
    2.2677    0.8877    0.3670 C   0  0  0  0  0  0  0  0  0  0  0  0
    1.8861   -0.2336   -0.3802 C   0  0  0  0  0  0  0  0  0  0  0  0
    0.6607   -0.1528   -1.0724 N   0  0  0  0  0  0  0  0  0  0  0  0
    0.0458   -1.1336   -1.8360 C   0  0  0  0  0  0  0  0  0  0  0  0
    0.5045   -2.2502   -2.0711 O   0  0  0  0  0  0  0  0  0  0  0  0
   -1.2578   -0.6983   -2.4782 C   0  0  0  0  0  0  0  0  0  0  0  0
   -2.2443   -0.2682   -1.5040 N   0  0  0  0  0  0  0  0  0  0  0  0
   -3.2197   -1.1142   -1.1210 N   0  0  0  0  0  0  0  0  0  0  0  0
   -3.8920   -0.4391   -0.1834 C   0  0  0  0  0  0  0  0  0  0  0  0
   -5.2429   -1.1774    0.6470 S   0  0  0  0  0  0  0  0  0  0  0  0
   -5.5373   -2.6516   -0.3542 C   0  0  0  0  0  0  0  0  0  0  0  0
   -3.3513    0.8438    0.0296 C   0  0  0  0  0  0  0  0  0  0  0  0
   -3.8791    2.0295    1.1452 S   0  0  0  0  0  6  0  0  0  0  0  0
   -3.5855    1.3362    2.7491 C   0  0  0  0  0  0  0  0  0  0  0  0
   -5.2998    2.1757    0.9132 O   0  0  0  0  0  0  0  0  0  0  0  0
   -2.9661    3.1443    0.9529 O   0  0  0  0  0  0  0  0  0  0  0  0
   -2.3030    0.9489   -0.8644 C   0  0  0  0  0  0  0  0  0  0  0  0
   -1.4075    1.9489   -1.1101 N   0  0  0  0  0  0  0  0  0  0  0  0
    2.7269   -1.3455   -0.3992 C   0  0  0  0  0  0  0  0  0  0  0  0
    3.9290   -1.3389    0.3185 C   0  0  0  0  0  0  0  0  0  0  0  0
    6.5661    1.3405    0.6459 H   0  0  0  0  0  0  0  0  0  0  0  0
    6.9038   -0.3039    0.0831 H   0  0  0  0  0  0  0  0  0  0  0  0
    7.6878    0.3083    1.5498 H   0  0  0  0  0  0  0  0  0  0  0  0
    5.8427   -1.2276    2.1740 H   0  0  0  0  0  0  0  0  0  0  0  0
    5.5086    0.4000    2.7309 H   0  0  0  0  0  0  0  0  0  0  0  0
    3.7419    1.7817    1.6530 H   0  0  0  0  0  0  0  0  0  0  0  0
    1.6367    1.7723    0.4030 H   0  0  0  0  0  0  0  0  0  0  0  0
    0.1484    0.7213   -0.9467 H   0  0  0  0  0  0  0  0  0  0  0  0
   -1.6849   -1.5345   -3.0428 H   0  0  0  0  0  0  0  0  0  0  0  0
   -1.0741    0.1236   -3.1773 H   0  0  0  0  0  0  0  0  0  0  0  0
   -5.7507   -2.3811   -1.3922 H   0  0  0  0  0  0  0  0  0  0  0  0
   -6.4044   -3.1851    0.0450 H   0  0  0  0  0  0  0  0  0  0  0  0
   -4.6770   -3.3257   -0.3187 H   0  0  0  0  0  0  0  0  0  0  0  0
   -2.5350    1.0489    2.8255 H   0  0  0  0  0  0  0  0  0  0  0  0
   -3.8085    2.1071    3.4905 H   0  0  0  0  0  0  0  0  0  0  0  0
   -4.2369    0.4790    2.9139 H   0  0  0  0  0  0  0  0  0  0  0  0
   -1.2858    2.2315   -2.0866 H   0  0  0  0  0  0  0  0  0  0  0  0
   -1.6047    2.8159   -0.5804 H   0  0  0  0  0  0  0  0  0  0  0  0
    2.4819   -2.2392   -0.9640 H   0  0  0  0  0  0  0  0  0  0  0  0
    4.5675   -2.2192    0.2822 H   0  0  0  0  0  0  0  0  0  0  0  0
  1  2  1  0
  2  3  1  0
  3  4  2  0
  4  5  1  0
  5  6  2  0
  6  7  1  0
  7  8  1  0
  8  9  2  0
  8 10  1  0
 10 11  1  0
 11 12  1  0
 12 13  2  0
 13 14  1  0
 14 15  1  0
 13 16  1  0
 16 17  1  0
 17 18  1  0
 17 19  2  0
 17 20  2  0
 16 21  2  0
 21 22  1  0
  6 23  1  0
 23 24  2  0
 24  3  1  0
 21 11  1  0
  1 25  1  0
  1 26  1  0
  1 27  1  0
  2 28  1  0
  2 29  1  0
  4 30  1  0
  5 31  1  0
  7 32  1  0
 10 33  1  0
 10 34  1  0
 15 35  1  0
 15 36  1  0
 15 37  1  0
 18 38  1  0
 18 39  1  0
 18 40  1  0
 22 41  1  0
 22 42  1  0
 23 43  1  0
 24 44  1  0
M  END
$$$$
