
     RDKit          3D

 55 57  0  0  0  0  0  0  0  0999 V2000
   -5.1797    1.5787   -0.1019 C   0  0  0  0  0  0  0  0  0  0  0  0
   -5.8431    0.4358    0.6453 C   0  0  0  0  0  0  0  0  0  0  0  0
   -4.8900   -0.3890    1.4094 N   0  0  0  0  0  0  0  0  0  0  0  0
   -4.3027    0.2070    2.6215 C   0  0  0  0  0  0  0  0  0  0  0  0
   -5.0782   -0.2574    3.8428 C   0  0  0  0  0  0  0  0  0  0  0  0
   -4.1853   -1.7601    0.7219 S   0  0  0  0  0  6  0  0  0  0  0  0
   -5.1508   -2.3650   -0.1726 O   0  0  0  0  0  0  0  0  0  0  0  0
   -3.5663   -2.5341    1.7785 O   0  0  0  0  0  0  0  0  0  0  0  0
   -2.8673   -1.1062   -0.2809 C   0  0  0  0  0  0  0  0  0  0  0  0
   -3.0374   -0.9990   -1.6617 C   0  0  0  0  0  0  0  0  0  0  0  0
   -2.0040   -0.5144   -2.4696 C   0  0  0  0  0  0  0  0  0  0  0  0
   -0.7887   -0.1654   -1.8557 C   0  0  0  0  0  0  0  0  0  0  0  0
   -0.5967   -0.2949   -0.4787 C   0  0  0  0  0  0  0  0  0  0  0  0
   -1.6462   -0.7812    0.3238 C   0  0  0  0  0  0  0  0  0  0  0  0
    0.7229    0.1391   -0.1971 C   0  0  0  0  0  0  0  0  0  0  0  0
    1.3373    0.5004   -1.3855 C   0  0  0  0  0  0  0  0  0  0  0  0
    2.6655    1.0490   -1.5961 C   0  0  0  0  0  0  0  0  0  0  0  0
    2.8426    2.0046   -2.3519 O   0  0  0  0  0  0  0  0  0  0  0  0
    3.7317    0.4725   -0.9119 N   0  0  0  0  0  0  0  0  0  0  0  0
    5.0306    1.1419   -0.9972 C   0  0  0  0  0  0  0  0  0  0  0  0
    6.1572    0.4099   -0.2381 C   0  0  0  0  0  0  0  0  0  0  0  0
    5.6945   -0.0919    1.0625 N   0  0  0  0  0  0  0  0  0  0  0  0
    6.7754   -0.6900    1.8364 C   0  0  0  0  0  0  0  0  0  0  0  0
    4.5485   -1.0134    0.9190 C   0  0  0  0  0  0  0  0  0  0  0  0
    3.7766   -0.9025   -0.4151 C   0  0  0  0  0  0  0  0  0  0  0  0
    0.3893    0.3356   -2.3799 N   0  0  0  0  0  0  0  0  0  0  0  0
    0.6177    0.6345   -3.7799 C   0  0  0  0  0  0  0  0  0  0  0  0
   -5.9411    2.1903   -0.5968 H   0  0  0  0  0  0  0  0  0  0  0  0
   -4.6111    2.2323    0.5652 H   0  0  0  0  0  0  0  0  0  0  0  0
   -4.4990    1.2172   -0.8739 H   0  0  0  0  0  0  0  0  0  0  0  0
   -6.4084   -0.1847   -0.0574 H   0  0  0  0  0  0  0  0  0  0  0  0
   -6.5867    0.8411    1.3423 H   0  0  0  0  0  0  0  0  0  0  0  0
   -3.2504   -0.0694    2.7284 H   0  0  0  0  0  0  0  0  0  0  0  0
   -4.3254    1.2997    2.5709 H   0  0  0  0  0  0  0  0  0  0  0  0
   -6.1299    0.0394    3.7789 H   0  0  0  0  0  0  0  0  0  0  0  0
   -5.0448   -1.3469    3.9432 H   0  0  0  0  0  0  0  0  0  0  0  0
   -4.6549    0.1814    4.7514 H   0  0  0  0  0  0  0  0  0  0  0  0
   -3.9794   -1.2861   -2.1255 H   0  0  0  0  0  0  0  0  0  0  0  0
   -2.1510   -0.4199   -3.5410 H   0  0  0  0  0  0  0  0  0  0  0  0
   -1.4994   -0.9082    1.3922 H   0  0  0  0  0  0  0  0  0  0  0  0
    1.1819    0.1963    0.7821 H   0  0  0  0  0  0  0  0  0  0  0  0
    4.9004    2.1547   -0.5957 H   0  0  0  0  0  0  0  0  0  0  0  0
    5.3056    1.2395   -2.0542 H   0  0  0  0  0  0  0  0  0  0  0  0
    6.5290   -0.4222   -0.8512 H   0  0  0  0  0  0  0  0  0  0  0  0
    6.9923    1.1086   -0.1074 H   0  0  0  0  0  0  0  0  0  0  0  0
    7.5741    0.0395    2.0097 H   0  0  0  0  0  0  0  0  0  0  0  0
    6.4142   -1.0023    2.8226 H   0  0  0  0  0  0  0  0  0  0  0  0
    7.2092   -1.5611    1.3327 H   0  0  0  0  0  0  0  0  0  0  0  0
    3.8568   -0.7959    1.7416 H   0  0  0  0  0  0  0  0  0  0  0  0
    4.8559   -2.0609    1.0340 H   0  0  0  0  0  0  0  0  0  0  0  0
    4.2956   -1.4864   -1.1869 H   0  0  0  0  0  0  0  0  0  0  0  0
    2.7889   -1.3536   -0.3162 H   0  0  0  0  0  0  0  0  0  0  0  0
   -0.0960    0.0889   -4.4003 H   0  0  0  0  0  0  0  0  0  0  0  0
    1.6268    0.3174   -4.0548 H   0  0  0  0  0  0  0  0  0  0  0  0
    0.4936    1.7107   -3.9214 H   0  0  0  0  0  0  0  0  0  0  0  0
  1  2  1  0
  2  3  1  0
  3  4  1  0
  4  5  1  0
  3  6  1  0
  6  7  2  0
  6  8  2  0
  6  9  1  0
  9 10  2  0
 10 11  1  0
 11 12  2  0
 12 13  1  0
 13 14  2  0
 13 15  1  0
 15 16  2  0
 16 17  1  0
 17 18  2  0
 17 19  1  0
 19 20  1  0
 20 21  1  0
 21 22  1  0
 22 23  1  0
 22 24  1  0
 24 25  1  0
 16 26  1  0
 26 27  1  0
 14  9  1  0
 25 19  1  0
 26 12  1  0
  1 28  1  0
  1 29  1  0
  1 30  1  0
  2 31  1  0
  2 32  1  0
  4 33  1  0
  4 34  1  0
  5 35  1  0
  5 36  1  0
  5 37  1  0
 10 38  1  0
 11 39  1  0
 14 40  1  0
 15 41  1  0
 20 42  1  0
 20 43  1  0
 21 44  1  0
 21 45  1  0
 23 46  1  0
 23 47  1  0
 23 48  1  0
 24 49  1  0
 24 50  1  0
 25 51  1  0
 25 52  1  0
 27 53  1  0
 27 54  1  0
 27 55  1  0
M  END
$$$$
