
     RDKit          3D

 52 54  0  0  0  0  0  0  0  0999 V2000
   -5.9604    1.8568    0.9592 C   0  0  0  0  0  0  0  0  0  0  0  0
   -6.2863    0.9247   -0.1961 C   0  0  0  0  0  0  0  0  0  0  0  0
   -5.6047   -0.3689   -0.1022 N   0  0  0  0  0  0  0  0  0  0  0  0
   -6.2199   -1.4051    0.7307 C   0  0  0  0  0  0  0  0  0  0  0  0
   -5.6258   -1.4820    2.1298 C   0  0  0  0  0  0  0  0  0  0  0  0
   -4.3429   -0.6361   -0.6427 C   0  0  0  0  0  0  0  0  0  0  0  0
   -3.8081   -1.7407   -0.5100 O   0  0  0  0  0  0  0  0  0  0  0  0
   -3.6785    0.4740   -1.4757 C   0  0  0  0  0  0  0  0  0  0  0  0
   -2.2568    0.2084   -1.6947 N   0  0  0  0  0  0  0  0  0  0  0  0
   -1.8558   -0.5418   -2.7940 C   0  0  0  0  0  0  0  0  0  0  0  0
   -0.5643   -0.8448   -2.9774 C   0  0  0  0  0  0  0  0  0  0  0  0
    0.3876   -0.4226   -2.0616 N   0  0  0  0  0  0  0  0  0  0  0  0
    1.7234   -0.6273   -2.1059 N   0  0  0  0  0  0  0  0  0  0  0  0
    2.2185   -0.0477   -0.9989 C   0  0  0  0  0  0  0  0  0  0  0  0
    3.6565   -0.0780   -0.6974 C   0  0  0  0  0  0  0  0  0  0  0  0
    4.5723   -0.5111   -1.6650 C   0  0  0  0  0  0  0  0  0  0  0  0
    5.9445   -0.5402   -1.3975 C   0  0  0  0  0  0  0  0  0  0  0  0
    6.4284   -0.1378   -0.1510 C   0  0  0  0  0  0  0  0  0  0  0  0
    7.7551   -0.1308    0.2018 O   0  0  0  0  0  0  0  0  0  0  0  0
    8.6958   -0.5696   -0.7673 C   0  0  0  0  0  0  0  0  0  0  0  0
    5.5208    0.2944    0.8363 C   0  0  0  0  0  0  0  0  0  0  0  0
    6.0746    0.6708    2.0364 O   0  0  0  0  0  0  0  0  0  0  0  0
    5.1944    1.0552    3.0821 C   0  0  0  0  0  0  0  0  0  0  0  0
    4.1466    0.3216    0.5559 C   0  0  0  0  0  0  0  0  0  0  0  0
    1.1766    0.5538   -0.2475 C   0  0  0  0  0  0  0  0  0  0  0  0
    0.0241    0.3002   -0.9518 C   0  0  0  0  0  0  0  0  0  0  0  0
   -1.3531    0.6458   -0.7062 C   0  0  0  0  0  0  0  0  0  0  0  0
   -1.7098    1.2866    0.2804 O   0  0  0  0  0  0  0  0  0  0  0  0
   -6.3984    2.8441    0.7821 H   0  0  0  0  0  0  0  0  0  0  0  0
   -4.8805    1.9776    1.0879 H   0  0  0  0  0  0  0  0  0  0  0  0
   -6.3708    1.4782    1.8993 H   0  0  0  0  0  0  0  0  0  0  0  0
   -6.0128    1.4097   -1.1377 H   0  0  0  0  0  0  0  0  0  0  0  0
   -7.3666    0.7477   -0.2477 H   0  0  0  0  0  0  0  0  0  0  0  0
   -6.0811   -2.3731    0.2347 H   0  0  0  0  0  0  0  0  0  0  0  0
   -7.2998   -1.2299    0.7857 H   0  0  0  0  0  0  0  0  0  0  0  0
   -6.0985   -2.2917    2.6947 H   0  0  0  0  0  0  0  0  0  0  0  0
   -4.5491   -1.6752    2.0987 H   0  0  0  0  0  0  0  0  0  0  0  0
   -5.7796   -0.5524    2.6835 H   0  0  0  0  0  0  0  0  0  0  0  0
   -3.7733    1.4348   -0.9630 H   0  0  0  0  0  0  0  0  0  0  0  0
   -4.1890    0.5436   -2.4428 H   0  0  0  0  0  0  0  0  0  0  0  0
   -2.6241   -0.8773   -3.4841 H   0  0  0  0  0  0  0  0  0  0  0  0
   -0.1988   -1.4249   -3.8140 H   0  0  0  0  0  0  0  0  0  0  0  0
    4.2222   -0.8306   -2.6453 H   0  0  0  0  0  0  0  0  0  0  0  0
    6.6044   -0.8834   -2.1868 H   0  0  0  0  0  0  0  0  0  0  0  0
    9.6925   -0.5010   -0.3209 H   0  0  0  0  0  0  0  0  0  0  0  0
    8.5251   -1.6166   -1.0384 H   0  0  0  0  0  0  0  0  0  0  0  0
    8.6832    0.0763   -1.6514 H   0  0  0  0  0  0  0  0  0  0  0  0
    4.5209    0.2360    3.3543 H   0  0  0  0  0  0  0  0  0  0  0  0
    4.6347    1.9574    2.8146 H   0  0  0  0  0  0  0  0  0  0  0  0
    5.8022    1.2908    3.9611 H   0  0  0  0  0  0  0  0  0  0  0  0
    3.4448    0.6485    1.3138 H   0  0  0  0  0  0  0  0  0  0  0  0
    1.2397    1.1037    0.6807 H   0  0  0  0  0  0  0  0  0  0  0  0
  1  2  1  0
  2  3  1  0
  3  4  1  0
  4  5  1  0
  3  6  1  0
  6  7  2  0
  6  8  1  0
  8  9  1  0
  9 10  1  0
 10 11  2  0
 11 12  1  0
 12 13  1  0
 13 14  2  0
 14 15  1  0
 15 16  2  0
 16 17  1  0
 17 18  2  0
 18 19  1  0
 19 20  1  0
 18 21  1  0
 21 22  1  0
 22 23  1  0
 21 24  2  0
 14 25  1  0
 25 26  2  0
 26 27  1  0
 27 28  2  0
 27  9  1  0
 26 12  1  0
 24 15  1  0
  1 29  1  0
  1 30  1  0
  1 31  1  0
  2 32  1  0
  2 33  1  0
  4 34  1  0
  4 35  1  0
  5 36  1  0
  5 37  1  0
  5 38  1  0
  8 39  1  0
  8 40  1  0
 10 41  1  0
 11 42  1  0
 16 43  1  0
 17 44  1  0
 20 45  1  0
 20 46  1  0
 20 47  1  0
 23 48  1  0
 23 49  1  0
 23 50  1  0
 24 51  1  0
 25 52  1  0
M  END
$$$$
