
     RDKit          3D

 63 66  0  0  0  0  0  0  0  0999 V2000
    3.4786    3.7140   -0.3938 C   0  0  0  0  0  0  0  0  0  0  0  0
    2.8138    2.7321   -1.3493 C   0  0  0  0  0  0  0  0  0  0  0  0
    1.9535    1.6770   -0.6477 C   0  0  0  0  0  0  0  0  0  0  0  0
    2.7564    0.7718    0.2921 C   0  0  0  0  0  0  0  0  0  0  0  0
    1.9296   -0.3111    0.8381 N   0  0  0  0  0  0  0  0  0  0  0  0
    1.1538   -0.0107    1.9659 C   0  0  0  0  0  0  0  0  0  0  0  0
    1.2337    1.0489    2.5833 O   0  0  0  0  0  0  0  0  0  0  0  0
    0.1495   -1.0253    2.3913 C   0  0  0  0  0  0  0  0  0  0  0  0
   -0.4396   -0.9239    3.6568 C   0  0  0  0  0  0  0  0  0  0  0  0
   -1.4031   -1.8519    4.0539 C   0  0  0  0  0  0  0  0  0  0  0  0
   -1.7882   -2.8744    3.1862 C   0  0  0  0  0  0  0  0  0  0  0  0
   -1.2129   -2.9751    1.9183 C   0  0  0  0  0  0  0  0  0  0  0  0
   -0.2373   -2.0523    1.5121 C   0  0  0  0  0  0  0  0  0  0  0  0
    0.3852   -2.1263    0.1268 C   0  0  0  0  0  0  0  0  0  0  0  0
   -0.3794   -1.3432   -0.9601 C   0  0  0  0  0  0  0  0  0  0  0  0
   -0.0169   -1.3705   -2.1390 O   0  0  0  0  0  0  0  0  0  0  0  0
   -1.5062   -0.6412   -0.5752 N   0  0  0  0  0  0  0  0  0  0  0  0
   -2.1906    0.2255   -1.5168 C   0  0  0  0  0  0  0  0  0  0  0  0
   -3.6047    0.6026   -1.0480 C   0  0  0  0  0  0  0  0  0  0  0  0
   -3.5943    1.5728    0.1521 C   0  0  0  0  0  0  0  0  0  0  0  0
   -3.8948    2.9980   -0.2869 C   0  0  0  0  0  0  0  0  0  0  0  0
   -5.1886    3.1112   -0.8786 O   0  0  0  0  0  0  0  0  0  0  0  0
   -5.5692    2.0257   -1.7282 C   0  0  0  0  0  0  0  0  0  0  0  0
   -4.3959    1.1949   -2.2266 C   0  0  0  0  0  0  0  0  0  0  0  0
    1.8765   -1.6739    0.2181 C   0  0  0  0  0  0  0  0  0  0  0  0
    2.6306   -1.8392   -1.1297 C   0  0  0  0  0  0  0  0  0  0  0  0
    4.0864   -2.2012   -0.8083 C   0  0  0  0  0  0  0  0  0  0  0  0
    4.1424   -2.4412    0.6923 C   0  0  0  0  0  0  0  0  0  0  0  0
    2.6935   -2.6639    1.1001 C   0  0  0  0  0  0  0  0  0  0  0  0
    4.2225    3.2132    0.2353 H   0  0  0  0  0  0  0  0  0  0  0  0
    3.9974    4.5003   -0.9546 H   0  0  0  0  0  0  0  0  0  0  0  0
    2.7345    4.1939    0.2536 H   0  0  0  0  0  0  0  0  0  0  0  0
    3.5836    2.2353   -1.9512 H   0  0  0  0  0  0  0  0  0  0  0  0
    2.1801    3.2973   -2.0447 H   0  0  0  0  0  0  0  0  0  0  0  0
    1.4647    1.0689   -1.4170 H   0  0  0  0  0  0  0  0  0  0  0  0
    1.1428    2.1676   -0.0912 H   0  0  0  0  0  0  0  0  0  0  0  0
    3.6427    0.3673   -0.2003 H   0  0  0  0  0  0  0  0  0  0  0  0
    3.1286    1.3687    1.1324 H   0  0  0  0  0  0  0  0  0  0  0  0
   -0.1439   -0.1259    4.3370 H   0  0  0  0  0  0  0  0  0  0  0  0
   -1.8528   -1.7781    5.0423 H   0  0  0  0  0  0  0  0  0  0  0  0
   -2.5393   -3.5968    3.5016 H   0  0  0  0  0  0  0  0  0  0  0  0
   -1.5323   -3.7764    1.2538 H   0  0  0  0  0  0  0  0  0  0  0  0
    0.3561   -3.1779   -0.1974 H   0  0  0  0  0  0  0  0  0  0  0  0
   -1.6543   -0.4669    0.4115 H   0  0  0  0  0  0  0  0  0  0  0  0
   -2.2413   -0.2972   -2.4808 H   0  0  0  0  0  0  0  0  0  0  0  0
   -1.5700    1.1194   -1.6587 H   0  0  0  0  0  0  0  0  0  0  0  0
   -4.1098   -0.3185   -0.7227 H   0  0  0  0  0  0  0  0  0  0  0  0
   -4.3796    1.2530    0.8535 H   0  0  0  0  0  0  0  0  0  0  0  0
   -2.6449    1.5427    0.6982 H   0  0  0  0  0  0  0  0  0  0  0  0
   -3.1452    3.3545   -1.0035 H   0  0  0  0  0  0  0  0  0  0  0  0
   -3.8656    3.6751    0.5738 H   0  0  0  0  0  0  0  0  0  0  0  0
   -6.1186    2.4462   -2.5778 H   0  0  0  0  0  0  0  0  0  0  0  0
   -6.2732    1.3927   -1.1709 H   0  0  0  0  0  0  0  0  0  0  0  0
   -3.7407    1.8306   -2.8366 H   0  0  0  0  0  0  0  0  0  0  0  0
   -4.7547    0.3885   -2.8785 H   0  0  0  0  0  0  0  0  0  0  0  0
    2.2103   -2.6830   -1.6966 H   0  0  0  0  0  0  0  0  0  0  0  0
    2.5680   -0.9602   -1.7804 H   0  0  0  0  0  0  0  0  0  0  0  0
    4.3754   -3.1074   -1.3546 H   0  0  0  0  0  0  0  0  0  0  0  0
    4.7847   -1.4116   -1.1084 H   0  0  0  0  0  0  0  0  0  0  0  0
    4.7781   -3.2944    0.9519 H   0  0  0  0  0  0  0  0  0  0  0  0
    4.5501   -1.5592    1.1989 H   0  0  0  0  0  0  0  0  0  0  0  0
    2.4137   -3.7010    0.8738 H   0  0  0  0  0  0  0  0  0  0  0  0
    2.5710   -2.5100    2.1762 H   0  0  0  0  0  0  0  0  0  0  0  0
  1  2  1  0
  2  3  1  0
  3  4  1  0
  4  5  1  0
  5  6  1  0
  6  7  2  0
  6  8  1  0
  8  9  2  0
  9 10  1  0
 10 11  2  0
 11 12  1  0
 12 13  2  0
 13 14  1  0
 14 15  1  0
 15 16  2  0
 15 17  1  0
 17 18  1  0
 18 19  1  0
 19 20  1  0
 20 21  1  0
 21 22  1  0
 22 23  1  0
 23 24  1  0
 14 25  1  0
 25 26  1  0
 26 27  1  0
 27 28  1  0
 28 29  1  0
 25  5  1  0
 13  8  1  0
 24 19  1  0
 29 25  1  0
  1 30  1  0
  1 31  1  0
  1 32  1  0
  2 33  1  0
  2 34  1  0
  3 35  1  0
  3 36  1  0
  4 37  1  0
  4 38  1  0
  9 39  1  0
 10 40  1  0
 11 41  1  0
 12 42  1  0
 14 43  1  0
 17 44  1  0
 18 45  1  0
 18 46  1  0
 19 47  1  0
 20 48  1  0
 20 49  1  0
 21 50  1  0
 21 51  1  0
 23 52  1  0
 23 53  1  0
 24 54  1  0
 24 55  1  0
 26 56  1  0
 26 57  1  0
 27 58  1  0
 27 59  1  0
 28 60  1  0
 28 61  1  0
 29 62  1  0
 29 63  1  0
M  END
$$$$
