
     RDKit          3D

 66 68  0  0  0  0  0  0  0  0999 V2000
    7.4840    1.7379   -1.5388 C   0  0  0  0  0  0  0  0  0  0  0  0
    7.4711    1.5248   -0.0283 C   0  0  0  0  0  0  0  0  0  0  0  0
    6.3206    0.8131    0.5313 N   0  0  0  0  0  0  0  0  0  0  0  0
    5.0449    1.5220    0.3603 C   0  0  0  0  0  0  0  0  0  0  0  0
    3.8752    0.7698    1.0413 C   0  0  0  0  0  0  0  0  0  0  0  0
    3.7119   -0.6440    0.6281 N   0  0  0  0  0  0  0  0  0  0  0  0
    3.1480   -0.7359   -0.7285 C   0  0  0  0  0  0  0  0  0  0  0  0
    2.7093   -2.1470   -1.1466 C   0  0  0  0  0  0  0  0  0  0  0  0
    1.7853   -2.8499   -0.1523 C   0  0  0  0  0  0  0  0  0  0  0  0
    0.5740   -2.1167    0.1519 N   0  0  0  0  0  0  0  0  0  0  0  0
   -0.4782   -2.0320   -0.7276 C   0  0  0  0  0  0  0  0  0  0  0  0
   -0.4349   -2.5029   -1.8589 O   0  0  0  0  0  0  0  0  0  0  0  0
   -1.6623   -1.4006   -0.1802 C   0  0  0  0  0  0  0  0  0  0  0  0
   -2.9582   -1.8715   -0.3160 C   0  0  0  0  0  0  0  0  0  0  0  0
   -3.8411   -0.9875    0.3492 C   0  0  0  0  0  0  0  0  0  0  0  0
   -5.2349   -0.9790    0.5481 C   0  0  0  0  0  0  0  0  0  0  0  0
   -5.8115    0.0928    1.2415 C   0  0  0  0  0  0  0  0  0  0  0  0
   -7.5736    0.1095    1.5060 S   0  0  0  0  0  6  0  0  0  0  0  0
   -7.8340    0.9781    2.6352 O   0  0  0  0  0  0  0  0  0  0  0  0
   -8.0261   -1.2656    1.5057 O   0  0  0  0  0  0  0  0  0  0  0  0
   -8.1696    0.8727    0.1051 N   0  0  0  0  0  0  0  0  0  0  0  0
   -8.0764    0.1181   -1.1565 C   0  0  0  0  0  0  0  0  0  0  0  0
   -7.8596    2.3038   -0.0514 C   0  0  0  0  0  0  0  0  0  0  0  0
   -5.0266    1.1177    1.7706 C   0  0  0  0  0  0  0  0  0  0  0  0
   -3.6415    1.1173    1.5834 C   0  0  0  0  0  0  0  0  0  0  0  0
   -3.0673    0.0522    0.8667 C   0  0  0  0  0  0  0  0  0  0  0  0
   -1.7486   -0.2079    0.5186 N   0  0  0  0  0  0  0  0  0  0  0  0
   -0.6586    0.7336    0.7417 C   0  0  0  0  0  0  0  0  0  0  0  0
   -0.1182    0.7055    2.1627 C   0  0  0  0  0  0  0  0  0  0  0  0
    5.0261   -1.3142    0.7590 C   0  0  0  0  0  0  0  0  0  0  0  0
    6.2104   -0.5818    0.0806 C   0  0  0  0  0  0  0  0  0  0  0  0
    6.6308    2.3346   -1.8735 H   0  0  0  0  0  0  0  0  0  0  0  0
    7.4833    0.7898   -2.0840 H   0  0  0  0  0  0  0  0  0  0  0  0
    8.3924    2.2780   -1.8252 H   0  0  0  0  0  0  0  0  0  0  0  0
    8.3862    0.9895    0.2556 H   0  0  0  0  0  0  0  0  0  0  0  0
    7.5482    2.5038    0.4619 H   0  0  0  0  0  0  0  0  0  0  0  0
    4.8084    1.6625   -0.7009 H   0  0  0  0  0  0  0  0  0  0  0  0
    5.1163    2.5191    0.8117 H   0  0  0  0  0  0  0  0  0  0  0  0
    2.9410    1.3210    0.8773 H   0  0  0  0  0  0  0  0  0  0  0  0
    4.0342    0.7860    2.1280 H   0  0  0  0  0  0  0  0  0  0  0  0
    2.2615   -0.0930   -0.7856 H   0  0  0  0  0  0  0  0  0  0  0  0
    3.8433   -0.3508   -1.4836 H   0  0  0  0  0  0  0  0  0  0  0  0
    2.2068   -2.0690   -2.1187 H   0  0  0  0  0  0  0  0  0  0  0  0
    3.5899   -2.7781   -1.3143 H   0  0  0  0  0  0  0  0  0  0  0  0
    2.3026   -3.0271    0.7964 H   0  0  0  0  0  0  0  0  0  0  0  0
    1.4963   -3.8282   -0.5532 H   0  0  0  0  0  0  0  0  0  0  0  0
    0.3834   -1.9386    1.1268 H   0  0  0  0  0  0  0  0  0  0  0  0
   -3.2297   -2.7798   -0.8400 H   0  0  0  0  0  0  0  0  0  0  0  0
   -5.8461   -1.7910    0.1627 H   0  0  0  0  0  0  0  0  0  0  0  0
   -8.7526    0.5593   -1.8972 H   0  0  0  0  0  0  0  0  0  0  0  0
   -7.0605    0.1462   -1.5599 H   0  0  0  0  0  0  0  0  0  0  0  0
   -8.3894   -0.9211   -1.0227 H   0  0  0  0  0  0  0  0  0  0  0  0
   -8.4970    2.7378   -0.8298 H   0  0  0  0  0  0  0  0  0  0  0  0
   -8.0650    2.8558    0.8696 H   0  0  0  0  0  0  0  0  0  0  0  0
   -6.8150    2.4520   -0.3409 H   0  0  0  0  0  0  0  0  0  0  0  0
   -5.4841    1.9270    2.3369 H   0  0  0  0  0  0  0  0  0  0  0  0
   -3.0375    1.9212    1.9942 H   0  0  0  0  0  0  0  0  0  0  0  0
   -1.0364    1.7348    0.5009 H   0  0  0  0  0  0  0  0  0  0  0  0
    0.1346    0.5250    0.0192 H   0  0  0  0  0  0  0  0  0  0  0  0
   -0.8902    0.9706    2.8916 H   0  0  0  0  0  0  0  0  0  0  0  0
    0.7007    1.4238    2.2661 H   0  0  0  0  0  0  0  0  0  0  0  0
    0.2618   -0.2825    2.4354 H   0  0  0  0  0  0  0  0  0  0  0  0
    4.9768   -2.3458    0.3936 H   0  0  0  0  0  0  0  0  0  0  0  0
    5.2455   -1.4042    1.8320 H   0  0  0  0  0  0  0  0  0  0  0  0
    6.0886   -0.6389   -1.0069 H   0  0  0  0  0  0  0  0  0  0  0  0
    7.1313   -1.1220    0.3326 H   0  0  0  0  0  0  0  0  0  0  0  0
  1  2  1  0
  2  3  1  0
  3  4  1  0
  4  5  1  0
  5  6  1  0
  6  7  1  0
  7  8  1  0
  8  9  1  0
  9 10  1  0
 10 11  1  0
 11 12  2  0
 11 13  1  0
 13 14  2  0
 14 15  1  0
 15 16  2  0
 16 17  1  0
 17 18  1  0
 18 19  2  0
 18 20  2  0
 18 21  1  0
 21 22  1  0
 21 23  1  0
 17 24  2  0
 24 25  1  0
 25 26  2  0
 26 27  1  0
 27 28  1  0
 28 29  1  0
  6 30  1  0
 30 31  1  0
 31  3  1  0
 27 13  1  0
 26 15  1  0
  1 32  1  0
  1 33  1  0
  1 34  1  0
  2 35  1  0
  2 36  1  0
  4 37  1  0
  4 38  1  0
  5 39  1  0
  5 40  1  0
  7 41  1  0
  7 42  1  0
  8 43  1  0
  8 44  1  0
  9 45  1  0
  9 46  1  0
 10 47  1  0
 14 48  1  0
 16 49  1  0
 22 50  1  0
 22 51  1  0
 22 52  1  0
 23 53  1  0
 23 54  1  0
 23 55  1  0
 24 56  1  0
 25 57  1  0
 28 58  1  0
 28 59  1  0
 29 60  1  0
 29 61  1  0
 29 62  1  0
 30 63  1  0
 30 64  1  0
 31 65  1  0
 31 66  1  0
M  END
$$$$
