
     RDKit          3D

 48 50  0  0  0  0  0  0  0  0999 V2000
   -1.4209   -0.8840   -2.2962 C   0  0  0  0  0  0  0  0  0  0  0  0
   -1.6921    0.5028   -1.7387 C   0  0  0  0  0  0  0  0  0  0  0  0
   -2.8644    0.4426   -0.8287 N   0  0  0  0  0  0  0  0  0  0  0  0
   -4.1418    0.8712   -1.4578 C   0  0  0  0  0  0  0  0  0  0  0  0
   -4.2933    2.3816   -1.5369 C   0  0  0  0  0  0  0  0  0  0  0  0
   -2.6298    0.9154    0.7882 S   0  0  0  0  0  6  0  0  0  0  0  0
   -1.8995    2.1656    0.7944 O   0  0  0  0  0  0  0  0  0  0  0  0
   -3.8849    0.7766    1.4955 O   0  0  0  0  0  0  0  0  0  0  0  0
   -1.5446   -0.3566    1.3988 C   0  0  0  0  0  0  0  0  0  0  0  0
   -2.0838   -1.5451    1.8779 C   0  0  0  0  0  0  0  0  0  0  0  0
   -1.2250   -2.5151    2.3850 C   0  0  0  0  0  0  0  0  0  0  0  0
    0.1655   -2.3068    2.3979 C   0  0  0  0  0  0  0  0  0  0  0  0
    0.7250   -1.1068    1.9109 C   0  0  0  0  0  0  0  0  0  0  0  0
   -0.1630   -0.1277    1.4390 C   0  0  0  0  0  0  0  0  0  0  0  0
    2.1472   -0.8734    1.9286 N   0  0  0  0  0  0  0  0  0  0  0  0
    2.6808    0.4807    1.7110 C   0  0  0  0  0  0  0  0  0  0  0  0
    2.8280    0.8492    0.2453 C   0  0  0  0  0  0  0  0  0  0  0  0
    3.5695    0.0453   -0.6371 C   0  0  0  0  0  0  0  0  0  0  0  0
    3.7047    0.3926   -1.9848 C   0  0  0  0  0  0  0  0  0  0  0  0
    3.1090    1.5549   -2.4669 C   0  0  0  0  0  0  0  0  0  0  0  0
    2.3942    2.3654   -1.5951 C   0  0  0  0  0  0  0  0  0  0  0  0
    1.8245    3.4862   -2.0564 F   0  0  0  0  0  0  0  0  0  0  0  0
    2.2567    2.0315   -0.2507 C   0  0  0  0  0  0  0  0  0  0  0  0
    3.0853   -1.8819    2.1748 C   0  0  0  0  0  0  0  0  0  0  0  0
    4.2914   -1.6473    2.3047 O   0  0  0  0  0  0  0  0  0  0  0  0
    2.6202   -3.3182    2.1274 C   0  0  0  0  0  0  0  0  0  0  0  0
    1.1577   -3.5922    3.1232 S   0  0  0  0  0  0  0  0  0  0  0  0
   -0.5567   -0.8613   -2.9672 H   0  0  0  0  0  0  0  0  0  0  0  0
   -1.2108   -1.5987   -1.4939 H   0  0  0  0  0  0  0  0  0  0  0  0
   -2.2815   -1.2584   -2.8601 H   0  0  0  0  0  0  0  0  0  0  0  0
   -0.7983    0.8620   -1.2215 H   0  0  0  0  0  0  0  0  0  0  0  0
   -1.8707    1.2029   -2.5615 H   0  0  0  0  0  0  0  0  0  0  0  0
   -4.2008    0.4464   -2.4671 H   0  0  0  0  0  0  0  0  0  0  0  0
   -4.9790    0.4350   -0.9013 H   0  0  0  0  0  0  0  0  0  0  0  0
   -4.3635    2.8332   -0.5428 H   0  0  0  0  0  0  0  0  0  0  0  0
   -3.4514    2.8471   -2.0579 H   0  0  0  0  0  0  0  0  0  0  0  0
   -5.2093    2.6372   -2.0793 H   0  0  0  0  0  0  0  0  0  0  0  0
   -3.1582   -1.7155    1.8712 H   0  0  0  0  0  0  0  0  0  0  0  0
   -1.6476   -3.4387    2.7777 H   0  0  0  0  0  0  0  0  0  0  0  0
    0.1895    0.8293    1.0759 H   0  0  0  0  0  0  0  0  0  0  0  0
    2.0481    1.2006    2.2449 H   0  0  0  0  0  0  0  0  0  0  0  0
    3.6695    0.5816    2.1755 H   0  0  0  0  0  0  0  0  0  0  0  0
    4.0634   -0.8560   -0.2790 H   0  0  0  0  0  0  0  0  0  0  0  0
    4.2832   -0.2408   -2.6530 H   0  0  0  0  0  0  0  0  0  0  0  0
    3.2074    1.8397   -3.5093 H   0  0  0  0  0  0  0  0  0  0  0  0
    1.6955    2.7032    0.3942 H   0  0  0  0  0  0  0  0  0  0  0  0
    2.4351   -3.5945    1.0840 H   0  0  0  0  0  0  0  0  0  0  0  0
    3.4196   -3.9607    2.5099 H   0  0  0  0  0  0  0  0  0  0  0  0
  1  2  1  0
  2  3  1  0
  3  4  1  0
  4  5  1  0
  3  6  1  0
  6  7  2  0
  6  8  2  0
  6  9  1  0
  9 10  2  0
 10 11  1  0
 11 12  2  0
 12 13  1  0
 13 14  2  0
 13 15  1  0
 15 16  1  0
 16 17  1  0
 17 18  2  0
 18 19  1  0
 19 20  2  0
 20 21  1  0
 21 22  1  0
 21 23  2  0
 15 24  1  0
 24 25  2  0
 24 26  1  0
 26 27  1  0
 14  9  1  0
 23 17  1  0
 27 12  1  0
  1 28  1  0
  1 29  1  0
  1 30  1  0
  2 31  1  0
  2 32  1  0
  4 33  1  0
  4 34  1  0
  5 35  1  0
  5 36  1  0
  5 37  1  0
 10 38  1  0
 11 39  1  0
 14 40  1  0
 16 41  1  0
 16 42  1  0
 18 43  1  0
 19 44  1  0
 20 45  1  0
 23 46  1  0
 26 47  1  0
 26 48  1  0
M  END
$$$$
