
     RDKit          3D

 54 58  0  0  0  0  0  0  0  0999 V2000
   -2.3443    0.3513    2.1509 O   0  0  0  0  0  0  0  0  0  0  0  0
   -1.8411    0.3391    1.0235 C   0  0  0  0  0  0  0  0  0  0  0  0
   -2.5425    0.9664   -0.1980 C   0  0  0  0  0  0  0  0  0  0  0  0
   -3.9775    1.2157    0.0460 N   0  0  0  0  0  0  0  0  0  0  0  0
   -4.2836    2.5483    0.5891 C   0  0  0  0  0  0  0  0  0  0  0  0
   -5.6541    2.6398    1.2357 C   0  0  0  0  0  0  0  0  0  0  0  0
   -6.9213    2.4377   -0.0479 S   0  0  0  0  0  0  0  0  0  0  0  0
   -6.3148    0.8819   -0.7127 C   0  0  0  0  0  0  0  0  0  0  0  0
   -7.2738    0.0950   -1.3804 C   0  0  0  0  0  0  0  0  0  0  0  0
   -6.9392   -1.1588   -1.8779 C   0  0  0  0  0  0  0  0  0  0  0  0
   -5.6512   -1.6395   -1.6940 C   0  0  0  0  0  0  0  0  0  0  0  0
   -4.6899   -0.8507   -1.0442 C   0  0  0  0  0  0  0  0  0  0  0  0
   -4.9708    0.4456   -0.5665 C   0  0  0  0  0  0  0  0  0  0  0  0
   -0.5844   -0.2232    0.8084 N   0  0  0  0  0  0  0  0  0  0  0  0
    0.0753   -0.8865    1.9335 C   0  0  0  0  0  0  0  0  0  0  0  0
    1.2446   -1.7772    1.4888 C   0  0  0  0  0  0  0  0  0  0  0  0
    2.2713   -1.0213    0.7525 N   0  0  0  0  0  0  0  0  0  0  0  0
    3.2918   -1.9170    0.1882 C   0  0  0  0  0  0  0  0  0  0  0  0
    4.5547   -1.1939   -0.2427 C   0  0  0  0  0  0  0  0  0  0  0  0
    5.1264   -1.4567   -1.5118 C   0  0  0  0  0  0  0  0  0  0  0  0
    6.3140   -0.8290   -1.9100 C   0  0  0  0  0  0  0  0  0  0  0  0
    6.9055    0.0488   -1.0261 C   0  0  0  0  0  0  0  0  0  0  0  0
    6.3618    0.3088    0.2100 C   0  0  0  0  0  0  0  0  0  0  0  0
    5.1970   -0.2963    0.6325 C   0  0  0  0  0  0  0  0  0  0  0  0
    7.1030    1.1978    0.9283 O   0  0  0  0  0  0  0  0  0  0  0  0
    8.1867    1.4521    0.0106 C   0  0  0  0  0  0  0  0  0  0  0  0
    8.0604    0.7403   -1.2392 O   0  0  0  0  0  0  0  0  0  0  0  0
    1.6966   -0.0839   -0.2345 C   0  0  0  0  0  0  0  0  0  0  0  0
    0.1686   -0.1738   -0.4490 C   0  0  0  0  0  0  0  0  0  0  0  0
   -2.0383    1.9219   -0.3962 H   0  0  0  0  0  0  0  0  0  0  0  0
   -2.3830    0.3502   -1.0887 H   0  0  0  0  0  0  0  0  0  0  0  0
   -3.5373    2.8004    1.3543 H   0  0  0  0  0  0  0  0  0  0  0  0
   -4.1761    3.3007   -0.2057 H   0  0  0  0  0  0  0  0  0  0  0  0
   -5.7872    1.8721    2.0096 H   0  0  0  0  0  0  0  0  0  0  0  0
   -5.7832    3.6217    1.7063 H   0  0  0  0  0  0  0  0  0  0  0  0
   -8.2932    0.4569   -1.4995 H   0  0  0  0  0  0  0  0  0  0  0  0
   -7.6879   -1.7643   -2.3806 H   0  0  0  0  0  0  0  0  0  0  0  0
   -5.3853   -2.6316   -2.0499 H   0  0  0  0  0  0  0  0  0  0  0  0
   -3.7122   -1.3000   -0.8940 H   0  0  0  0  0  0  0  0  0  0  0  0
    0.4278   -0.1028    2.6131 H   0  0  0  0  0  0  0  0  0  0  0  0
   -0.6607   -1.4880    2.4762 H   0  0  0  0  0  0  0  0  0  0  0  0
    1.6952   -2.2343    2.3777 H   0  0  0  0  0  0  0  0  0  0  0  0
    0.8529   -2.5913    0.8647 H   0  0  0  0  0  0  0  0  0  0  0  0
    2.8696   -2.4924   -0.6488 H   0  0  0  0  0  0  0  0  0  0  0  0
    3.6065   -2.6499    0.9456 H   0  0  0  0  0  0  0  0  0  0  0  0
    4.6483   -2.1583   -2.1929 H   0  0  0  0  0  0  0  0  0  0  0  0
    6.7595   -1.0277   -2.8784 H   0  0  0  0  0  0  0  0  0  0  0  0
    4.7925   -0.0809    1.6194 H   0  0  0  0  0  0  0  0  0  0  0  0
    9.1297    1.1592    0.4887 H   0  0  0  0  0  0  0  0  0  0  0  0
    8.2221    2.5285   -0.1985 H   0  0  0  0  0  0  0  0  0  0  0  0
    1.9250    0.9290    0.1319 H   0  0  0  0  0  0  0  0  0  0  0  0
    2.1786   -0.1661   -1.2188 H   0  0  0  0  0  0  0  0  0  0  0  0
   -0.0787   -1.0912   -1.0001 H   0  0  0  0  0  0  0  0  0  0  0  0
   -0.1537    0.6772   -1.0574 H   0  0  0  0  0  0  0  0  0  0  0  0
  1  2  2  0
  2  3  1  0
  3  4  1  0
  4  5  1  0
  5  6  1  0
  6  7  1  0
  7  8  1  0
  8  9  2  0
  9 10  1  0
 10 11  2  0
 11 12  1  0
 12 13  2  0
  2 14  1  0
 14 15  1  0
 15 16  1  0
 16 17  1  0
 17 18  1  0
 18 19  1  0
 19 20  2  0
 20 21  1  0
 21 22  2  0
 22 23  1  0
 23 24  2  0
 23 25  1  0
 25 26  1  0
 26 27  1  0
 17 28  1  0
 28 29  1  0
 13  4  1  0
 29 14  1  0
 13  8  1  0
 24 19  1  0
 27 22  1  0
  3 30  1  0
  3 31  1  0
  5 32  1  0
  5 33  1  0
  6 34  1  0
  6 35  1  0
  9 36  1  0
 10 37  1  0
 11 38  1  0
 12 39  1  0
 15 40  1  0
 15 41  1  0
 16 42  1  0
 16 43  1  0
 18 44  1  0
 18 45  1  0
 20 46  1  0
 21 47  1  0
 24 48  1  0
 26 49  1  0
 26 50  1  0
 28 51  1  0
 28 52  1  0
 29 53  1  0
 29 54  1  0
M  END
$$$$
