
     RDKit          3D

 33 35  0  0  0  0  0  0  0  0999 V2000
    5.4227   -0.7699    2.0735 C   0  0  0  0  0  0  0  0  0  0  0  0
    4.0477   -0.8355    1.7137 O   0  0  0  0  0  0  0  0  0  0  0  0
    3.6658   -0.1410    0.5988 C   0  0  0  0  0  0  0  0  0  0  0  0
    4.4916    0.6592   -0.1926 C   0  0  0  0  0  0  0  0  0  0  0  0
    3.9740    1.3074   -1.3176 C   0  0  0  0  0  0  0  0  0  0  0  0
    2.6270    1.1671   -1.6495 C   0  0  0  0  0  0  0  0  0  0  0  0
    1.7880    0.3839   -0.8501 C   0  0  0  0  0  0  0  0  0  0  0  0
    0.3529    0.2592   -1.2328 C   0  0  0  0  0  0  0  0  0  0  0  0
    0.0660    0.2900   -2.4234 O   0  0  0  0  0  0  0  0  0  0  0  0
   -0.5287    0.1603   -0.1708 N   0  0  0  0  0  0  0  0  0  0  0  0
   -1.9295   -0.0047   -0.2310 C   0  0  0  0  0  0  0  0  0  0  0  0
   -2.6443   -0.1883   -1.4360 C   0  0  0  0  0  0  0  0  0  0  0  0
   -4.0365   -0.3530   -1.4425 C   0  0  0  0  0  0  0  0  0  0  0  0
   -4.6665   -0.3299   -0.2244 C   0  0  0  0  0  0  0  0  0  0  0  0
   -5.9839   -0.4598    0.1026 N   0  0  0  0  0  0  0  0  0  0  0  0
   -6.0875   -0.3641    1.4703 C   0  0  0  0  0  0  0  0  0  0  0  0
   -7.1327   -0.4379    2.0993 O   0  0  0  0  0  0  0  0  0  0  0  0
   -4.8316   -0.1693    2.0616 O   0  0  0  0  0  0  0  0  0  0  0  0
   -3.9894   -0.1565    0.9612 C   0  0  0  0  0  0  0  0  0  0  0  0
   -2.6206    0.0074    0.9919 C   0  0  0  0  0  0  0  0  0  0  0  0
    2.3152   -0.2803    0.2645 C   0  0  0  0  0  0  0  0  0  0  0  0
    5.5647   -1.3893    2.9644 H   0  0  0  0  0  0  0  0  0  0  0  0
    5.7141    0.2540    2.3297 H   0  0  0  0  0  0  0  0  0  0  0  0
    6.0587   -1.1763    1.2802 H   0  0  0  0  0  0  0  0  0  0  0  0
    5.5448    0.7940    0.0323 H   0  0  0  0  0  0  0  0  0  0  0  0
    4.6230    1.9207   -1.9385 H   0  0  0  0  0  0  0  0  0  0  0  0
    2.2315    1.6699   -2.5301 H   0  0  0  0  0  0  0  0  0  0  0  0
   -0.1422    0.2834    0.7566 H   0  0  0  0  0  0  0  0  0  0  0  0
   -2.1330   -0.2117   -2.3946 H   0  0  0  0  0  0  0  0  0  0  0  0
   -4.5760   -0.4924   -2.3716 H   0  0  0  0  0  0  0  0  0  0  0  0
   -6.7677   -0.6008   -0.5126 H   0  0  0  0  0  0  0  0  0  0  0  0
   -2.1144    0.1418    1.9408 H   0  0  0  0  0  0  0  0  0  0  0  0
    1.6964   -0.9375    0.8695 H   0  0  0  0  0  0  0  0  0  0  0  0
  1  2  1  0
  2  3  1  0
  3  4  2  0
  4  5  1  0
  5  6  2  0
  6  7  1  0
  7  8  1  0
  8  9  2  0
  8 10  1  0
 10 11  1  0
 11 12  2  0
 12 13  1  0
 13 14  2  0
 14 15  1  0
 15 16  1  0
 16 17  2  0
 16 18  1  0
 18 19  1  0
 19 20  2  0
  7 21  2  0
 21  3  1  0
 20 11  1  0
 19 14  1  0
  1 22  1  0
  1 23  1  0
  1 24  1  0
  4 25  1  0
  5 26  1  0
  6 27  1  0
 10 28  1  0
 12 29  1  0
 13 30  1  0
 15 31  1  0
 20 32  1  0
 21 33  1  0
M  END
$$$$
