
     RDKit          3D

 66 71  0  0  0  0  0  0  0  0999 V2000
   -8.3552    0.3135    1.7246 C   0  0  0  0  0  0  0  0  0  0  0  0
   -6.9833    0.2711    1.2700 N   0  0  0  0  0  0  0  0  0  0  0  0
   -6.4341   -0.7567    0.5573 C   0  0  0  0  0  0  0  0  0  0  0  0
   -5.1122   -0.4504    0.3125 C   0  0  0  0  0  0  0  0  0  0  0  0
   -4.1682   -1.3075   -0.4073 C   0  0  0  0  0  0  0  0  0  0  0  0
   -2.7774   -1.3960   -0.1535 C   0  0  0  0  0  0  0  0  0  0  0  0
   -2.3130   -2.3460   -1.0345 C   0  0  0  0  0  0  0  0  0  0  0  0
   -3.4119   -2.7448   -1.7375 N   0  0  0  0  0  0  0  0  0  0  0  0
   -4.5551   -2.1521   -1.3744 N   0  0  0  0  0  0  0  0  0  0  0  0
   -3.3412   -3.6690   -2.8441 C   0  0  0  0  0  0  0  0  0  0  0  0
   -2.1980   -4.6295   -2.6127 C   0  0  0  0  0  0  0  0  0  0  0  0
   -0.9189   -3.9058   -2.2199 C   0  0  0  0  0  0  0  0  0  0  0  0
    0.1636   -4.3055   -2.6492 O   0  0  0  0  0  0  0  0  0  0  0  0
   -1.0450   -2.8598   -1.2963 N   0  0  0  0  0  0  0  0  0  0  0  0
    0.1720   -2.2698   -0.7298 C   0  0  0  0  0  0  0  0  0  0  0  0
    0.7253   -1.1543   -1.6239 C   0  0  0  0  0  0  0  0  0  0  0  0
    1.6674   -0.1991   -0.8879 C   0  0  0  0  0  0  0  0  0  0  0  0
    2.9924   -0.8231   -0.4740 C   0  0  0  0  0  0  0  0  0  0  0  0
    3.1895   -2.0334   -0.5676 O   0  0  0  0  0  0  0  0  0  0  0  0
    3.9560    0.0446    0.0309 N   0  0  0  0  0  0  0  0  0  0  0  0
    3.7621    1.4875    0.2010 C   0  0  0  0  0  0  0  0  0  0  0  0
    4.7549    2.0778    1.1914 C   0  0  0  0  0  0  0  0  0  0  0  0
    6.1954    1.8266    0.7351 C   0  0  0  0  0  0  0  0  0  0  0  0
    6.3750    0.5002   -0.0128 C   0  0  0  0  0  0  0  0  0  0  0  0
    5.2806   -0.4898    0.3588 C   0  0  0  0  0  0  0  0  0  0  0  0
    7.0383    1.8375    1.9043 O   0  0  0  0  0  0  0  0  0  0  0  0
    8.1428    2.6700    1.5517 C   0  0  0  0  0  0  0  0  0  0  0  0
    7.5267    3.6729    0.6168 C   0  0  0  0  0  0  0  0  0  0  0  0
    6.6054    2.8929   -0.1459 O   0  0  0  0  0  0  0  0  0  0  0  0
   -4.8558    0.8399    0.8727 C   0  0  0  0  0  0  0  0  0  0  0  0
   -3.7433    1.7113    0.9172 C   0  0  0  0  0  0  0  0  0  0  0  0
   -3.8428    2.9435    1.5732 C   0  0  0  0  0  0  0  0  0  0  0  0
   -5.0336    3.3269    2.1793 C   0  0  0  0  0  0  0  0  0  0  0  0
   -6.1558    2.4971    2.1414 C   0  0  0  0  0  0  0  0  0  0  0  0
   -6.0478    1.2630    1.4789 C   0  0  0  0  0  0  0  0  0  0  0  0
   -8.8336    1.2015    1.3032 H   0  0  0  0  0  0  0  0  0  0  0  0
   -8.3557    0.3539    2.8168 H   0  0  0  0  0  0  0  0  0  0  0  0
   -8.8817   -0.5822    1.3859 H   0  0  0  0  0  0  0  0  0  0  0  0
   -7.0084   -1.6314    0.2804 H   0  0  0  0  0  0  0  0  0  0  0  0
   -2.2062   -0.8621    0.5888 H   0  0  0  0  0  0  0  0  0  0  0  0
   -3.1852   -3.0688   -3.7465 H   0  0  0  0  0  0  0  0  0  0  0  0
   -4.2942   -4.2000   -2.9231 H   0  0  0  0  0  0  0  0  0  0  0  0
   -2.0153   -5.2125   -3.5222 H   0  0  0  0  0  0  0  0  0  0  0  0
   -2.4351   -5.3330   -1.8048 H   0  0  0  0  0  0  0  0  0  0  0  0
    0.9150   -3.0652   -0.6068 H   0  0  0  0  0  0  0  0  0  0  0  0
   -0.0555   -1.8943    0.2738 H   0  0  0  0  0  0  0  0  0  0  0  0
   -0.1066   -0.5577   -2.0196 H   0  0  0  0  0  0  0  0  0  0  0  0
    1.2299   -1.5955   -2.4922 H   0  0  0  0  0  0  0  0  0  0  0  0
    1.1660    0.1898    0.0062 H   0  0  0  0  0  0  0  0  0  0  0  0
    1.8816    0.6423   -1.5581 H   0  0  0  0  0  0  0  0  0  0  0  0
    2.7429    1.6849    0.5469 H   0  0  0  0  0  0  0  0  0  0  0  0
    3.8736    1.9522   -0.7864 H   0  0  0  0  0  0  0  0  0  0  0  0
    4.5898    1.6298    2.1809 H   0  0  0  0  0  0  0  0  0  0  0  0
    4.5674    3.1532    1.2996 H   0  0  0  0  0  0  0  0  0  0  0  0
    7.3541    0.0591    0.2093 H   0  0  0  0  0  0  0  0  0  0  0  0
    6.3430    0.6721   -1.0967 H   0  0  0  0  0  0  0  0  0  0  0  0
    5.4517   -1.4379   -0.1629 H   0  0  0  0  0  0  0  0  0  0  0  0
    5.2926   -0.7027    1.4348 H   0  0  0  0  0  0  0  0  0  0  0  0
    8.5876    3.1216    2.4422 H   0  0  0  0  0  0  0  0  0  0  0  0
    8.8920    2.0503    1.0456 H   0  0  0  0  0  0  0  0  0  0  0  0
    8.2535    4.1627   -0.0362 H   0  0  0  0  0  0  0  0  0  0  0  0
    6.9562    4.4336    1.1613 H   0  0  0  0  0  0  0  0  0  0  0  0
   -2.8098    1.4442    0.4325 H   0  0  0  0  0  0  0  0  0  0  0  0
   -2.9832    3.6084    1.6020 H   0  0  0  0  0  0  0  0  0  0  0  0
   -5.0967    4.2887    2.6826 H   0  0  0  0  0  0  0  0  0  0  0  0
   -7.0844    2.8107    2.6073 H   0  0  0  0  0  0  0  0  0  0  0  0
  1  2  1  0
  2  3  1  0
  3  4  2  0
  4  5  1  0
  5  6  1  0
  6  7  2  0
  7  8  1  0
  8  9  1  0
  8 10  1  0
 10 11  1  0
 11 12  1  0
 12 13  2  0
 12 14  1  0
 14 15  1  0
 15 16  1  0
 16 17  1  0
 17 18  1  0
 18 19  2  0
 18 20  1  0
 20 21  1  0
 21 22  1  0
 22 23  1  0
 23 24  1  0
 24 25  1  0
 23 26  1  0
 26 27  1  0
 27 28  1  0
 28 29  1  0
  4 30  1  0
 30 31  2  0
 31 32  1  0
 32 33  2  0
 33 34  1  0
 34 35  2  0
 35  2  1  0
  9  5  2  0
 25 20  1  0
 35 30  1  0
 14  7  1  0
 29 23  1  0
  1 36  1  0
  1 37  1  0
  1 38  1  0
  3 39  1  0
  6 40  1  0
 10 41  1  0
 10 42  1  0
 11 43  1  0
 11 44  1  0
 15 45  1  0
 15 46  1  0
 16 47  1  0
 16 48  1  0
 17 49  1  0
 17 50  1  0
 21 51  1  0
 21 52  1  0
 22 53  1  0
 22 54  1  0
 24 55  1  0
 24 56  1  0
 25 57  1  0
 25 58  1  0
 27 59  1  0
 27 60  1  0
 28 61  1  0
 28 62  1  0
 31 63  1  0
 32 64  1  0
 33 65  1  0
 34 66  1  0
M  END
$$$$
