
     RDKit          3D

 34 36  0  0  0  0  0  0  0  0999 V2000
    0.7086   -2.1052   -1.8250 C   0  0  0  0  0  0  0  0  0  0  0  0
    1.3354   -1.0274   -0.9765 C   0  0  0  0  0  0  0  0  0  0  0  0
    2.7111   -1.0442   -1.0647 N   0  0  0  0  0  0  0  0  0  0  0  0
    3.3984   -0.2608   -0.2991 C   0  0  0  0  0  0  0  0  0  0  0  0
    4.8849   -0.2770   -0.4067 C   0  0  0  0  0  0  0  0  0  0  0  0
    5.6213    0.5131    0.3850 C   0  0  0  0  0  0  0  0  0  0  0  0
    4.9846    1.3800    1.3419 C   0  0  0  0  0  0  0  0  0  0  0  0
    5.9705    2.3725    2.3414 Cl  0  0  0  0  0  0  0  0  0  0  0  0
    3.6492    1.4005    1.4383 C   0  0  0  0  0  0  0  0  0  0  0  0
    2.8450    0.5994    0.6313 N   0  0  0  0  0  0  0  0  0  0  0  0
    1.4718    0.6493    0.7734 C   0  0  0  0  0  0  0  0  0  0  0  0
    0.8785    1.3408    1.6085 O   0  0  0  0  0  0  0  0  0  0  0  0
    0.6534   -0.2040   -0.1560 C   0  0  0  0  0  0  0  0  0  0  0  0
   -0.7149   -0.0451    0.0113 N   0  0  0  0  0  0  0  0  0  0  0  0
   -1.7316   -0.2415   -0.9033 C   0  0  0  0  0  0  0  0  0  0  0  0
   -1.5686   -0.5416   -2.0792 O   0  0  0  0  0  0  0  0  0  0  0  0
   -3.1136   -0.0105   -0.4098 C   0  0  0  0  0  0  0  0  0  0  0  0
   -3.3921    0.8601    0.6446 C   0  0  0  0  0  0  0  0  0  0  0  0
   -2.4040    1.5200    1.2668 F   0  0  0  0  0  0  0  0  0  0  0  0
   -4.6991    1.0777    1.0837 C   0  0  0  0  0  0  0  0  0  0  0  0
   -5.7580    0.4181    0.4642 C   0  0  0  0  0  0  0  0  0  0  0  0
   -5.4985   -0.4571   -0.5886 C   0  0  0  0  0  0  0  0  0  0  0  0
   -4.1860   -0.6662   -1.0188 C   0  0  0  0  0  0  0  0  0  0  0  0
   -3.9938   -1.5431   -2.0144 F   0  0  0  0  0  0  0  0  0  0  0  0
    1.3737   -2.9755   -1.8858 H   0  0  0  0  0  0  0  0  0  0  0  0
    0.5447   -1.7469   -2.8456 H   0  0  0  0  0  0  0  0  0  0  0  0
   -0.2262   -2.4821   -1.4009 H   0  0  0  0  0  0  0  0  0  0  0  0
    5.3220   -0.9444   -1.1393 H   0  0  0  0  0  0  0  0  0  0  0  0
    6.7042    0.5097    0.3153 H   0  0  0  0  0  0  0  0  0  0  0  0
    3.1405    2.0453    2.1506 H   0  0  0  0  0  0  0  0  0  0  0  0
   -0.9418    0.5239    0.8302 H   0  0  0  0  0  0  0  0  0  0  0  0
   -4.8806    1.7647    1.9059 H   0  0  0  0  0  0  0  0  0  0  0  0
   -6.7792    0.5832    0.7997 H   0  0  0  0  0  0  0  0  0  0  0  0
   -6.3097   -0.9860   -1.0820 H   0  0  0  0  0  0  0  0  0  0  0  0
  1  2  1  0
  2  3  1  0
  3  4  2  0
  4  5  1  0
  5  6  2  0
  6  7  1  0
  7  8  1  0
  7  9  2  0
  9 10  1  0
 10 11  1  0
 11 12  2  0
 11 13  1  0
 13 14  1  0
 14 15  1  0
 15 16  2  0
 15 17  1  0
 17 18  2  0
 18 19  1  0
 18 20  1  0
 20 21  2  0
 21 22  1  0
 22 23  2  0
 23 24  1  0
 13  2  2  0
 23 17  1  0
 10  4  1  0
  1 25  1  0
  1 26  1  0
  1 27  1  0
  5 28  1  0
  6 29  1  0
  9 30  1  0
 14 31  1  0
 20 32  1  0
 21 33  1  0
 22 34  1  0
M  END
$$$$
