
     RDKit          3D

 51 53  0  0  0  0  0  0  0  0999 V2000
    6.7418    1.5536    0.6864 C   0  0  0  0  0  0  0  0  0  0  0  0
    5.4143    1.0509    0.1412 C   0  0  0  0  0  0  0  0  0  0  0  0
    5.5729   -0.3037   -0.4389 N   0  0  0  0  0  0  0  0  0  0  0  0
    5.7265   -1.3976    0.5512 C   0  0  0  0  0  0  0  0  0  0  0  0
    7.1082   -2.0142    0.4115 C   0  0  0  0  0  0  0  0  0  0  0  0
    4.6819   -0.6543   -1.8487 S   0  0  0  0  0  6  0  0  0  0  0  0
    4.8031    0.4661   -2.7577 O   0  0  0  0  0  0  0  0  0  0  0  0
    5.0110   -1.9986   -2.2745 O   0  0  0  0  0  0  0  0  0  0  0  0
    2.9933   -0.6768   -1.2688 C   0  0  0  0  0  0  0  0  0  0  0  0
    2.4030   -1.8869   -0.8951 C   0  0  0  0  0  0  0  0  0  0  0  0
    1.0715   -1.9027   -0.4729 C   0  0  0  0  0  0  0  0  0  0  0  0
    0.3204   -0.7186   -0.4486 C   0  0  0  0  0  0  0  0  0  0  0  0
   -1.0932   -0.7939    0.0139 C   0  0  0  0  0  0  0  0  0  0  0  0
   -1.4625   -1.7093    0.7419 O   0  0  0  0  0  0  0  0  0  0  0  0
   -1.9481    0.1844   -0.4364 N   0  0  0  0  0  0  0  0  0  0  0  0
   -3.3544    0.1325   -0.1002 C   0  0  0  0  0  0  0  0  0  0  0  0
   -4.0456    1.3110   -0.6642 C   0  0  0  0  0  0  0  0  0  0  0  0
   -3.4615    2.2572   -1.3809 N   0  0  0  0  0  0  0  0  0  0  0  0
   -4.4315    3.1502   -1.7118 N   0  0  0  0  0  0  0  0  0  0  0  0
   -5.6002    2.7805   -1.2220 N   0  0  0  0  0  0  0  0  0  0  0  0
   -5.3991    1.6157   -0.5494 N   0  0  0  0  0  0  0  0  0  0  0  0
   -6.4951    0.9691    0.0952 C   0  0  0  0  0  0  0  0  0  0  0  0
   -6.3679   -0.2242    0.8163 C   0  0  0  0  0  0  0  0  0  0  0  0
   -7.4858   -0.8042    1.4307 C   0  0  0  0  0  0  0  0  0  0  0  0
   -8.7382   -0.2051    1.3328 C   0  0  0  0  0  0  0  0  0  0  0  0
   -8.8812    0.9784    0.6176 C   0  0  0  0  0  0  0  0  0  0  0  0
   -7.7703    1.5623    0.0036 C   0  0  0  0  0  0  0  0  0  0  0  0
    0.9165    0.4891   -0.8385 C   0  0  0  0  0  0  0  0  0  0  0  0
    2.2498    0.5087   -1.2599 C   0  0  0  0  0  0  0  0  0  0  0  0
    7.0923    0.9400    1.5222 H   0  0  0  0  0  0  0  0  0  0  0  0
    6.6384    2.5819    1.0470 H   0  0  0  0  0  0  0  0  0  0  0  0
    7.5146    1.5378   -0.0891 H   0  0  0  0  0  0  0  0  0  0  0  0
    4.6557    1.0382    0.9314 H   0  0  0  0  0  0  0  0  0  0  0  0
    5.0800    1.7626   -0.6200 H   0  0  0  0  0  0  0  0  0  0  0  0
    4.9668   -2.1720    0.4113 H   0  0  0  0  0  0  0  0  0  0  0  0
    5.5908   -1.0235    1.5725 H   0  0  0  0  0  0  0  0  0  0  0  0
    7.2609   -2.4215   -0.5933 H   0  0  0  0  0  0  0  0  0  0  0  0
    7.2373   -2.8258    1.1342 H   0  0  0  0  0  0  0  0  0  0  0  0
    7.8930   -1.2721    0.5897 H   0  0  0  0  0  0  0  0  0  0  0  0
    2.9643   -2.8183   -0.9340 H   0  0  0  0  0  0  0  0  0  0  0  0
    0.6149   -2.8449   -0.1734 H   0  0  0  0  0  0  0  0  0  0  0  0
   -1.6744    0.8115   -1.1848 H   0  0  0  0  0  0  0  0  0  0  0  0
   -3.7551   -0.7957   -0.5192 H   0  0  0  0  0  0  0  0  0  0  0  0
   -3.4283    0.1123    0.9913 H   0  0  0  0  0  0  0  0  0  0  0  0
   -5.4351   -0.7549    0.9454 H   0  0  0  0  0  0  0  0  0  0  0  0
   -7.3754   -1.7299    1.9932 H   0  0  0  0  0  0  0  0  0  0  0  0
   -9.6006   -0.6590    1.8156 H   0  0  0  0  0  0  0  0  0  0  0  0
   -9.8572    1.4512    0.5361 H   0  0  0  0  0  0  0  0  0  0  0  0
   -7.9278    2.4894   -0.5473 H   0  0  0  0  0  0  0  0  0  0  0  0
    0.3671    1.4262   -0.8064 H   0  0  0  0  0  0  0  0  0  0  0  0
    2.6981    1.4472   -1.5806 H   0  0  0  0  0  0  0  0  0  0  0  0
  1  2  1  0
  2  3  1  0
  3  4  1  0
  4  5  1  0
  3  6  1  0
  6  7  2  0
  6  8  2  0
  6  9  1  0
  9 10  2  0
 10 11  1  0
 11 12  2  0
 12 13  1  0
 13 14  2  0
 13 15  1  0
 15 16  1  0
 16 17  1  0
 17 18  2  0
 18 19  1  0
 19 20  2  0
 20 21  1  0
 21 22  1  0
 22 23  2  0
 23 24  1  0
 24 25  2  0
 25 26  1  0
 26 27  2  0
 12 28  1  0
 28 29  2  0
 29  9  1  0
 21 17  1  0
 27 22  1  0
  1 30  1  0
  1 31  1  0
  1 32  1  0
  2 33  1  0
  2 34  1  0
  4 35  1  0
  4 36  1  0
  5 37  1  0
  5 38  1  0
  5 39  1  0
 10 40  1  0
 11 41  1  0
 15 42  1  0
 16 43  1  0
 16 44  1  0
 23 45  1  0
 24 46  1  0
 25 47  1  0
 26 48  1  0
 27 49  1  0
 28 50  1  0
 29 51  1  0
M  END
$$$$
