
     RDKit          3D

 47 48  0  0  0  0  0  0  0  0999 V2000
    5.6089    1.3132    1.7809 C   0  0  0  0  0  0  0  0  0  0  0  0
    5.9476    0.3221    0.6779 C   0  0  0  0  0  0  0  0  0  0  0  0
    4.7222   -0.2340   -0.0401 C   0  0  0  0  0  0  0  0  0  0  0  0
    3.7616   -1.3558    0.9718 S   0  0  0  0  0  6  0  0  0  0  0  0
    2.9883   -0.6105    1.9376 O   0  0  0  0  0  0  0  0  0  0  0  0
    4.6247   -2.4460    1.3771 O   0  0  0  0  0  0  0  0  0  0  0  0
    2.7252   -2.0369   -0.1877 N   0  0  0  0  0  0  0  0  0  0  0  0
    1.4454   -1.4316   -0.3505 C   0  0  0  0  0  0  0  0  0  0  0  0
    0.3692   -1.8473    0.4261 C   0  0  0  0  0  0  0  0  0  0  0  0
   -0.8762   -1.2323    0.2714 C   0  0  0  0  0  0  0  0  0  0  0  0
   -1.0499   -0.1822   -0.6366 C   0  0  0  0  0  0  0  0  0  0  0  0
    0.0403    0.2346   -1.4224 C   0  0  0  0  0  0  0  0  0  0  0  0
    1.2881   -0.3935   -1.2657 C   0  0  0  0  0  0  0  0  0  0  0  0
   -0.1058    1.2869   -2.4915 C   0  0  0  0  0  0  0  0  0  0  0  0
   -1.3969    2.0837   -2.3718 C   0  0  0  0  0  0  0  0  0  0  0  0
   -2.5628    1.1489   -2.0923 C   0  0  0  0  0  0  0  0  0  0  0  0
   -2.3443    0.4399   -0.8042 N   0  0  0  0  0  0  0  0  0  0  0  0
   -3.0813    1.1552    0.5699 S   0  0  0  0  0  6  0  0  0  0  0  0
   -3.0241    2.5949    0.4085 O   0  0  0  0  0  0  0  0  0  0  0  0
   -2.6142    0.5392    1.7927 O   0  0  0  0  0  0  0  0  0  0  0  0
   -4.7898    0.6653    0.3450 C   0  0  0  0  0  0  0  0  0  0  0  0
   -5.0267   -0.8339    0.2009 C   0  0  0  0  0  0  0  0  0  0  0  0
   -4.9742   -1.5910    1.5195 C   0  0  0  0  0  0  0  0  0  0  0  0
    5.1056    0.8247    2.6197 H   0  0  0  0  0  0  0  0  0  0  0  0
    6.5256    1.7691    2.1688 H   0  0  0  0  0  0  0  0  0  0  0  0
    4.9646    2.1152    1.4072 H   0  0  0  0  0  0  0  0  0  0  0  0
    6.5513   -0.4918    1.0949 H   0  0  0  0  0  0  0  0  0  0  0  0
    6.5738    0.8362   -0.0611 H   0  0  0  0  0  0  0  0  0  0  0  0
    4.0618    0.5727   -0.3706 H   0  0  0  0  0  0  0  0  0  0  0  0
    5.0510   -0.8075   -0.9133 H   0  0  0  0  0  0  0  0  0  0  0  0
    2.7058   -3.0483   -0.0389 H   0  0  0  0  0  0  0  0  0  0  0  0
    0.4843   -2.6369    1.1632 H   0  0  0  0  0  0  0  0  0  0  0  0
   -1.7054   -1.5859    0.8772 H   0  0  0  0  0  0  0  0  0  0  0  0
    2.1283   -0.0852   -1.8820 H   0  0  0  0  0  0  0  0  0  0  0  0
    0.7445    1.9785   -2.4557 H   0  0  0  0  0  0  0  0  0  0  0  0
   -0.0825    0.7839   -3.4665 H   0  0  0  0  0  0  0  0  0  0  0  0
   -1.5721    2.6454   -3.2961 H   0  0  0  0  0  0  0  0  0  0  0  0
   -1.2969    2.8193   -1.5650 H   0  0  0  0  0  0  0  0  0  0  0  0
   -2.6668    0.4019   -2.8894 H   0  0  0  0  0  0  0  0  0  0  0  0
   -3.5017    1.7111   -2.0814 H   0  0  0  0  0  0  0  0  0  0  0  0
   -5.1457    1.1822   -0.5522 H   0  0  0  0  0  0  0  0  0  0  0  0
   -5.3478    1.0720    1.1954 H   0  0  0  0  0  0  0  0  0  0  0  0
   -6.0295   -0.9767   -0.2203 H   0  0  0  0  0  0  0  0  0  0  0  0
   -4.3243   -1.2840   -0.5076 H   0  0  0  0  0  0  0  0  0  0  0  0
   -5.2745   -2.6324    1.3638 H   0  0  0  0  0  0  0  0  0  0  0  0
   -5.6562   -1.1510    2.2539 H   0  0  0  0  0  0  0  0  0  0  0  0
   -3.9683   -1.6013    1.9446 H   0  0  0  0  0  0  0  0  0  0  0  0
  1  2  1  0
  2  3  1  0
  3  4  1  0
  4  5  2  0
  4  6  2  0
  4  7  1  0
  7  8  1  0
  8  9  2  0
  9 10  1  0
 10 11  2  0
 11 12  1  0
 12 13  2  0
 12 14  1  0
 14 15  1  0
 15 16  1  0
 16 17  1  0
 17 18  1  0
 18 19  2  0
 18 20  2  0
 18 21  1  0
 21 22  1  0
 22 23  1  0
 13  8  1  0
 17 11  1  0
  1 24  1  0
  1 25  1  0
  1 26  1  0
  2 27  1  0
  2 28  1  0
  3 29  1  0
  3 30  1  0
  7 31  1  0
  9 32  1  0
 10 33  1  0
 13 34  1  0
 14 35  1  0
 14 36  1  0
 15 37  1  0
 15 38  1  0
 16 39  1  0
 16 40  1  0
 21 41  1  0
 21 42  1  0
 22 43  1  0
 22 44  1  0
 23 45  1  0
 23 46  1  0
 23 47  1  0
M  END
$$$$
