
     RDKit          3D

 43 45  0  0  0  0  0  0  0  0999 V2000
   -5.1626    3.9470   -0.2563 C   0  0  0  0  0  0  0  0  0  0  0  0
   -3.9278    3.5380   -1.0445 C   0  0  0  0  0  0  0  0  0  0  0  0
   -3.4592    2.1671   -0.6529 C   0  0  0  0  0  0  0  0  0  0  0  0
   -4.2285    1.1256   -0.5944 N   0  0  0  0  0  0  0  0  0  0  0  0
   -3.4761    0.0341   -0.2251 N   0  0  0  0  0  0  0  0  0  0  0  0
   -4.0280   -1.2187   -0.0764 C   0  0  0  0  0  0  0  0  0  0  0  0
   -5.2030   -1.5336   -0.2391 O   0  0  0  0  0  0  0  0  0  0  0  0
   -3.0419   -2.2492    0.3190 C   0  0  0  0  0  0  0  0  0  0  0  0
   -1.7508   -1.9144    0.4999 C   0  0  0  0  0  0  0  0  0  0  0  0
   -0.7397   -2.9765    0.8849 C   0  0  0  0  0  0  0  0  0  0  0  0
   -0.4377   -2.9904    2.6823 S   0  0  0  0  0  0  0  0  0  0  0  0
    0.4722   -1.4270    2.9090 C   0  0  0  0  0  0  0  0  0  0  0  0
    1.7476   -1.3739    2.0806 C   0  0  0  0  0  0  0  0  0  0  0  0
    2.7615   -1.9660    2.4415 O   0  0  0  0  0  0  0  0  0  0  0  0
    1.6075   -0.6210    0.9259 N   0  0  0  0  0  0  0  0  0  0  0  0
    2.5932   -0.3295   -0.0392 C   0  0  0  0  0  0  0  0  0  0  0  0
    2.1752    0.3263   -1.2017 C   0  0  0  0  0  0  0  0  0  0  0  0
    3.0910    0.6506   -2.2032 C   0  0  0  0  0  0  0  0  0  0  0  0
    4.4366    0.3300   -2.0518 C   0  0  0  0  0  0  0  0  0  0  0  0
    4.8782   -0.3098   -0.8897 C   0  0  0  0  0  0  0  0  0  0  0  0
    6.3241   -0.6622   -0.7075 C   0  0  0  0  0  0  0  0  0  0  0  0
    3.9480   -0.6435    0.1095 C   0  0  0  0  0  0  0  0  0  0  0  0
   -1.2602   -0.6311    0.3166 N   0  0  0  0  0  0  0  0  0  0  0  0
   -2.1409    0.2520   -0.0229 C   0  0  0  0  0  0  0  0  0  0  0  0
   -1.7653    1.9236   -0.2876 S   0  0  0  0  0  0  0  0  0  0  0  0
   -4.9659    3.9236    0.8236 H   0  0  0  0  0  0  0  0  0  0  0  0
   -6.0048    3.2745   -0.4597 H   0  0  0  0  0  0  0  0  0  0  0  0
   -5.4678    4.9626   -0.5274 H   0  0  0  0  0  0  0  0  0  0  0  0
   -4.1567    3.5239   -2.1185 H   0  0  0  0  0  0  0  0  0  0  0  0
   -3.1339    4.2766   -0.8821 H   0  0  0  0  0  0  0  0  0  0  0  0
   -3.4243   -3.2537    0.4581 H   0  0  0  0  0  0  0  0  0  0  0  0
   -1.1213   -3.9712    0.6230 H   0  0  0  0  0  0  0  0  0  0  0  0
    0.1927   -2.8632    0.3246 H   0  0  0  0  0  0  0  0  0  0  0  0
    0.7615   -1.3501    3.9633 H   0  0  0  0  0  0  0  0  0  0  0  0
   -0.1762   -0.5696    2.7110 H   0  0  0  0  0  0  0  0  0  0  0  0
    0.6573   -0.3394    0.6857 H   0  0  0  0  0  0  0  0  0  0  0  0
    1.1310    0.5864   -1.3470 H   0  0  0  0  0  0  0  0  0  0  0  0
    2.7530    1.1547   -3.1037 H   0  0  0  0  0  0  0  0  0  0  0  0
    5.1403    0.5864   -2.8395 H   0  0  0  0  0  0  0  0  0  0  0  0
    6.9507   -0.1779   -1.4628 H   0  0  0  0  0  0  0  0  0  0  0  0
    6.4621   -1.7446   -0.7891 H   0  0  0  0  0  0  0  0  0  0  0  0
    6.6748   -0.3261    0.2712 H   0  0  0  0  0  0  0  0  0  0  0  0
    4.3143   -1.1402    1.0029 H   0  0  0  0  0  0  0  0  0  0  0  0
  1  2  1  0
  2  3  1  0
  3  4  2  0
  4  5  1  0
  5  6  1  0
  6  7  2  0
  6  8  1  0
  8  9  2  0
  9 10  1  0
 10 11  1  0
 11 12  1  0
 12 13  1  0
 13 14  2  0
 13 15  1  0
 15 16  1  0
 16 17  2  0
 17 18  1  0
 18 19  2  0
 19 20  1  0
 20 21  1  0
 20 22  2  0
  9 23  1  0
 23 24  2  0
 24 25  1  0
 25  3  1  0
 24  5  1  0
 22 16  1  0
  1 26  1  0
  1 27  1  0
  1 28  1  0
  2 29  1  0
  2 30  1  0
  8 31  1  0
 10 32  1  0
 10 33  1  0
 12 34  1  0
 12 35  1  0
 15 36  1  0
 17 37  1  0
 18 38  1  0
 19 39  1  0
 21 40  1  0
 21 41  1  0
 21 42  1  0
 22 43  1  0
M  END
$$$$
