
     RDKit          3D

 52 55  0  0  0  0  0  0  0  0999 V2000
   -0.0977   -2.7407    1.4408 O   0  0  0  0  0  0  0  0  0  0  0  0
   -0.2119   -1.9711    0.4771 C   0  0  0  0  0  0  0  0  0  0  0  0
   -1.5770   -1.3149    0.1803 C   0  0  0  0  0  0  0  0  0  0  0  0
   -2.7184   -2.1530    0.7817 C   0  0  0  0  0  0  0  0  0  0  0  0
   -2.7886   -1.7510    2.2576 C   0  0  0  0  0  0  0  0  0  0  0  0
   -2.3301   -0.3165    2.2304 C   0  0  0  0  0  0  0  0  0  0  0  0
   -2.5539    0.5055    3.1010 O   0  0  0  0  0  0  0  0  0  0  0  0
   -1.6747   -0.0742    0.9942 N   0  0  0  0  0  0  0  0  0  0  0  0
   -1.8679    1.4063    0.2119 S   0  0  0  0  0  6  0  0  0  0  0  0
   -1.3682    1.2914   -1.1445 O   0  0  0  0  0  0  0  0  0  0  0  0
   -1.4040    2.4789    1.0678 O   0  0  0  0  0  0  0  0  0  0  0  0
   -3.6469    1.5249    0.0841 C   0  0  0  0  0  0  0  0  0  0  0  0
   -4.3142    0.9088   -0.9810 C   0  0  0  0  0  0  0  0  0  0  0  0
   -5.7084    0.9698   -1.0441 C   0  0  0  0  0  0  0  0  0  0  0  0
   -6.4242    1.6594   -0.0632 C   0  0  0  0  0  0  0  0  0  0  0  0
   -5.7501    2.2994    0.9803 C   0  0  0  0  0  0  0  0  0  0  0  0
   -4.3579    2.2382    1.0542 C   0  0  0  0  0  0  0  0  0  0  0  0
    0.8925   -1.6783   -0.2996 N   0  0  0  0  0  0  0  0  0  0  0  0
    2.1914   -2.2091    0.1448 C   0  0  0  0  0  0  0  0  0  0  0  0
    3.3320   -1.9620   -0.8576 C   0  0  0  0  0  0  0  0  0  0  0  0
    3.3795   -0.5522   -1.2761 N   0  0  0  0  0  0  0  0  0  0  0  0
    4.3512    0.3374   -0.7975 C   0  0  0  0  0  0  0  0  0  0  0  0
    5.1975    0.0208    0.2816 C   0  0  0  0  0  0  0  0  0  0  0  0
    6.1802    0.9112    0.7453 C   0  0  0  0  0  0  0  0  0  0  0  0
    6.3499    2.1535    0.1379 C   0  0  0  0  0  0  0  0  0  0  0  0
    5.5331    2.5037   -0.9308 C   0  0  0  0  0  0  0  0  0  0  0  0
    4.5577    1.6094   -1.3848 C   0  0  0  0  0  0  0  0  0  0  0  0
    3.8210    2.0011   -2.4399 F   0  0  0  0  0  0  0  0  0  0  0  0
    2.0772    0.0476   -1.6724 C   0  0  0  0  0  0  0  0  0  0  0  0
    0.9176   -0.9726   -1.5896 C   0  0  0  0  0  0  0  0  0  0  0  0
   -1.7417   -1.1886   -0.8857 H   0  0  0  0  0  0  0  0  0  0  0  0
   -3.6611   -1.8805    0.2930 H   0  0  0  0  0  0  0  0  0  0  0  0
   -2.5816   -3.2315    0.6549 H   0  0  0  0  0  0  0  0  0  0  0  0
   -2.1221   -2.3403    2.8924 H   0  0  0  0  0  0  0  0  0  0  0  0
   -3.8080   -1.8194    2.6442 H   0  0  0  0  0  0  0  0  0  0  0  0
   -3.7639    0.3793   -1.7542 H   0  0  0  0  0  0  0  0  0  0  0  0
   -6.2423    0.4774   -1.8521 H   0  0  0  0  0  0  0  0  0  0  0  0
   -7.5105    1.7022   -0.1087 H   0  0  0  0  0  0  0  0  0  0  0  0
   -6.3102    2.8373    1.7418 H   0  0  0  0  0  0  0  0  0  0  0  0
   -3.8372    2.7266    1.8796 H   0  0  0  0  0  0  0  0  0  0  0  0
    2.0855   -3.2874    0.3192 H   0  0  0  0  0  0  0  0  0  0  0  0
    2.4233   -1.7328    1.1095 H   0  0  0  0  0  0  0  0  0  0  0  0
    4.2826   -2.3365   -0.4651 H   0  0  0  0  0  0  0  0  0  0  0  0
    3.1470   -2.5679   -1.7547 H   0  0  0  0  0  0  0  0  0  0  0  0
    5.1015   -0.9193    0.8183 H   0  0  0  0  0  0  0  0  0  0  0  0
    6.8086    0.6261    1.5874 H   0  0  0  0  0  0  0  0  0  0  0  0
    7.1118    2.8435    0.4969 H   0  0  0  0  0  0  0  0  0  0  0  0
    5.6454    3.4650   -1.4267 H   0  0  0  0  0  0  0  0  0  0  0  0
    1.8327    0.8899   -1.0053 H   0  0  0  0  0  0  0  0  0  0  0  0
    2.1374    0.4214   -2.7042 H   0  0  0  0  0  0  0  0  0  0  0  0
   -0.0282   -0.4919   -1.8096 H   0  0  0  0  0  0  0  0  0  0  0  0
    1.0444   -1.7443   -2.3609 H   0  0  0  0  0  0  0  0  0  0  0  0
  1  2  2  0
  2  3  1  0
  3  4  1  0
  4  5  1  0
  5  6  1  0
  6  7  2  0
  6  8  1  0
  8  9  1  0
  9 10  2  0
  9 11  2  0
  9 12  1  0
 12 13  2  0
 13 14  1  0
 14 15  2  0
 15 16  1  0
 16 17  2  0
  2 18  1  0
 18 19  1  0
 19 20  1  0
 20 21  1  0
 21 22  1  0
 22 23  2  0
 23 24  1  0
 24 25  2  0
 25 26  1  0
 26 27  2  0
 27 28  1  0
 21 29  1  0
 29 30  1  0
  8  3  1  0
 17 12  1  0
 30 18  1  0
 27 22  1  0
  3 31  1  0
  4 32  1  0
  4 33  1  0
  5 34  1  0
  5 35  1  0
 13 36  1  0
 14 37  1  0
 15 38  1  0
 16 39  1  0
 17 40  1  0
 19 41  1  0
 19 42  1  0
 20 43  1  0
 20 44  1  0
 23 45  1  0
 24 46  1  0
 25 47  1  0
 26 48  1  0
 29 49  1  0
 29 50  1  0
 30 51  1  0
 30 52  1  0
M  END
$$$$
