
     RDKit          3D

 58 60  0  0  0  0  0  0  0  0999 V2000
   -5.2526   -3.2647    0.9319 C   0  0  0  0  0  0  0  0  0  0  0  0
   -5.5388   -1.8910    1.1614 O   0  0  0  0  0  0  0  0  0  0  0  0
   -4.5628   -0.9811    0.8481 C   0  0  0  0  0  0  0  0  0  0  0  0
   -3.3669   -1.2872    0.1986 C   0  0  0  0  0  0  0  0  0  0  0  0
   -2.4335   -0.2768   -0.0748 C   0  0  0  0  0  0  0  0  0  0  0  0
   -1.1853   -0.6440   -0.7613 C   0  0  0  0  0  0  0  0  0  0  0  0
   -0.8044   -1.8377   -1.0823 N   0  0  0  0  0  0  0  0  0  0  0  0
    0.4104   -1.6555   -1.6867 N   0  0  0  0  0  0  0  0  0  0  0  0
    1.0523   -2.7103   -2.3041 C   0  0  0  0  0  0  0  0  0  0  0  0
    2.3327   -2.3770   -3.0288 C   0  0  0  0  0  0  0  0  0  0  0  0
    0.6473   -3.8736   -2.2793 O   0  0  0  0  0  0  0  0  0  0  0  0
    0.7562   -0.2452   -1.6977 C   0  0  0  0  0  0  0  0  0  0  0  0
    1.9942    0.1125   -0.9013 C   0  0  0  0  0  0  0  0  0  0  0  0
    2.8791    1.0899   -1.3925 C   0  0  0  0  0  0  0  0  0  0  0  0
    4.0193    1.4500   -0.6702 C   0  0  0  0  0  0  0  0  0  0  0  0
    4.9395    2.3810   -1.0763 O   0  0  0  0  0  0  0  0  0  0  0  0
    4.5910    3.2151   -2.1720 C   0  0  0  0  0  0  0  0  0  0  0  0
    4.2786    0.8108    0.5538 C   0  0  0  0  0  0  0  0  0  0  0  0
    5.3801    1.1928    1.2887 O   0  0  0  0  0  0  0  0  0  0  0  0
    6.4884    0.3527    0.9717 C   0  0  0  0  0  0  0  0  0  0  0  0
    3.3946   -0.1447    1.0814 C   0  0  0  0  0  0  0  0  0  0  0  0
    3.7312   -0.6795    2.2973 O   0  0  0  0  0  0  0  0  0  0  0  0
    2.8208   -1.5974    2.8880 C   0  0  0  0  0  0  0  0  0  0  0  0
    2.2580   -0.4867    0.3460 C   0  0  0  0  0  0  0  0  0  0  0  0
   -0.3678    0.3897   -1.0896 O   0  0  0  0  0  0  0  0  0  0  0  0
   -2.6859    1.0482    0.3068 C   0  0  0  0  0  0  0  0  0  0  0  0
   -3.8755    1.3714    0.9613 C   0  0  0  0  0  0  0  0  0  0  0  0
   -4.2212    2.6321    1.3742 O   0  0  0  0  0  0  0  0  0  0  0  0
   -3.1999    3.6205    1.3820 C   0  0  0  0  0  0  0  0  0  0  0  0
   -4.8158    0.3546    1.2071 C   0  0  0  0  0  0  0  0  0  0  0  0
   -5.9726    0.6625    1.8898 O   0  0  0  0  0  0  0  0  0  0  0  0
   -7.0094    0.9858    0.9650 C   0  0  0  0  0  0  0  0  0  0  0  0
   -5.1451   -3.4694   -0.1382 H   0  0  0  0  0  0  0  0  0  0  0  0
   -4.3652   -3.5841    1.4884 H   0  0  0  0  0  0  0  0  0  0  0  0
   -6.1027   -3.8485    1.2979 H   0  0  0  0  0  0  0  0  0  0  0  0
   -3.1380   -2.3040   -0.1080 H   0  0  0  0  0  0  0  0  0  0  0  0
    3.1302   -2.1830   -2.3079 H   0  0  0  0  0  0  0  0  0  0  0  0
    2.1979   -1.5189   -3.6911 H   0  0  0  0  0  0  0  0  0  0  0  0
    2.6267   -3.2299   -3.6486 H   0  0  0  0  0  0  0  0  0  0  0  0
    0.8366    0.0898   -2.7380 H   0  0  0  0  0  0  0  0  0  0  0  0
    2.6594    1.5592   -2.3468 H   0  0  0  0  0  0  0  0  0  0  0  0
    4.5510    2.6405   -3.1029 H   0  0  0  0  0  0  0  0  0  0  0  0
    5.3758    3.9699   -2.2811 H   0  0  0  0  0  0  0  0  0  0  0  0
    3.6470    3.7397   -1.9902 H   0  0  0  0  0  0  0  0  0  0  0  0
    6.2894   -0.6908    1.2388 H   0  0  0  0  0  0  0  0  0  0  0  0
    7.3454    0.6934    1.5605 H   0  0  0  0  0  0  0  0  0  0  0  0
    6.7560    0.4276   -0.0880 H   0  0  0  0  0  0  0  0  0  0  0  0
    3.2277   -1.8930    3.8598 H   0  0  0  0  0  0  0  0  0  0  0  0
    2.7240   -2.5023    2.2792 H   0  0  0  0  0  0  0  0  0  0  0  0
    1.8458   -1.1309    3.0635 H   0  0  0  0  0  0  0  0  0  0  0  0
    1.5547   -1.2241    0.7246 H   0  0  0  0  0  0  0  0  0  0  0  0
   -1.9482    1.8119    0.0864 H   0  0  0  0  0  0  0  0  0  0  0  0
   -2.3342    3.2962    1.9693 H   0  0  0  0  0  0  0  0  0  0  0  0
   -3.6070    4.5184    1.8567 H   0  0  0  0  0  0  0  0  0  0  0  0
   -2.9078    3.8877    0.3613 H   0  0  0  0  0  0  0  0  0  0  0  0
   -6.7457    1.8589    0.3582 H   0  0  0  0  0  0  0  0  0  0  0  0
   -7.9058    1.2342    1.5410 H   0  0  0  0  0  0  0  0  0  0  0  0
   -7.2490    0.1343    0.3188 H   0  0  0  0  0  0  0  0  0  0  0  0
  1  2  1  0
  2  3  1  0
  3  4  2  0
  4  5  1  0
  5  6  1  0
  6  7  2  0
  7  8  1  0
  8  9  1  0
  9 10  1  0
  9 11  2  0
  8 12  1  0
 12 13  1  0
 13 14  2  0
 14 15  1  0
 15 16  1  0
 16 17  1  0
 15 18  2  0
 18 19  1  0
 19 20  1  0
 18 21  1  0
 21 22  1  0
 22 23  1  0
 21 24  2  0
 12 25  1  0
  5 26  2  0
 26 27  1  0
 27 28  1  0
 28 29  1  0
 27 30  2  0
 30 31  1  0
 31 32  1  0
 30  3  1  0
 25  6  1  0
 24 13  1  0
  1 33  1  0
  1 34  1  0
  1 35  1  0
  4 36  1  0
 10 37  1  0
 10 38  1  0
 10 39  1  0
 12 40  1  0
 14 41  1  0
 17 42  1  0
 17 43  1  0
 17 44  1  0
 20 45  1  0
 20 46  1  0
 20 47  1  0
 23 48  1  0
 23 49  1  0
 23 50  1  0
 24 51  1  0
 26 52  1  0
 29 53  1  0
 29 54  1  0
 29 55  1  0
 32 56  1  0
 32 57  1  0
 32 58  1  0
M  END
$$$$
