
     RDKit          3D

 30 32  0  0  0  0  0  0  0  0999 V2000
    4.3704   -0.8902   -1.0901 C   0  0  0  0  0  0  0  0  0  0  0  0
    3.1143   -0.4515   -0.3940 C   0  0  0  0  0  0  0  0  0  0  0  0
    1.9199   -1.1870   -0.5591 C   0  0  0  0  0  0  0  0  0  0  0  0
    0.7431   -0.8202    0.1056 C   0  0  0  0  0  0  0  0  0  0  0  0
    0.7886    0.2909    0.9247 C   0  0  0  0  0  0  0  0  0  0  0  0
    1.9622    0.9898    1.1145 C   0  0  0  0  0  0  0  0  0  0  0  0
    3.1368    0.6483    0.4742 C   0  0  0  0  0  0  0  0  0  0  0  0
    1.8312    2.0333    2.0106 O   0  0  0  0  0  0  0  0  0  0  0  0
    0.4766    1.9578    2.3753 C   0  0  0  0  0  0  0  0  0  0  0  0
   -0.0214    2.7791    3.1336 O   0  0  0  0  0  0  0  0  0  0  0  0
   -0.1575    0.9008    1.7300 N   0  0  0  0  0  0  0  0  0  0  0  0
   -1.5062    0.6325    1.8499 C   0  0  0  0  0  0  0  0  0  0  0  0
   -2.1154    0.6462    2.9177 O   0  0  0  0  0  0  0  0  0  0  0  0
   -2.2599    0.2305    0.6340 C   0  0  0  0  0  0  0  0  0  0  0  0
   -2.0746    0.8941   -0.5863 C   0  0  0  0  0  0  0  0  0  0  0  0
   -2.8065    0.5007   -1.7079 C   0  0  0  0  0  0  0  0  0  0  0  0
   -3.7314   -0.5395   -1.6096 C   0  0  0  0  0  0  0  0  0  0  0  0
   -3.9365   -1.1833   -0.3890 C   0  0  0  0  0  0  0  0  0  0  0  0
   -3.2078   -0.7948    0.7355 C   0  0  0  0  0  0  0  0  0  0  0  0
    5.0305   -0.0371   -1.2793 H   0  0  0  0  0  0  0  0  0  0  0  0
    4.1399   -1.3438   -2.0598 H   0  0  0  0  0  0  0  0  0  0  0  0
    4.9035   -1.6206   -0.4740 H   0  0  0  0  0  0  0  0  0  0  0  0
    1.9086   -2.0623   -1.2077 H   0  0  0  0  0  0  0  0  0  0  0  0
   -0.1520   -1.4178   -0.0233 H   0  0  0  0  0  0  0  0  0  0  0  0
    4.0453    1.2161    0.6488 H   0  0  0  0  0  0  0  0  0  0  0  0
   -1.3774    1.7235   -0.6730 H   0  0  0  0  0  0  0  0  0  0  0  0
   -2.6652    1.0125   -2.6572 H   0  0  0  0  0  0  0  0  0  0  0  0
   -4.3057   -0.8393   -2.4833 H   0  0  0  0  0  0  0  0  0  0  0  0
   -4.6717   -1.9807   -0.3107 H   0  0  0  0  0  0  0  0  0  0  0  0
   -3.3818   -1.2880    1.6900 H   0  0  0  0  0  0  0  0  0  0  0  0
  1  2  1  0
  2  3  2  0
  3  4  1  0
  4  5  2  0
  5  6  1  0
  6  7  2  0
  6  8  1  0
  8  9  1  0
  9 10  2  0
  9 11  1  0
 11 12  1  0
 12 13  2  0
 12 14  1  0
 14 15  2  0
 15 16  1  0
 16 17  2  0
 17 18  1  0
 18 19  2  0
  7  2  1  0
 19 14  1  0
 11  5  1  0
  1 20  1  0
  1 21  1  0
  1 22  1  0
  3 23  1  0
  4 24  1  0
  7 25  1  0
 15 26  1  0
 16 27  1  0
 17 28  1  0
 18 29  1  0
 19 30  1  0
M  END
$$$$
