
     RDKit          3D

 50 52  0  0  0  0  0  0  0  0999 V2000
    3.1426   -3.7661   -0.3661 C   0  0  0  0  0  0  0  0  0  0  0  0
    2.4006   -2.6449   -1.0887 C   0  0  0  0  0  0  0  0  0  0  0  0
    1.3921   -1.9135   -0.3064 N   0  0  0  0  0  0  0  0  0  0  0  0
    1.9480   -1.1747    0.8371 C   0  0  0  0  0  0  0  0  0  0  0  0
    2.9025   -0.0686    0.4376 C   0  0  0  0  0  0  0  0  0  0  0  0
    2.4858    0.9484   -0.4338 C   0  0  0  0  0  0  0  0  0  0  0  0
    3.3551    1.9822   -0.7982 C   0  0  0  0  0  0  0  0  0  0  0  0
    4.6535    2.0159   -0.2909 C   0  0  0  0  0  0  0  0  0  0  0  0
    5.6008    2.9643   -0.5640 O   0  0  0  0  0  0  0  0  0  0  0  0
    5.2266    4.0037   -1.4590 C   0  0  0  0  0  0  0  0  0  0  0  0
    5.0710    1.0082    0.5818 C   0  0  0  0  0  0  0  0  0  0  0  0
    4.2054   -0.0264    0.9465 C   0  0  0  0  0  0  0  0  0  0  0  0
    0.2692   -2.7797    0.0897 C   0  0  0  0  0  0  0  0  0  0  0  0
   -0.9962   -2.0119    0.4596 C   0  0  0  0  0  0  0  0  0  0  0  0
   -1.5187   -2.1152    1.6938 C   0  0  0  0  0  0  0  0  0  0  0  0
   -2.7396   -1.3545    2.0416 C   0  0  0  0  0  0  0  0  0  0  0  0
   -3.2113   -1.4564    3.1700 O   0  0  0  0  0  0  0  0  0  0  0  0
   -3.2241   -0.5871    1.0066 N   0  0  0  0  0  0  0  0  0  0  0  0
   -4.3508    0.1919    1.1405 N   0  0  0  0  0  0  0  0  0  0  0  0
   -4.5814    0.7903    0.0138 C   0  0  0  0  0  0  0  0  0  0  0  0
   -5.7344    1.7324   -0.2232 C   0  0  0  0  0  0  0  0  0  0  0  0
   -7.0554    0.9960   -0.0217 C   0  0  0  0  0  0  0  0  0  0  0  0
   -5.6247    2.9316    0.7138 C   0  0  0  0  0  0  0  0  0  0  0  0
   -3.4725    0.4673   -1.2996 S   0  0  0  0  0  0  0  0  0  0  0  0
   -2.6114   -0.5774   -0.2172 C   0  0  0  0  0  0  0  0  0  0  0  0
   -1.5553   -1.2404   -0.5420 N   0  0  0  0  0  0  0  0  0  0  0  0
    3.7271   -3.3901    0.4785 H   0  0  0  0  0  0  0  0  0  0  0  0
    3.8413   -4.2497   -1.0571 H   0  0  0  0  0  0  0  0  0  0  0  0
    2.4578   -4.5372   -0.0008 H   0  0  0  0  0  0  0  0  0  0  0  0
    1.9129   -3.0688   -1.9763 H   0  0  0  0  0  0  0  0  0  0  0  0
    3.1379   -1.9417   -1.4942 H   0  0  0  0  0  0  0  0  0  0  0  0
    2.4261   -1.8569    1.5507 H   0  0  0  0  0  0  0  0  0  0  0  0
    1.1462   -0.6774    1.3980 H   0  0  0  0  0  0  0  0  0  0  0  0
    1.4764    0.9267   -0.8423 H   0  0  0  0  0  0  0  0  0  0  0  0
    2.9848    2.7396   -1.4802 H   0  0  0  0  0  0  0  0  0  0  0  0
    4.9787    3.6038   -2.4478 H   0  0  0  0  0  0  0  0  0  0  0  0
    4.4003    4.5963   -1.0527 H   0  0  0  0  0  0  0  0  0  0  0  0
    6.0870    4.6697   -1.5761 H   0  0  0  0  0  0  0  0  0  0  0  0
    6.0819    1.0297    0.9813 H   0  0  0  0  0  0  0  0  0  0  0  0
    4.5593   -0.7964    1.6273 H   0  0  0  0  0  0  0  0  0  0  0  0
   -0.0072   -3.4326   -0.7498 H   0  0  0  0  0  0  0  0  0  0  0  0
    0.5692   -3.4469    0.9085 H   0  0  0  0  0  0  0  0  0  0  0  0
   -1.0879   -2.7232    2.4784 H   0  0  0  0  0  0  0  0  0  0  0  0
   -5.6994    2.0990   -1.2561 H   0  0  0  0  0  0  0  0  0  0  0  0
   -7.1634    0.6347    1.0071 H   0  0  0  0  0  0  0  0  0  0  0  0
   -7.1204    0.1262   -0.6846 H   0  0  0  0  0  0  0  0  0  0  0  0
   -7.9036    1.6530   -0.2403 H   0  0  0  0  0  0  0  0  0  0  0  0
   -4.6670    3.4455    0.5766 H   0  0  0  0  0  0  0  0  0  0  0  0
   -5.6889    2.6298    1.7651 H   0  0  0  0  0  0  0  0  0  0  0  0
   -6.4266    3.6513    0.5189 H   0  0  0  0  0  0  0  0  0  0  0  0
  1  2  1  0
  2  3  1  0
  3  4  1  0
  4  5  1  0
  5  6  2  0
  6  7  1  0
  7  8  2  0
  8  9  1  0
  9 10  1  0
  8 11  1  0
 11 12  2  0
  3 13  1  0
 13 14  1  0
 14 15  2  0
 15 16  1  0
 16 17  2  0
 16 18  1  0
 18 19  1  0
 19 20  2  0
 20 21  1  0
 21 22  1  0
 21 23  1  0
 20 24  1  0
 24 25  1  0
 25 26  2  0
 12  5  1  0
 26 14  1  0
 25 18  1  0
  1 27  1  0
  1 28  1  0
  1 29  1  0
  2 30  1  0
  2 31  1  0
  4 32  1  0
  4 33  1  0
  6 34  1  0
  7 35  1  0
 10 36  1  0
 10 37  1  0
 10 38  1  0
 11 39  1  0
 12 40  1  0
 13 41  1  0
 13 42  1  0
 15 43  1  0
 21 44  1  0
 22 45  1  0
 22 46  1  0
 22 47  1  0
 23 48  1  0
 23 49  1  0
 23 50  1  0
M  END
$$$$
