
     RDKit          3D

 70 71  0  0  0  0  0  0  0  0999 V2000
    9.3961    0.5682    1.7041 C   0  0  0  0  0  0  0  0  0  0  0  0
    8.8486   -0.5773    0.8786 C   0  0  0  0  0  0  0  0  0  0  0  0
    8.0623   -0.0392   -0.2889 C   0  0  0  0  0  0  0  0  0  0  0  0
    6.9423    0.7788    0.1148 N   0  0  0  0  0  0  0  0  0  0  0  0
    6.2428    1.2651   -1.0226 C   0  0  0  0  0  0  0  0  0  0  0  0
    5.1955    0.2575   -1.4456 C   0  0  0  0  0  0  0  0  0  0  0  0
    4.2080    0.2554   -0.3995 N   0  0  0  0  0  0  0  0  0  0  0  0
    2.8372    0.2053   -0.7059 C   0  0  0  0  0  0  0  0  0  0  0  0
    2.4501    0.1449   -1.9983 N   0  0  0  0  0  0  0  0  0  0  0  0
    1.1455    0.0952   -2.3762 C   0  0  0  0  0  0  0  0  0  0  0  0
    0.1559    0.1058   -1.4148 C   0  0  0  0  0  0  0  0  0  0  0  0
    0.5557    0.1675   -0.0997 C   0  0  0  0  0  0  0  0  0  0  0  0
    1.8585    0.2149    0.2211 N   0  0  0  0  0  0  0  0  0  0  0  0
   -0.5222    0.1792    0.9162 C   0  0  0  0  0  0  0  0  0  0  0  0
   -1.4911   -0.9224    0.5129 C   0  0  0  0  0  0  0  0  0  0  0  0
   -1.8851   -0.8948   -0.8396 N   0  0  0  0  0  0  0  0  0  0  0  0
   -3.1300   -1.4559   -1.1963 C   0  0  0  0  0  0  0  0  0  0  0  0
   -4.3233   -0.8562   -0.5819 C   0  0  0  0  0  0  0  0  0  0  0  0
   -4.2504    0.3381    0.0914 C   0  0  0  0  0  0  0  0  0  0  0  0
   -5.3940    0.8970    0.6751 C   0  0  0  0  0  0  0  0  0  0  0  0
   -6.5900    0.2105    0.5512 C   0  0  0  0  0  0  0  0  0  0  0  0
   -7.7299    0.7461    1.1206 O   0  0  0  0  0  0  0  0  0  0  0  0
   -7.7362    1.9647    1.8262 C   0  0  0  0  0  0  0  0  0  0  0  0
   -9.1543    2.2287    2.3017 C   0  0  0  0  0  0  0  0  0  0  0  0
   -6.6786   -0.9876   -0.1208 C   0  0  0  0  0  0  0  0  0  0  0  0
   -7.9143   -1.6054   -0.1959 O   0  0  0  0  0  0  0  0  0  0  0  0
   -8.1111   -2.8356   -0.8616 C   0  0  0  0  0  0  0  0  0  0  0  0
   -5.5444   -1.5308   -0.6933 C   0  0  0  0  0  0  0  0  0  0  0  0
   -1.3005    0.0549   -1.7083 C   0  0  0  0  0  0  0  0  0  0  0  0
    4.6670    0.3063    0.9647 C   0  0  0  0  0  0  0  0  0  0  0  0
    6.1580    0.0759    1.0689 C   0  0  0  0  0  0  0  0  0  0  0  0
    0.6890    0.0000    0.0000 Cl  0  0  0  0  0  0  0  0  0  0  0  0
    0.6888    0.0000    0.0000 Cl  0  0  0  0  0  0  0  0  0  0  0  0
    8.7902    1.4984    1.5766 H   0  0  0  0  0  0  0  0  0  0  0  0
    9.3830    0.3471    2.7885 H   0  0  0  0  0  0  0  0  0  0  0  0
   10.4229    0.8235    1.3587 H   0  0  0  0  0  0  0  0  0  0  0  0
    9.7052   -1.1594    0.4481 H   0  0  0  0  0  0  0  0  0  0  0  0
    8.2775   -1.3058    1.4848 H   0  0  0  0  0  0  0  0  0  0  0  0
    7.7330   -0.9319   -0.8945 H   0  0  0  0  0  0  0  0  0  0  0  0
    8.7774    0.5682   -0.8978 H   0  0  0  0  0  0  0  0  0  0  0  0
    6.9303    1.4453   -1.8722 H   0  0  0  0  0  0  0  0  0  0  0  0
    5.7055    2.2206   -0.8120 H   0  0  0  0  0  0  0  0  0  0  0  0
    4.7746    0.4723   -2.4473 H   0  0  0  0  0  0  0  0  0  0  0  0
    5.6782   -0.7544   -1.4397 H   0  0  0  0  0  0  0  0  0  0  0  0
    0.8369    0.0471   -3.4082 H   0  0  0  0  0  0  0  0  0  0  0  0
   -1.0617    1.1408    0.9491 H   0  0  0  0  0  0  0  0  0  0  0  0
   -0.1385   -0.1030    1.9244 H   0  0  0  0  0  0  0  0  0  0  0  0
   -2.3098   -1.0373    1.2582 H   0  0  0  0  0  0  0  0  0  0  0  0
   -0.8838   -1.8704    0.6569 H   0  0  0  0  0  0  0  0  0  0  0  0
   -3.0773   -2.5560   -0.9485 H   0  0  0  0  0  0  0  0  0  0  0  0
   -3.2315   -1.4278   -2.3112 H   0  0  0  0  0  0  0  0  0  0  0  0
   -3.2944    0.8329    0.1563 H   0  0  0  0  0  0  0  0  0  0  0  0
   -5.3033    1.8302    1.1936 H   0  0  0  0  0  0  0  0  0  0  0  0
   -7.0361    1.9558    2.6915 H   0  0  0  0  0  0  0  0  0  0  0  0
   -7.4048    2.8040    1.1609 H   0  0  0  0  0  0  0  0  0  0  0  0
   -9.5067    1.2683    2.7506 H   0  0  0  0  0  0  0  0  0  0  0  0
   -9.0765    2.9951    3.1105 H   0  0  0  0  0  0  0  0  0  0  0  0
   -9.7887    2.5861    1.4807 H   0  0  0  0  0  0  0  0  0  0  0  0
   -7.7935   -3.7113   -0.2548 H   0  0  0  0  0  0  0  0  0  0  0  0
   -7.5353   -2.8950   -1.8183 H   0  0  0  0  0  0  0  0  0  0  0  0
   -9.2041   -2.9781   -1.0495 H   0  0  0  0  0  0  0  0  0  0  0  0
   -5.6217   -2.4810   -1.2245 H   0  0  0  0  0  0  0  0  0  0  0  0
   -1.4584   -0.3058   -2.7601 H   0  0  0  0  0  0  0  0  0  0  0  0
   -1.6777    1.0908   -1.5835 H   0  0  0  0  0  0  0  0  0  0  0  0
    4.4687    1.3254    1.3525 H   0  0  0  0  0  0  0  0  0  0  0  0
    4.1817   -0.4535    1.6092 H   0  0  0  0  0  0  0  0  0  0  0  0
    6.3126   -1.0339    1.0395 H   0  0  0  0  0  0  0  0  0  0  0  0
    6.4575    0.3982    2.0865 H   0  0  0  0  0  0  0  0  0  0  0  0
   -0.6890    0.0000    0.0000 H   0  0  0  0  0  0  0  0  0  0  0  0
   -0.6888    0.0000    0.0000 H   0  0  0  0  0  0  0  0  0  0  0  0
  1  2  1  0
  2  3  1  0
  3  4  1  0
  4  5  1  0
  5  6  1  0
  6  7  1  0
  7  8  1  0
  8  9  2  0
  9 10  1  0
 10 11  2  0
 11 12  1  0
 12 13  2  0
 12 14  1  0
 14 15  1  0
 15 16  1  0
 16 17  1  0
 17 18  1  0
 18 19  2  0
 19 20  1  0
 20 21  2  0
 21 22  1  0
 22 23  1  0
 23 24  1  0
 21 25  1  0
 25 26  1  0
 26 27  1  0
 25 28  2  0
 16 29  1  0
  7 30  1  0
 30 31  1  0
 31  4  1  0
 13  8  1  0
 28 18  1  0
 29 11  1  0
  1 34  1  0
  1 35  1  0
  1 36  1  0
  2 37  1  0
  2 38  1  0
  3 39  1  0
  3 40  1  0
  5 41  1  0
  5 42  1  0
  6 43  1  0
  6 44  1  0
 10 45  1  0
 14 46  1  0
 14 47  1  0
 15 48  1  0
 15 49  1  0
 17 50  1  0
 17 51  1  0
 19 52  1  0
 20 53  1  0
 23 54  1  0
 23 55  1  0
 24 56  1  0
 24 57  1  0
 24 58  1  0
 27 59  1  0
 27 60  1  0
 27 61  1  0
 28 62  1  0
 29 63  1  0
 29 64  1  0
 30 65  1  0
 30 66  1  0
 31 67  1  0
 31 68  1  0
 32 69  1  0
 33 70  1  0
M  END
$$$$
