
     RDKit          3D

 55 57  0  0  0  0  0  0  0  0999 V2000
   -6.1510   -1.8145   -2.3853 C   0  0  0  0  0  0  0  0  0  0  0  0
   -4.9452   -0.9135   -2.1588 C   0  0  0  0  0  0  0  0  0  0  0  0
   -4.9967   -0.1292   -0.8378 C   0  0  0  0  0  0  0  0  0  0  0  0
   -4.9813   -1.0426    0.3898 C   0  0  0  0  0  0  0  0  0  0  0  0
   -3.8656    0.7908   -0.7811 N   0  0  0  0  0  0  0  0  0  0  0  0
   -3.8682    1.9228    0.0031 C   0  0  0  0  0  0  0  0  0  0  0  0
   -4.8654    2.3208    0.6009 O   0  0  0  0  0  0  0  0  0  0  0  0
   -2.5506    2.7098    0.0370 C   0  0  0  0  0  0  0  0  0  0  0  0
   -1.3682    1.9512   -0.3900 N   0  0  0  0  0  0  0  0  0  0  0  0
   -0.9206    2.1353   -1.6946 C   0  0  0  0  0  0  0  0  0  0  0  0
   -1.5118    2.8562   -2.5021 O   0  0  0  0  0  0  0  0  0  0  0  0
    0.2329    1.2611   -2.1484 C   0  0  0  0  0  0  0  0  0  0  0  0
    1.1463    0.8588   -1.0912 N   0  0  0  0  0  0  0  0  0  0  0  0
    2.4802    0.7144   -1.4604 C   0  0  0  0  0  0  0  0  0  0  0  0
    2.8447    0.6947   -2.6342 O   0  0  0  0  0  0  0  0  0  0  0  0
    3.3804    0.6623   -0.4304 N   0  0  0  0  0  0  0  0  0  0  0  0
    4.8010    0.6199   -0.6870 C   0  0  0  0  0  0  0  0  0  0  0  0
    5.5266    0.0607    0.5071 C   0  0  0  0  0  0  0  0  0  0  0  0
    5.5960   -1.3275    0.6974 C   0  0  0  0  0  0  0  0  0  0  0  0
    6.2408   -1.8578    1.8151 C   0  0  0  0  0  0  0  0  0  0  0  0
    6.8207   -1.0040    2.7557 C   0  0  0  0  0  0  0  0  0  0  0  0
    6.7538    0.3771    2.5798 C   0  0  0  0  0  0  0  0  0  0  0  0
    6.1048    0.9096    1.4628 C   0  0  0  0  0  0  0  0  0  0  0  0
    0.5406    0.4889    0.1499 C   0  0  0  0  0  0  0  0  0  0  0  0
    1.1426   -0.4354    1.0242 C   0  0  0  0  0  0  0  0  0  0  0  0
    0.5609   -0.7584    2.2521 C   0  0  0  0  0  0  0  0  0  0  0  0
   -0.6426   -0.1746    2.6175 C   0  0  0  0  0  0  0  0  0  0  0  0
   -1.2766    0.7168    1.7479 C   0  0  0  0  0  0  0  0  0  0  0  0
   -0.7085    1.0497    0.5029 C   0  0  0  0  0  0  0  0  0  0  0  0
   -6.1033   -2.2635   -3.3831 H   0  0  0  0  0  0  0  0  0  0  0  0
   -6.1827   -2.6319   -1.6583 H   0  0  0  0  0  0  0  0  0  0  0  0
   -7.0846   -1.2482   -2.3146 H   0  0  0  0  0  0  0  0  0  0  0  0
   -4.0299   -1.5172   -2.2043 H   0  0  0  0  0  0  0  0  0  0  0  0
   -4.8853   -0.2034   -2.9935 H   0  0  0  0  0  0  0  0  0  0  0  0
   -5.9152    0.4706   -0.8129 H   0  0  0  0  0  0  0  0  0  0  0  0
   -5.8519   -1.7043    0.4093 H   0  0  0  0  0  0  0  0  0  0  0  0
   -4.9955   -0.4560    1.3145 H   0  0  0  0  0  0  0  0  0  0  0  0
   -4.0773   -1.6601    0.4098 H   0  0  0  0  0  0  0  0  0  0  0  0
   -2.9643    0.4543   -1.0979 H   0  0  0  0  0  0  0  0  0  0  0  0
   -2.3849    3.0919    1.0495 H   0  0  0  0  0  0  0  0  0  0  0  0
   -2.6902    3.5845   -0.6070 H   0  0  0  0  0  0  0  0  0  0  0  0
    0.7748    1.8173   -2.9253 H   0  0  0  0  0  0  0  0  0  0  0  0
   -0.1778    0.3488   -2.6017 H   0  0  0  0  0  0  0  0  0  0  0  0
    3.0987    1.1519    0.4092 H   0  0  0  0  0  0  0  0  0  0  0  0
    5.1342    1.6385   -0.9045 H   0  0  0  0  0  0  0  0  0  0  0  0
    5.0121    0.0164   -1.5754 H   0  0  0  0  0  0  0  0  0  0  0  0
    5.1417   -2.0012   -0.0271 H   0  0  0  0  0  0  0  0  0  0  0  0
    6.2914   -2.9341    1.9555 H   0  0  0  0  0  0  0  0  0  0  0  0
    7.3254   -1.4160    3.6266 H   0  0  0  0  0  0  0  0  0  0  0  0
    7.2056    1.0403    3.3170 H   0  0  0  0  0  0  0  0  0  0  0  0
    6.0562    1.9899    1.3442 H   0  0  0  0  0  0  0  0  0  0  0  0
    2.0615   -0.9535    0.7585 H   0  0  0  0  0  0  0  0  0  0  0  0
    1.0497   -1.4686    2.9176 H   0  0  0  0  0  0  0  0  0  0  0  0
   -1.0997   -0.4208    3.5740 H   0  0  0  0  0  0  0  0  0  0  0  0
   -2.2287    1.1234    2.0779 H   0  0  0  0  0  0  0  0  0  0  0  0
  1  2  1  0
  2  3  1  0
  3  4  1  0
  3  5  1  0
  5  6  1  0
  6  7  2  0
  6  8  1  0
  8  9  1  0
  9 10  1  0
 10 11  2  0
 10 12  1  0
 12 13  1  0
 13 14  1  0
 14 15  2  0
 14 16  1  0
 16 17  1  0
 17 18  1  0
 18 19  2  0
 19 20  1  0
 20 21  2  0
 21 22  1  0
 22 23  2  0
 13 24  1  0
 24 25  2  0
 25 26  1  0
 26 27  2  0
 27 28  1  0
 28 29  2  0
 29  9  1  0
 23 18  1  0
 29 24  1  0
  1 30  1  0
  1 31  1  0
  1 32  1  0
  2 33  1  0
  2 34  1  0
  3 35  1  0
  4 36  1  0
  4 37  1  0
  4 38  1  0
  5 39  1  0
  8 40  1  0
  8 41  1  0
 12 42  1  0
 12 43  1  0
 16 44  1  0
 17 45  1  0
 17 46  1  0
 19 47  1  0
 20 48  1  0
 21 49  1  0
 22 50  1  0
 23 51  1  0
 25 52  1  0
 26 53  1  0
 27 54  1  0
 28 55  1  0
M  END
$$$$
