
     RDKit          3D

 53 56  0  0  0  0  0  0  0  0999 V2000
   -9.3186    0.2453    0.3736 C   0  0  0  0  0  0  0  0  0  0  0  0
   -8.1773   -0.5989    0.3370 O   0  0  0  0  0  0  0  0  0  0  0  0
   -6.9421   -0.0006    0.3078 C   0  0  0  0  0  0  0  0  0  0  0  0
   -6.7334    1.3813    0.3144 C   0  0  0  0  0  0  0  0  0  0  0  0
   -5.4353    1.9009    0.2824 C   0  0  0  0  0  0  0  0  0  0  0  0
   -4.3249    1.0493    0.2434 C   0  0  0  0  0  0  0  0  0  0  0  0
   -2.9666    1.5842    0.2092 C   0  0  0  0  0  0  0  0  0  0  0  0
   -2.6759    2.8947    0.2234 N   0  0  0  0  0  0  0  0  0  0  0  0
   -1.2845    2.9194    0.1753 O   0  0  0  0  0  0  0  0  0  0  0  0
   -0.8610    1.6173    0.1447 C   0  0  0  0  0  0  0  0  0  0  0  0
    0.4708    1.3722    0.0880 N   0  0  0  0  0  0  0  0  0  0  0  0
    1.4052    2.4506    0.3946 C   0  0  0  0  0  0  0  0  0  0  0  0
    2.8175    1.9190    0.6237 C   0  0  0  0  0  0  0  0  0  0  0  0
    3.2207    0.9222   -0.4682 C   0  0  0  0  0  0  0  0  0  0  0  0
    4.6075    0.3415   -0.1975 C   0  0  0  0  0  0  0  0  0  0  0  0
    5.1900    0.5140    0.8684 O   0  0  0  0  0  0  0  0  0  0  0  0
    5.0963   -0.3745   -1.2671 N   0  0  0  0  0  0  0  0  0  0  0  0
    6.3130   -1.0184   -1.3051 C   0  0  0  0  0  0  0  0  0  0  0  0
    7.3147   -1.1117   -0.3151 C   0  0  0  0  0  0  0  0  0  0  0  0
    8.3019   -1.8703   -0.8929 C   0  0  0  0  0  0  0  0  0  0  0  0
    9.6178   -2.3600   -0.4490 C   0  0  0  0  0  0  0  0  0  0  0  0
    7.9196   -2.2137   -2.1506 O   0  0  0  0  0  0  0  0  0  0  0  0
    6.6711   -1.6797   -2.4116 N   0  0  0  0  0  0  0  0  0  0  0  0
    2.1806   -0.2024   -0.6320 C   0  0  0  0  0  0  0  0  0  0  0  0
    0.9296   -0.0007    0.2237 C   0  0  0  0  0  0  0  0  0  0  0  0
   -1.8583    0.7671    0.1597 N   0  0  0  0  0  0  0  0  0  0  0  0
   -4.5369   -0.3382    0.2370 C   0  0  0  0  0  0  0  0  0  0  0  0
   -5.8331   -0.8691    0.2690 C   0  0  0  0  0  0  0  0  0  0  0  0
   -6.1207   -2.2123    0.2645 O   0  0  0  0  0  0  0  0  0  0  0  0
   -5.0303   -3.1216    0.2288 C   0  0  0  0  0  0  0  0  0  0  0  0
  -10.2068   -0.3937    0.3898 H   0  0  0  0  0  0  0  0  0  0  0  0
   -9.3765    0.8716   -0.5228 H   0  0  0  0  0  0  0  0  0  0  0  0
   -9.3308    0.8536    1.2841 H   0  0  0  0  0  0  0  0  0  0  0  0
   -7.5584    2.0852    0.3445 H   0  0  0  0  0  0  0  0  0  0  0  0
   -5.3034    2.9817    0.2885 H   0  0  0  0  0  0  0  0  0  0  0  0
    1.0910    2.9990    1.2918 H   0  0  0  0  0  0  0  0  0  0  0  0
    1.4171    3.1610   -0.4413 H   0  0  0  0  0  0  0  0  0  0  0  0
    2.8693    1.4388    1.6101 H   0  0  0  0  0  0  0  0  0  0  0  0
    3.5249    2.7566    0.6568 H   0  0  0  0  0  0  0  0  0  0  0  0
    3.2896    1.4762   -1.4152 H   0  0  0  0  0  0  0  0  0  0  0  0
    4.5645   -0.4607   -2.1226 H   0  0  0  0  0  0  0  0  0  0  0  0
    7.3231   -0.6891    0.6783 H   0  0  0  0  0  0  0  0  0  0  0  0
    9.6390   -3.4542   -0.4460 H   0  0  0  0  0  0  0  0  0  0  0  0
   10.4066   -2.0007   -1.1170 H   0  0  0  0  0  0  0  0  0  0  0  0
    9.8451   -2.0124    0.5636 H   0  0  0  0  0  0  0  0  0  0  0  0
    1.8826   -0.2387   -1.6885 H   0  0  0  0  0  0  0  0  0  0  0  0
    2.6045   -1.1878   -0.4034 H   0  0  0  0  0  0  0  0  0  0  0  0
    0.1737   -0.7241   -0.1068 H   0  0  0  0  0  0  0  0  0  0  0  0
    1.1428   -0.2229    1.2768 H   0  0  0  0  0  0  0  0  0  0  0  0
   -3.6693   -0.9904    0.2060 H   0  0  0  0  0  0  0  0  0  0  0  0
   -4.3987   -3.0167    1.1170 H   0  0  0  0  0  0  0  0  0  0  0  0
   -4.4466   -3.0029   -0.6899 H   0  0  0  0  0  0  0  0  0  0  0  0
   -5.4407   -4.1361    0.2318 H   0  0  0  0  0  0  0  0  0  0  0  0
  1  2  1  0
  2  3  1  0
  3  4  2  0
  4  5  1  0
  5  6  2  0
  6  7  1  0
  7  8  2  0
  8  9  1  0
  9 10  1  0
 10 11  1  0
 11 12  1  0
 12 13  1  0
 13 14  1  0
 14 15  1  0
 15 16  2  0
 15 17  1  0
 17 18  1  0
 18 19  1  0
 19 20  2  0
 20 21  1  0
 20 22  1  0
 22 23  1  0
 14 24  1  0
 24 25  1  0
 10 26  2  0
  6 27  1  0
 27 28  2  0
 28 29  1  0
 29 30  1  0
 28  3  1  0
 26  7  1  0
 25 11  1  0
 23 18  2  0
  1 31  1  0
  1 32  1  0
  1 33  1  0
  4 34  1  0
  5 35  1  0
 12 36  1  0
 12 37  1  0
 13 38  1  0
 13 39  1  0
 14 40  1  0
 17 41  1  0
 19 42  1  0
 21 43  1  0
 21 44  1  0
 21 45  1  0
 24 46  1  0
 24 47  1  0
 25 48  1  0
 25 49  1  0
 27 50  1  0
 30 51  1  0
 30 52  1  0
 30 53  1  0
M  END
$$$$
