
     RDKit          3D

 56 60  0  0  0  0  0  0  0  0999 V2000
    1.1404    4.3643    0.1468 C   0  0  0  0  0  0  0  0  0  0  0  0
    0.8445    2.9423   -0.2344 C   0  0  0  0  0  0  0  0  0  0  0  0
   -0.3649    2.5985   -0.5791 N   0  0  0  0  0  0  0  0  0  0  0  0
   -0.6355    1.2710   -0.9314 N   0  0  0  0  0  0  0  0  0  0  0  0
   -2.0171    0.9582   -1.2615 C   0  0  0  0  0  0  0  0  0  0  0  0
   -2.6943    0.2155   -0.1049 C   0  0  0  0  0  0  0  0  0  0  0  0
   -2.2698    0.2127    1.0476 O   0  0  0  0  0  0  0  0  0  0  0  0
   -3.8732   -0.4161   -0.4727 N   0  0  0  0  0  0  0  0  0  0  0  0
   -4.5712   -1.2770    0.4690 C   0  0  0  0  0  0  0  0  0  0  0  0
   -6.0661   -1.3883    0.1668 C   0  0  0  0  0  0  0  0  0  0  0  0
   -6.8361   -0.0987    0.4129 C   0  0  0  0  0  0  0  0  0  0  0  0
   -8.2232   -0.6209    0.6931 C   0  0  0  0  0  0  0  0  0  0  0  0
   -7.9281   -1.8752    1.4871 C   0  0  0  0  0  0  0  0  0  0  0  0
   -6.6760   -2.3873    1.0056 O   0  0  0  0  0  0  0  0  0  0  0  0
    0.3062    0.2237   -0.9941 C   0  0  0  0  0  0  0  0  0  0  0  0
    0.0165   -0.8978   -1.3999 O   0  0  0  0  0  0  0  0  0  0  0  0
    1.6307    0.6074   -0.5620 C   0  0  0  0  0  0  0  0  0  0  0  0
    2.8648   -0.0155   -0.4886 C   0  0  0  0  0  0  0  0  0  0  0  0
    3.2282   -1.2932   -0.9128 N   0  0  0  0  0  0  0  0  0  0  0  0
    4.4301   -1.6429   -1.5069 C   0  0  0  0  0  0  0  0  0  0  0  0
    4.4259   -2.9886   -1.7993 C   0  0  0  0  0  0  0  0  0  0  0  0
    3.1804   -3.4963   -1.3842 C   0  0  0  0  0  0  0  0  0  0  0  0
    2.4681   -2.4424   -0.8550 C   0  0  0  0  0  0  0  0  0  0  0  0
    3.7429    0.9276    0.0401 N   0  0  0  0  0  0  0  0  0  0  0  0
    5.0141    0.7749    0.6744 C   0  0  0  0  0  0  0  0  0  0  0  0
    5.8525    1.8980    0.8017 C   0  0  0  0  0  0  0  0  0  0  0  0
    7.0925    1.7919    1.4383 C   0  0  0  0  0  0  0  0  0  0  0  0
    7.4968    0.5697    1.9679 C   0  0  0  0  0  0  0  0  0  0  0  0
    6.6543   -0.5310    1.8669 C   0  0  0  0  0  0  0  0  0  0  0  0
    7.0347   -1.6986    2.4022 F   0  0  0  0  0  0  0  0  0  0  0  0
    5.4168   -0.4427    1.2344 C   0  0  0  0  0  0  0  0  0  0  0  0
    3.1768    2.1705    0.0398 N   0  0  0  0  0  0  0  0  0  0  0  0
    1.8891    1.9416   -0.2205 C   0  0  0  0  0  0  0  0  0  0  0  0
    1.4765    4.4018    1.1869 H   0  0  0  0  0  0  0  0  0  0  0  0
    1.9273    4.7645   -0.4989 H   0  0  0  0  0  0  0  0  0  0  0  0
    0.2452    4.9835    0.0401 H   0  0  0  0  0  0  0  0  0  0  0  0
   -2.5685    1.8842   -1.4562 H   0  0  0  0  0  0  0  0  0  0  0  0
   -2.0391    0.3349   -2.1619 H   0  0  0  0  0  0  0  0  0  0  0  0
   -3.9893   -0.6298   -1.4557 H   0  0  0  0  0  0  0  0  0  0  0  0
   -4.1025   -2.2668    0.4125 H   0  0  0  0  0  0  0  0  0  0  0  0
   -4.4142   -0.9242    1.4953 H   0  0  0  0  0  0  0  0  0  0  0  0
   -6.2130   -1.7152   -0.8706 H   0  0  0  0  0  0  0  0  0  0  0  0
   -6.7964    0.5899   -0.4355 H   0  0  0  0  0  0  0  0  0  0  0  0
   -6.4549    0.4251    1.2983 H   0  0  0  0  0  0  0  0  0  0  0  0
   -8.8597    0.0862    1.2319 H   0  0  0  0  0  0  0  0  0  0  0  0
   -8.7195   -0.8821   -0.2495 H   0  0  0  0  0  0  0  0  0  0  0  0
   -7.8083   -1.6504    2.5523 H   0  0  0  0  0  0  0  0  0  0  0  0
   -8.7056   -2.6366    1.3753 H   0  0  0  0  0  0  0  0  0  0  0  0
    5.1891   -0.8977   -1.7043 H   0  0  0  0  0  0  0  0  0  0  0  0
    5.2314   -3.5374   -2.2706 H   0  0  0  0  0  0  0  0  0  0  0  0
    2.8311   -4.5182   -1.4582 H   0  0  0  0  0  0  0  0  0  0  0  0
    1.4851   -2.4381   -0.4051 H   0  0  0  0  0  0  0  0  0  0  0  0
    5.5552    2.8655    0.3985 H   0  0  0  0  0  0  0  0  0  0  0  0
    7.7355    2.6640    1.5249 H   0  0  0  0  0  0  0  0  0  0  0  0
    8.4534    0.4701    2.4704 H   0  0  0  0  0  0  0  0  0  0  0  0
    4.7902   -1.3283    1.2379 H   0  0  0  0  0  0  0  0  0  0  0  0
  1  2  1  0
  2  3  2  0
  3  4  1  0
  4  5  1  0
  5  6  1  0
  6  7  2  0
  6  8  1  0
  8  9  1  0
  9 10  1  0
 10 11  1  0
 11 12  1  0
 12 13  1  0
 13 14  1  0
  4 15  1  0
 15 16  2  0
 15 17  1  0
 17 18  2  0
 18 19  1  0
 19 20  1  0
 20 21  2  0
 21 22  1  0
 22 23  2  0
 18 24  1  0
 24 25  1  0
 25 26  2  0
 26 27  1  0
 27 28  2  0
 28 29  1  0
 29 30  1  0
 29 31  2  0
 24 32  1  0
 32 33  2  0
 33  2  1  0
 14 10  1  0
 33 17  1  0
 23 19  1  0
 31 25  1  0
  1 34  1  0
  1 35  1  0
  1 36  1  0
  5 37  1  0
  5 38  1  0
  8 39  1  0
  9 40  1  0
  9 41  1  0
 10 42  1  0
 11 43  1  0
 11 44  1  0
 12 45  1  0
 12 46  1  0
 13 47  1  0
 13 48  1  0
 20 49  1  0
 21 50  1  0
 22 51  1  0
 23 52  1  0
 26 53  1  0
 27 54  1  0
 28 55  1  0
 31 56  1  0
M  END
$$$$
