
     RDKit          3D

 53 57  0  0  0  0  0  0  0  0999 V2000
   -0.0138    5.6554    1.8699 C   0  0  0  0  0  0  0  0  0  0  0  0
    0.2591    4.3117    2.2494 O   0  0  0  0  0  0  0  0  0  0  0  0
   -0.4484    3.3285    1.6137 C   0  0  0  0  0  0  0  0  0  0  0  0
   -1.4410    3.5264    0.6589 C   0  0  0  0  0  0  0  0  0  0  0  0
   -2.0821    2.4261    0.0924 C   0  0  0  0  0  0  0  0  0  0  0  0
   -1.7312    1.1262    0.4845 C   0  0  0  0  0  0  0  0  0  0  0  0
   -2.4347   -0.0202   -0.1466 C   0  0  0  0  0  0  0  0  0  0  0  0
   -3.2588    0.1676   -1.0345 O   0  0  0  0  0  0  0  0  0  0  0  0
   -2.0928   -1.3805    0.3253 C   0  0  0  0  0  0  0  0  0  0  0  0
   -2.7019   -2.6378   -0.1766 C   0  0  0  0  0  0  0  0  0  0  0  0
   -2.0258   -3.6602   -0.2861 O   0  0  0  0  0  0  0  0  0  0  0  0
   -4.1421   -2.6870   -0.5284 C   0  0  0  0  0  0  0  0  0  0  0  0
   -5.1023   -1.9333    0.1457 C   0  0  0  0  0  0  0  0  0  0  0  0
   -6.4249   -2.0835   -0.2335 C   0  0  0  0  0  0  0  0  0  0  0  0
   -6.8390   -2.9298   -1.2004 N   0  0  0  0  0  0  0  0  0  0  0  0
   -5.8901   -3.6600   -1.8235 C   0  0  0  0  0  0  0  0  0  0  0  0
   -4.5432   -3.5804   -1.5233 C   0  0  0  0  0  0  0  0  0  0  0  0
   -1.1108   -1.4847    1.2330 C   0  0  0  0  0  0  0  0  0  0  0  0
   -0.3995   -0.4380    1.8043 N   0  0  0  0  0  0  0  0  0  0  0  0
    0.6120   -0.6842    2.8670 C   0  0  0  0  0  0  0  0  0  0  0  0
    2.0596   -0.5000    2.3866 C   0  0  0  0  0  0  0  0  0  0  0  0
    2.9609   -0.3297    3.2045 O   0  0  0  0  0  0  0  0  0  0  0  0
    2.2093   -0.5945    1.0153 N   0  0  0  0  0  0  0  0  0  0  0  0
    3.3895   -0.4989    0.2547 C   0  0  0  0  0  0  0  0  0  0  0  0
    4.6682   -0.3146    0.8145 C   0  0  0  0  0  0  0  0  0  0  0  0
    5.8065   -0.2281    0.0012 C   0  0  0  0  0  0  0  0  0  0  0  0
    5.6343   -0.3296   -1.3600 C   0  0  0  0  0  0  0  0  0  0  0  0
    4.3912   -0.5105   -1.9139 C   0  0  0  0  0  0  0  0  0  0  0  0
    3.2536   -0.5987   -1.1380 C   0  0  0  0  0  0  0  0  0  0  0  0
    4.4342   -0.5878   -3.2712 O   0  0  0  0  0  0  0  0  0  0  0  0
    5.8502   -0.4364   -3.5063 C   0  0  0  0  0  0  0  0  0  0  0  0
    6.6175   -0.2698   -2.2961 O   0  0  0  0  0  0  0  0  0  0  0  0
   -0.7302    0.8926    1.4504 C   0  0  0  0  0  0  0  0  0  0  0  0
   -0.1017    2.0235    1.9988 C   0  0  0  0  0  0  0  0  0  0  0  0
   -1.0479    5.9283    2.1045 H   0  0  0  0  0  0  0  0  0  0  0  0
    0.2087    5.8194    0.8103 H   0  0  0  0  0  0  0  0  0  0  0  0
    0.6433    6.3075    2.4535 H   0  0  0  0  0  0  0  0  0  0  0  0
   -1.7388    4.5175    0.3331 H   0  0  0  0  0  0  0  0  0  0  0  0
   -2.8554    2.5847   -0.6573 H   0  0  0  0  0  0  0  0  0  0  0  0
   -4.8513   -1.2470    0.9447 H   0  0  0  0  0  0  0  0  0  0  0  0
   -7.2142   -1.5136    0.2493 H   0  0  0  0  0  0  0  0  0  0  0  0
   -6.2540   -4.3354   -2.5927 H   0  0  0  0  0  0  0  0  0  0  0  0
   -3.8255   -4.2000   -2.0510 H   0  0  0  0  0  0  0  0  0  0  0  0
   -0.8048   -2.4681    1.5911 H   0  0  0  0  0  0  0  0  0  0  0  0
    0.5350   -1.7166    3.2313 H   0  0  0  0  0  0  0  0  0  0  0  0
    0.4295   -0.0378    3.7330 H   0  0  0  0  0  0  0  0  0  0  0  0
    1.3427   -0.7038    0.4979 H   0  0  0  0  0  0  0  0  0  0  0  0
    4.8114   -0.2344    1.8878 H   0  0  0  0  0  0  0  0  0  0  0  0
    6.7910   -0.0860    0.4326 H   0  0  0  0  0  0  0  0  0  0  0  0
    2.2903   -0.7427   -1.6143 H   0  0  0  0  0  0  0  0  0  0  0  0
    6.0070    0.4404   -4.1450 H   0  0  0  0  0  0  0  0  0  0  0  0
    6.2150   -1.3254   -4.0338 H   0  0  0  0  0  0  0  0  0  0  0  0
    0.6859    1.9334    2.7424 H   0  0  0  0  0  0  0  0  0  0  0  0
  1  2  1  0
  2  3  1  0
  3  4  2  0
  4  5  1  0
  5  6  2  0
  6  7  1  0
  7  8  2  0
  7  9  1  0
  9 10  1  0
 10 11  2  0
 10 12  1  0
 12 13  2  0
 13 14  1  0
 14 15  2  0
 15 16  1  0
 16 17  2  0
  9 18  2  0
 18 19  1  0
 19 20  1  0
 20 21  1  0
 21 22  2  0
 21 23  1  0
 23 24  1  0
 24 25  2  0
 25 26  1  0
 26 27  2  0
 27 28  1  0
 28 29  2  0
 28 30  1  0
 30 31  1  0
 31 32  1  0
 19 33  1  0
 33 34  2  0
 34  3  1  0
 33  6  1  0
 17 12  1  0
 29 24  1  0
 32 27  1  0
  1 35  1  0
  1 36  1  0
  1 37  1  0
  4 38  1  0
  5 39  1  0
 13 40  1  0
 14 41  1  0
 16 42  1  0
 17 43  1  0
 18 44  1  0
 20 45  1  0
 20 46  1  0
 23 47  1  0
 25 48  1  0
 26 49  1  0
 29 50  1  0
 31 51  1  0
 31 52  1  0
 34 53  1  0
M  END
$$$$
