
     RDKit          3D

 47 49  0  0  0  0  0  0  0  0999 V2000
    8.0121   -0.4825   -1.1689 C   0  0  0  0  0  0  0  0  0  0  0  0
    7.3045   -1.2344   -0.0516 C   0  0  0  0  0  0  0  0  0  0  0  0
    5.8201   -0.9754   -0.0541 C   0  0  0  0  0  0  0  0  0  0  0  0
    4.9650   -1.7364   -0.8571 C   0  0  0  0  0  0  0  0  0  0  0  0
    3.5903   -1.4810   -0.8670 C   0  0  0  0  0  0  0  0  0  0  0  0
    3.0446   -0.4589   -0.0809 C   0  0  0  0  0  0  0  0  0  0  0  0
    1.6496   -0.2724   -0.1527 N   0  0  0  0  0  0  0  0  0  0  0  0
    0.8800    0.6600    0.5099 C   0  0  0  0  0  0  0  0  0  0  0  0
    1.2930    1.5141    1.2894 O   0  0  0  0  0  0  0  0  0  0  0  0
   -0.5838    0.5749    0.2028 C   0  0  0  0  0  0  0  0  0  0  0  0
   -1.4262    1.4254    0.8116 C   0  0  0  0  0  0  0  0  0  0  0  0
   -2.7971    1.4866    0.6288 N   0  0  0  0  0  0  0  0  0  0  0  0
   -3.6604    2.4323    1.3556 C   0  0  0  0  0  0  0  0  0  0  0  0
   -4.2850    1.7691    2.5829 C   0  0  0  0  0  0  0  0  0  0  0  0
   -5.4793    1.1374    2.3660 N   0  0  0  0  0  0  0  0  0  0  0  0
   -3.7734    1.7774    3.6985 O   0  0  0  0  0  0  0  0  0  0  0  0
   -3.4383    0.5684   -0.2293 C   0  0  0  0  0  0  0  0  0  0  0  0
   -4.7910    0.5955   -0.3685 N   0  0  0  0  0  0  0  0  0  0  0  0
   -5.3803   -0.2849   -1.2199 C   0  0  0  0  0  0  0  0  0  0  0  0
   -6.8719   -0.2082   -1.3641 C   0  0  0  0  0  0  0  0  0  0  0  0
   -4.6615   -1.2293   -1.9418 C   0  0  0  0  0  0  0  0  0  0  0  0
   -3.2816   -1.2718   -1.7898 C   0  0  0  0  0  0  0  0  0  0  0  0
   -2.6641   -0.3645   -0.9265 C   0  0  0  0  0  0  0  0  0  0  0  0
   -1.1961   -0.3918   -0.7438 C   0  0  0  0  0  0  0  0  0  0  0  0
   -0.5100   -1.2043   -1.3612 O   0  0  0  0  0  0  0  0  0  0  0  0
    3.8983    0.3045    0.7142 C   0  0  0  0  0  0  0  0  0  0  0  0
    5.2750    0.0502    0.7260 C   0  0  0  0  0  0  0  0  0  0  0  0
    7.6384   -0.7881   -2.1523 H   0  0  0  0  0  0  0  0  0  0  0  0
    9.0877   -0.6838   -1.1378 H   0  0  0  0  0  0  0  0  0  0  0  0
    7.8655    0.5992   -1.0752 H   0  0  0  0  0  0  0  0  0  0  0  0
    7.7301   -0.9424    0.9161 H   0  0  0  0  0  0  0  0  0  0  0  0
    7.4895   -2.3109   -0.1519 H   0  0  0  0  0  0  0  0  0  0  0  0
    5.3625   -2.5332   -1.4818 H   0  0  0  0  0  0  0  0  0  0  0  0
    2.9527   -2.0921   -1.5013 H   0  0  0  0  0  0  0  0  0  0  0  0
    1.1522   -0.9078   -0.7782 H   0  0  0  0  0  0  0  0  0  0  0  0
   -1.0525    2.1579    1.5269 H   0  0  0  0  0  0  0  0  0  0  0  0
   -4.4452    2.8491    0.7123 H   0  0  0  0  0  0  0  0  0  0  0  0
   -3.0809    3.2957    1.7062 H   0  0  0  0  0  0  0  0  0  0  0  0
   -5.8113    0.5576    3.1246 H   0  0  0  0  0  0  0  0  0  0  0  0
   -5.6564    0.8088    1.4173 H   0  0  0  0  0  0  0  0  0  0  0  0
   -7.3307   -1.1518   -1.0525 H   0  0  0  0  0  0  0  0  0  0  0  0
   -7.1406   -0.0013   -2.4045 H   0  0  0  0  0  0  0  0  0  0  0  0
   -7.2823    0.5934   -0.7408 H   0  0  0  0  0  0  0  0  0  0  0  0
   -5.1617   -1.9221   -2.6121 H   0  0  0  0  0  0  0  0  0  0  0  0
   -2.6941   -2.0021   -2.3408 H   0  0  0  0  0  0  0  0  0  0  0  0
    3.5279    1.1092    1.3411 H   0  0  0  0  0  0  0  0  0  0  0  0
    5.9170    0.6648    1.3532 H   0  0  0  0  0  0  0  0  0  0  0  0
  1  2  1  0
  2  3  1  0
  3  4  2  0
  4  5  1  0
  5  6  2  0
  6  7  1  0
  7  8  1  0
  8  9  2  0
  8 10  1  0
 10 11  2  0
 11 12  1  0
 12 13  1  0
 13 14  1  0
 14 15  1  0
 14 16  2  0
 12 17  1  0
 17 18  2  0
 18 19  1  0
 19 20  1  0
 19 21  2  0
 21 22  1  0
 22 23  2  0
 23 24  1  0
 24 25  2  0
  6 26  1  0
 26 27  2  0
 27  3  1  0
 24 10  1  0
 23 17  1  0
  1 28  1  0
  1 29  1  0
  1 30  1  0
  2 31  1  0
  2 32  1  0
  4 33  1  0
  5 34  1  0
  7 35  1  0
 11 36  1  0
 13 37  1  0
 13 38  1  0
 15 39  1  0
 15 40  1  0
 20 41  1  0
 20 42  1  0
 20 43  1  0
 21 44  1  0
 22 45  1  0
 26 46  1  0
 27 47  1  0
M  END
$$$$
