
     RDKit          3D

 60 64  0  0  0  0  0  0  0  0999 V2000
    8.5098    1.5619   -0.3256 C   0  0  0  0  0  0  0  0  0  0  0  0
    7.5826    0.5011   -0.1277 O   0  0  0  0  0  0  0  0  0  0  0  0
    6.4370    0.5310   -0.8789 C   0  0  0  0  0  0  0  0  0  0  0  0
    5.9932    1.6093   -1.6520 C   0  0  0  0  0  0  0  0  0  0  0  0
    4.8033    1.5171   -2.3857 C   0  0  0  0  0  0  0  0  0  0  0  0
    4.0464    0.3481   -2.3453 C   0  0  0  0  0  0  0  0  0  0  0  0
    4.4817   -0.7172   -1.5507 C   0  0  0  0  0  0  0  0  0  0  0  0
    3.7019   -1.9644   -1.5276 C   0  0  0  0  0  0  0  0  0  0  0  0
    4.0627   -2.8773   -2.2638 O   0  0  0  0  0  0  0  0  0  0  0  0
    2.5949   -2.0393   -0.6943 N   0  0  0  0  0  0  0  0  0  0  0  0
    2.1502   -1.0076    0.2497 C   0  0  0  0  0  0  0  0  0  0  0  0
    0.6198   -0.8953    0.2893 C   0  0  0  0  0  0  0  0  0  0  0  0
   -0.0656   -2.2064    0.5491 N   0  0  0  0  0  0  0  0  0  0  0  0
   -1.1034   -2.2551    1.9026 S   0  0  0  0  0  6  0  0  0  0  0  0
   -1.7435   -3.5514    1.9408 O   0  0  0  0  0  0  0  0  0  0  0  0
   -0.3464   -1.7467    3.0293 O   0  0  0  0  0  0  0  0  0  0  0  0
   -2.3568   -1.0681    1.4785 C   0  0  0  0  0  0  0  0  0  0  0  0
   -2.6819   -0.0458    2.3711 C   0  0  0  0  0  0  0  0  0  0  0  0
   -3.6398    0.9141    2.0102 C   0  0  0  0  0  0  0  0  0  0  0  0
   -4.2935    0.8178    0.7666 C   0  0  0  0  0  0  0  0  0  0  0  0
   -3.9518   -0.2112   -0.1254 C   0  0  0  0  0  0  0  0  0  0  0  0
   -2.9803   -1.1543    0.2313 C   0  0  0  0  0  0  0  0  0  0  0  0
   -4.5643   -0.2312   -1.4957 C   0  0  0  0  0  0  0  0  0  0  0  0
   -5.9904    0.2701   -1.4377 C   0  0  0  0  0  0  0  0  0  0  0  0
   -6.0905    1.6009   -0.7303 C   0  0  0  0  0  0  0  0  0  0  0  0
   -6.9271    2.4316   -1.0887 O   0  0  0  0  0  0  0  0  0  0  0  0
   -5.2733    1.7740    0.3841 N   0  0  0  0  0  0  0  0  0  0  0  0
   -5.5572    2.9053    1.2617 C   0  0  0  0  0  0  0  0  0  0  0  0
   -4.4151    3.2569    2.2015 C   0  0  0  0  0  0  0  0  0  0  0  0
   -3.9838    2.0196    2.9718 C   0  0  0  0  0  0  0  0  0  0  0  0
    0.8395   -3.3959    0.4574 C   0  0  0  0  0  0  0  0  0  0  0  0
    1.8017   -3.2687   -0.7277 C   0  0  0  0  0  0  0  0  0  0  0  0
    5.6753   -0.6377   -0.8292 C   0  0  0  0  0  0  0  0  0  0  0  0
    8.0863    2.5207   -0.0086 H   0  0  0  0  0  0  0  0  0  0  0  0
    8.8462    1.6032   -1.3671 H   0  0  0  0  0  0  0  0  0  0  0  0
    9.3827    1.3624    0.3054 H   0  0  0  0  0  0  0  0  0  0  0  0
    6.5534    2.5381   -1.7083 H   0  0  0  0  0  0  0  0  0  0  0  0
    4.4713    2.3595   -2.9928 H   0  0  0  0  0  0  0  0  0  0  0  0
    3.1312    0.2634   -2.9274 H   0  0  0  0  0  0  0  0  0  0  0  0
    2.5350   -1.2931    1.2361 H   0  0  0  0  0  0  0  0  0  0  0  0
    2.5794   -0.0339    0.0063 H   0  0  0  0  0  0  0  0  0  0  0  0
    0.2545   -0.5376   -0.6834 H   0  0  0  0  0  0  0  0  0  0  0  0
    0.3402   -0.1396    1.0317 H   0  0  0  0  0  0  0  0  0  0  0  0
   -2.1889    0.0125    3.3408 H   0  0  0  0  0  0  0  0  0  0  0  0
   -2.7040   -1.9486   -0.4592 H   0  0  0  0  0  0  0  0  0  0  0  0
   -4.5563   -1.2458   -1.9102 H   0  0  0  0  0  0  0  0  0  0  0  0
   -3.9601    0.4045   -2.1550 H   0  0  0  0  0  0  0  0  0  0  0  0
   -6.6353   -0.4389   -0.9039 H   0  0  0  0  0  0  0  0  0  0  0  0
   -6.3809    0.3806   -2.4558 H   0  0  0  0  0  0  0  0  0  0  0  0
   -6.4609    2.6525    1.8320 H   0  0  0  0  0  0  0  0  0  0  0  0
   -5.8039    3.7815    0.6496 H   0  0  0  0  0  0  0  0  0  0  0  0
   -3.5691    3.6466    1.6218 H   0  0  0  0  0  0  0  0  0  0  0  0
   -4.7254    4.0460    2.8945 H   0  0  0  0  0  0  0  0  0  0  0  0
   -4.7866    1.6771    3.6360 H   0  0  0  0  0  0  0  0  0  0  0  0
   -3.1170    2.2715    3.5939 H   0  0  0  0  0  0  0  0  0  0  0  0
    0.2340   -4.2988    0.3197 H   0  0  0  0  0  0  0  0  0  0  0  0
    1.4083   -3.4973    1.3907 H   0  0  0  0  0  0  0  0  0  0  0  0
    1.2382   -3.2541   -1.6698 H   0  0  0  0  0  0  0  0  0  0  0  0
    2.4760   -4.1336   -0.7600 H   0  0  0  0  0  0  0  0  0  0  0  0
    6.0160   -1.4840   -0.2361 H   0  0  0  0  0  0  0  0  0  0  0  0
  1  2  1  0
  2  3  1  0
  3  4  2  0
  4  5  1  0
  5  6  2  0
  6  7  1  0
  7  8  1  0
  8  9  2  0
  8 10  1  0
 10 11  1  0
 11 12  1  0
 12 13  1  0
 13 14  1  0
 14 15  2  0
 14 16  2  0
 14 17  1  0
 17 18  2  0
 18 19  1  0
 19 20  2  0
 20 21  1  0
 21 22  2  0
 21 23  1  0
 23 24  1  0
 24 25  1  0
 25 26  2  0
 25 27  1  0
 27 28  1  0
 28 29  1  0
 29 30  1  0
 13 31  1  0
 31 32  1  0
  7 33  2  0
 33  3  1  0
 32 10  1  0
 22 17  1  0
 30 19  1  0
 27 20  1  0
  1 34  1  0
  1 35  1  0
  1 36  1  0
  4 37  1  0
  5 38  1  0
  6 39  1  0
 11 40  1  0
 11 41  1  0
 12 42  1  0
 12 43  1  0
 18 44  1  0
 22 45  1  0
 23 46  1  0
 23 47  1  0
 24 48  1  0
 24 49  1  0
 28 50  1  0
 28 51  1  0
 29 52  1  0
 29 53  1  0
 30 54  1  0
 30 55  1  0
 31 56  1  0
 31 57  1  0
 32 58  1  0
 32 59  1  0
 33 60  1  0
M  END
$$$$
