
     RDKit          3D

 63 67  0  0  0  0  0  0  0  0999 V2000
    7.6514   -1.0341   -1.4780 C   0  0  0  0  0  0  0  0  0  0  0  0
    6.2844   -0.4532   -1.8296 C   0  0  0  0  0  0  0  0  0  0  0  0
    6.0530    0.8913   -1.2776 N   0  0  0  0  0  0  0  0  0  0  0  0
    4.8413    1.4905   -1.9016 C   0  0  0  0  0  0  0  0  0  0  0  0
    3.9241    2.2479   -0.9237 C   0  0  0  0  0  0  0  0  0  0  0  0
    3.5063    1.3528    0.1640 N   0  0  0  0  0  0  0  0  0  0  0  0
    2.1554    1.0163    0.2822 C   0  0  0  0  0  0  0  0  0  0  0  0
    1.3194    1.4705   -0.5060 O   0  0  0  0  0  0  0  0  0  0  0  0
    1.7372    0.0829    1.4466 C   0  0  0  0  0  0  0  0  0  0  0  0
    1.8201    0.7653    2.8127 C   0  0  0  0  0  0  0  0  0  0  0  0
    0.4058   -0.4836    1.1519 N   0  0  0  0  0  0  0  0  0  0  0  0
    0.4247   -1.8146    0.6928 N   0  0  0  0  0  0  0  0  0  0  0  0
   -0.6807   -2.3938    0.3186 C   0  0  0  0  0  0  0  0  0  0  0  0
   -0.6580   -3.8206   -0.1489 C   0  0  0  0  0  0  0  0  0  0  0  0
   -1.9174   -1.6502    0.3565 C   0  0  0  0  0  0  0  0  0  0  0  0
   -3.1196   -2.1366    0.0459 N   0  0  0  0  0  0  0  0  0  0  0  0
   -3.9405   -1.0458    0.1067 N   0  0  0  0  0  0  0  0  0  0  0  0
   -5.1914   -1.1058   -0.5824 C   0  0  0  0  0  0  0  0  0  0  0  0
   -5.8253    0.0493   -1.0589 C   0  0  0  0  0  0  0  0  0  0  0  0
   -7.0334   -0.0482   -1.7556 C   0  0  0  0  0  0  0  0  0  0  0  0
   -7.6074   -1.2948   -1.9964 C   0  0  0  0  0  0  0  0  0  0  0  0
   -6.9694   -2.4501   -1.5519 C   0  0  0  0  0  0  0  0  0  0  0  0
   -5.7619   -2.3601   -0.8539 C   0  0  0  0  0  0  0  0  0  0  0  0
   -3.3027    0.0146    0.7455 C   0  0  0  0  0  0  0  0  0  0  0  0
   -3.9561    1.1337    1.2603 N   0  0  0  0  0  0  0  0  0  0  0  0
   -5.2158    1.1408    1.8422 C   0  0  0  0  0  0  0  0  0  0  0  0
   -5.5382    2.4223    2.2297 C   0  0  0  0  0  0  0  0  0  0  0  0
   -4.4440    3.2414    1.8869 C   0  0  0  0  0  0  0  0  0  0  0  0
   -3.4874    2.4286    1.3240 C   0  0  0  0  0  0  0  0  0  0  0  0
   -1.9603   -0.3210    0.7961 C   0  0  0  0  0  0  0  0  0  0  0  0
   -0.7546    0.3187    1.2781 C   0  0  0  0  0  0  0  0  0  0  0  0
   -0.7509    1.4386    1.7757 O   0  0  0  0  0  0  0  0  0  0  0  0
    4.5973    0.5891    0.7844 C   0  0  0  0  0  0  0  0  0  0  0  0
    5.9821    0.9327    0.1975 C   0  0  0  0  0  0  0  0  0  0  0  0
    7.7352   -1.2813   -0.4168 H   0  0  0  0  0  0  0  0  0  0  0  0
    8.4539   -0.3379   -1.7416 H   0  0  0  0  0  0  0  0  0  0  0  0
    7.8163   -1.9599   -2.0393 H   0  0  0  0  0  0  0  0  0  0  0  0
    5.4953   -1.1523   -1.5179 H   0  0  0  0  0  0  0  0  0  0  0  0
    6.2449   -0.3948   -2.9272 H   0  0  0  0  0  0  0  0  0  0  0  0
    5.1657    2.1678   -2.6983 H   0  0  0  0  0  0  0  0  0  0  0  0
    4.2296    0.7111   -2.3724 H   0  0  0  0  0  0  0  0  0  0  0  0
    4.4525    3.0970   -0.4722 H   0  0  0  0  0  0  0  0  0  0  0  0
    3.0619    2.6631   -1.4577 H   0  0  0  0  0  0  0  0  0  0  0  0
    2.4193   -0.7742    1.4613 H   0  0  0  0  0  0  0  0  0  0  0  0
    1.2145    0.2333    3.5580 H   0  0  0  0  0  0  0  0  0  0  0  0
    1.4910    1.8106    2.7716 H   0  0  0  0  0  0  0  0  0  0  0  0
    2.8517    0.7755    3.1859 H   0  0  0  0  0  0  0  0  0  0  0  0
   -1.2952   -4.4316    0.4979 H   0  0  0  0  0  0  0  0  0  0  0  0
    0.3615   -4.2146   -0.1182 H   0  0  0  0  0  0  0  0  0  0  0  0
   -1.0304   -3.8773   -1.1752 H   0  0  0  0  0  0  0  0  0  0  0  0
   -5.3868    1.0381   -0.9471 H   0  0  0  0  0  0  0  0  0  0  0  0
   -7.5158    0.8532   -2.1264 H   0  0  0  0  0  0  0  0  0  0  0  0
   -8.5440   -1.3667   -2.5428 H   0  0  0  0  0  0  0  0  0  0  0  0
   -7.4039   -3.4248   -1.7563 H   0  0  0  0  0  0  0  0  0  0  0  0
   -5.2819   -3.2776   -0.5204 H   0  0  0  0  0  0  0  0  0  0  0  0
   -5.7757    0.2206    1.9656 H   0  0  0  0  0  0  0  0  0  0  0  0
   -6.4598    2.7230    2.7097 H   0  0  0  0  0  0  0  0  0  0  0  0
   -4.3482    4.3086    2.0414 H   0  0  0  0  0  0  0  0  0  0  0  0
   -2.5215    2.6925    0.9149 H   0  0  0  0  0  0  0  0  0  0  0  0
    4.3981   -0.4825    0.6466 H   0  0  0  0  0  0  0  0  0  0  0  0
    4.5969    0.8071    1.8579 H   0  0  0  0  0  0  0  0  0  0  0  0
    6.2408    1.9552    0.5079 H   0  0  0  0  0  0  0  0  0  0  0  0
    6.7467    0.3040    0.6671 H   0  0  0  0  0  0  0  0  0  0  0  0
  1  2  1  0
  2  3  1  0
  3  4  1  0
  4  5  1  0
  5  6  1  0
  6  7  1  0
  7  8  2  0
  7  9  1  0
  9 10  1  0
  9 11  1  0
 11 12  1  0
 12 13  2  0
 13 14  1  0
 13 15  1  0
 15 16  2  0
 16 17  1  0
 17 18  1  0
 18 19  2  0
 19 20  1  0
 20 21  2  0
 21 22  1  0
 22 23  2  0
 17 24  1  0
 24 25  1  0
 25 26  1  0
 26 27  2  0
 27 28  1  0
 28 29  2  0
 24 30  2  0
 30 31  1  0
 31 32  2  0
  6 33  1  0
 33 34  1  0
 34  3  1  0
 31 11  1  0
 30 15  1  0
 23 18  1  0
 29 25  1  0
  1 35  1  0
  1 36  1  0
  1 37  1  0
  2 38  1  0
  2 39  1  0
  4 40  1  0
  4 41  1  0
  5 42  1  0
  5 43  1  0
  9 44  1  0
 10 45  1  0
 10 46  1  0
 10 47  1  0
 14 48  1  0
 14 49  1  0
 14 50  1  0
 19 51  1  0
 20 52  1  0
 21 53  1  0
 22 54  1  0
 23 55  1  0
 26 56  1  0
 27 57  1  0
 28 58  1  0
 29 59  1  0
 33 60  1  0
 33 61  1  0
 34 62  1  0
 34 63  1  0
M  END
$$$$
