
     RDKit          3D

 51 52  0  0  0  0  0  0  0  0999 V2000
    0.8839   -2.6507    3.0708 C   0  0  0  0  0  0  0  0  0  0  0  0
    2.1663   -1.8236    3.2048 C   0  0  0  0  0  0  0  0  0  0  0  0
    2.0587   -0.8945    4.4189 C   0  0  0  0  0  0  0  0  0  0  0  0
    2.5123   -1.0962    1.8880 C   0  0  0  0  0  0  0  0  0  0  0  0
    3.8702   -0.4965    1.9981 N   0  0  0  0  0  0  0  0  0  0  0  0
    4.8414   -0.5375    0.6246 S   0  0  0  0  0  6  0  0  0  0  0  0
    4.8066   -1.8866    0.1000 O   0  0  0  0  0  0  0  0  0  0  0  0
    6.0834    0.1243    0.9480 O   0  0  0  0  0  0  0  0  0  0  0  0
    4.0817    0.4481   -0.6481 C   0  0  0  0  0  0  0  0  0  0  0  0
    3.5505    0.1123   -1.8804 C   0  0  0  0  0  0  0  0  0  0  0  0
    3.0234    1.2423   -2.5711 C   0  0  0  0  0  0  0  0  0  0  0  0
    3.1761    2.4035   -1.8449 C   0  0  0  0  0  0  0  0  0  0  0  0
    3.9581    2.1278   -0.3482 S   0  0  0  0  0  0  0  0  0  0  0  0
    1.5309    0.0349    1.5426 C   0  0  0  0  0  0  0  0  0  0  0  0
    1.6730    1.1699    1.9933 O   0  0  0  0  0  0  0  0  0  0  0  0
    0.5087   -0.3158    0.6880 N   0  0  0  0  0  0  0  0  0  0  0  0
   -0.3828    0.6976    0.1584 C   0  0  0  0  0  0  0  0  0  0  0  0
   -1.6289    0.0798   -0.4659 C   0  0  0  0  0  0  0  0  0  0  0  0
   -2.5452    1.1670   -1.0385 C   0  0  0  0  0  0  0  0  0  0  0  0
   -3.7976    0.6130   -1.5554 N   0  0  0  0  0  0  0  0  0  0  0  0
   -3.6340   -0.2034   -2.7604 C   0  0  0  0  0  0  0  0  0  0  0  0
   -5.0462   -0.2923   -3.3244 C   0  0  0  0  0  0  0  0  0  0  0  0
   -5.7882    0.9049   -2.7413 C   0  0  0  0  0  0  0  0  0  0  0  0
   -4.7412    1.6656   -1.9448 C   0  0  0  0  0  0  0  0  0  0  0  0
    0.9373   -3.3201    2.2061 H   0  0  0  0  0  0  0  0  0  0  0  0
    0.7316   -3.2710    3.9610 H   0  0  0  0  0  0  0  0  0  0  0  0
    0.0008   -2.0126    2.9569 H   0  0  0  0  0  0  0  0  0  0  0  0
    2.9832   -2.5289    3.4127 H   0  0  0  0  0  0  0  0  0  0  0  0
    1.9129   -1.4794    5.3339 H   0  0  0  0  0  0  0  0  0  0  0  0
    1.2109   -0.2083    4.3299 H   0  0  0  0  0  0  0  0  0  0  0  0
    2.9678   -0.3007    4.5527 H   0  0  0  0  0  0  0  0  0  0  0  0
    2.5040   -1.8356    1.0797 H   0  0  0  0  0  0  0  0  0  0  0  0
    3.8449    0.4476    2.4004 H   0  0  0  0  0  0  0  0  0  0  0  0
    3.5513   -0.9028   -2.2623 H   0  0  0  0  0  0  0  0  0  0  0  0
    2.5660    1.2078   -3.5520 H   0  0  0  0  0  0  0  0  0  0  0  0
    2.8776    3.4045   -2.1227 H   0  0  0  0  0  0  0  0  0  0  0  0
    0.5758   -1.1937    0.1878 H   0  0  0  0  0  0  0  0  0  0  0  0
    0.1821    1.2678   -0.5884 H   0  0  0  0  0  0  0  0  0  0  0  0
   -0.6551    1.3855    0.9674 H   0  0  0  0  0  0  0  0  0  0  0  0
   -2.1666   -0.5039    0.2929 H   0  0  0  0  0  0  0  0  0  0  0  0
   -1.3267   -0.6228   -1.2525 H   0  0  0  0  0  0  0  0  0  0  0  0
   -2.7804    1.8739   -0.2313 H   0  0  0  0  0  0  0  0  0  0  0  0
   -2.0142    1.7342   -1.8149 H   0  0  0  0  0  0  0  0  0  0  0  0
   -2.9757    0.2822   -3.4918 H   0  0  0  0  0  0  0  0  0  0  0  0
   -3.2366   -1.1991   -2.5412 H   0  0  0  0  0  0  0  0  0  0  0  0
   -5.0390   -0.2689   -4.4195 H   0  0  0  0  0  0  0  0  0  0  0  0
   -5.5362   -1.2217   -3.0116 H   0  0  0  0  0  0  0  0  0  0  0  0
   -6.5936    0.5559   -2.0844 H   0  0  0  0  0  0  0  0  0  0  0  0
   -6.2369    1.5274   -3.5211 H   0  0  0  0  0  0  0  0  0  0  0  0
   -5.1831    2.1674   -1.0778 H   0  0  0  0  0  0  0  0  0  0  0  0
   -4.2631    2.4213   -2.5824 H   0  0  0  0  0  0  0  0  0  0  0  0
  1  2  1  0
  2  3  1  0
  2  4  1  0
  4  5  1  0
  5  6  1  0
  6  7  2  0
  6  8  2  0
  6  9  1  0
  9 10  2  0
 10 11  1  0
 11 12  2  0
 12 13  1  0
  4 14  1  0
 14 15  2  0
 14 16  1  0
 16 17  1  0
 17 18  1  0
 18 19  1  0
 19 20  1  0
 20 21  1  0
 21 22  1  0
 22 23  1  0
 23 24  1  0
 13  9  1  0
 24 20  1  0
  1 25  1  0
  1 26  1  0
  1 27  1  0
  2 28  1  0
  3 29  1  0
  3 30  1  0
  3 31  1  0
  4 32  1  0
  5 33  1  0
 10 34  1  0
 11 35  1  0
 12 36  1  0
 16 37  1  0
 17 38  1  0
 17 39  1  0
 18 40  1  0
 18 41  1  0
 19 42  1  0
 19 43  1  0
 21 44  1  0
 21 45  1  0
 22 46  1  0
 22 47  1  0
 23 48  1  0
 23 49  1  0
 24 50  1  0
 24 51  1  0
M  END
$$$$
