
     RDKit          3D

 50 53  0  0  0  0  0  0  0  0999 V2000
   -7.3137   -0.1882   -1.5402 C   0  0  0  0  0  0  0  0  0  0  0  0
   -6.3257   -0.8779   -0.7406 N   0  0  0  0  0  0  0  0  0  0  0  0
   -6.3540   -2.2158   -0.4499 C   0  0  0  0  0  0  0  0  0  0  0  0
   -5.2613   -2.5003    0.3364 C   0  0  0  0  0  0  0  0  0  0  0  0
   -4.5379   -1.2916    0.5280 C   0  0  0  0  0  0  0  0  0  0  0  0
   -3.3603   -0.9675    1.2282 C   0  0  0  0  0  0  0  0  0  0  0  0
   -2.9101    0.3588    1.2047 C   0  0  0  0  0  0  0  0  0  0  0  0
   -1.4191    0.7967    2.0630 S   0  0  0  0  0  6  0  0  0  0  0  0
   -0.8415   -0.4055    2.6251 O   0  0  0  0  0  0  0  0  0  0  0  0
   -1.7268    1.9385    2.8966 O   0  0  0  0  0  0  0  0  0  0  0  0
   -0.4035    1.3149    0.7962 N   0  0  0  0  0  0  0  0  0  0  0  0
    0.0062    0.2753   -0.2102 C   0  0  0  0  0  0  0  0  0  0  0  0
    1.2289   -0.5445    0.2494 C   0  0  0  0  0  0  0  0  0  0  0  0
    2.3273    0.3484    0.6391 N   0  0  0  0  0  0  0  0  0  0  0  0
    3.2854    0.7811   -0.2680 C   0  0  0  0  0  0  0  0  0  0  0  0
    3.8076    1.8902   -0.2111 O   0  0  0  0  0  0  0  0  0  0  0  0
    3.5924   -0.1352   -1.2382 N   0  0  0  0  0  0  0  0  0  0  0  0
    4.6388    0.1425   -2.1992 C   0  0  0  0  0  0  0  0  0  0  0  0
    5.9338   -0.3261   -1.6477 C   0  0  0  0  0  0  0  0  0  0  0  0
    6.9329    0.2904   -0.9235 C   0  0  0  0  0  0  0  0  0  0  0  0
    7.9166   -0.6971   -0.6798 C   0  0  0  0  0  0  0  0  0  0  0  0
    7.4520   -1.8531   -1.2618 C   0  0  0  0  0  0  0  0  0  0  0  0
    6.2463   -1.6399   -1.8494 O   0  0  0  0  0  0  0  0  0  0  0  0
    1.9424    1.2867    1.6964 C   0  0  0  0  0  0  0  0  0  0  0  0
    0.7665    2.1569    1.2293 C   0  0  0  0  0  0  0  0  0  0  0  0
   -3.6072    1.3559    0.5209 C   0  0  0  0  0  0  0  0  0  0  0  0
   -4.7784    1.0483   -0.1757 C   0  0  0  0  0  0  0  0  0  0  0  0
   -5.2231   -0.2841   -0.1590 C   0  0  0  0  0  0  0  0  0  0  0  0
   -8.0825   -0.8950   -1.8634 H   0  0  0  0  0  0  0  0  0  0  0  0
   -7.7666    0.5964   -0.9288 H   0  0  0  0  0  0  0  0  0  0  0  0
   -6.8139    0.2396   -2.4128 H   0  0  0  0  0  0  0  0  0  0  0  0
   -7.1448   -2.8575   -0.8169 H   0  0  0  0  0  0  0  0  0  0  0  0
   -5.0086   -3.4745    0.7340 H   0  0  0  0  0  0  0  0  0  0  0  0
   -2.8205   -1.7368    1.7732 H   0  0  0  0  0  0  0  0  0  0  0  0
    0.2455    0.8053   -1.1409 H   0  0  0  0  0  0  0  0  0  0  0  0
   -0.8288   -0.3916   -0.4434 H   0  0  0  0  0  0  0  0  0  0  0  0
    0.9903   -1.1660    1.1175 H   0  0  0  0  0  0  0  0  0  0  0  0
    1.5246   -1.2215   -0.5565 H   0  0  0  0  0  0  0  0  0  0  0  0
    3.5743   -1.0911   -0.9141 H   0  0  0  0  0  0  0  0  0  0  0  0
    4.6721    1.2110   -2.4354 H   0  0  0  0  0  0  0  0  0  0  0  0
    4.3932   -0.4056   -3.1144 H   0  0  0  0  0  0  0  0  0  0  0  0
    6.9358    1.3241   -0.6043 H   0  0  0  0  0  0  0  0  0  0  0  0
    8.8456   -0.5831   -0.1394 H   0  0  0  0  0  0  0  0  0  0  0  0
    7.8385   -2.8597   -1.3398 H   0  0  0  0  0  0  0  0  0  0  0  0
    2.7920    1.9193    1.9745 H   0  0  0  0  0  0  0  0  0  0  0  0
    1.6699    0.6990    2.5798 H   0  0  0  0  0  0  0  0  0  0  0  0
    1.0639    2.7700    0.3694 H   0  0  0  0  0  0  0  0  0  0  0  0
    0.4697    2.8564    2.0169 H   0  0  0  0  0  0  0  0  0  0  0  0
   -3.2413    2.3812    0.5280 H   0  0  0  0  0  0  0  0  0  0  0  0
   -5.3230    1.8226   -0.7070 H   0  0  0  0  0  0  0  0  0  0  0  0
  1  2  1  0
  2  3  1  0
  3  4  2  0
  4  5  1  0
  5  6  2  0
  6  7  1  0
  7  8  1  0
  8  9  2  0
  8 10  2  0
  8 11  1  0
 11 12  1  0
 12 13  1  0
 13 14  1  0
 14 15  1  0
 15 16  2  0
 15 17  1  0
 17 18  1  0
 18 19  1  0
 19 20  2  0
 20 21  1  0
 21 22  2  0
 22 23  1  0
 14 24  1  0
 24 25  1  0
  7 26  2  0
 26 27  1  0
 27 28  2  0
 28  2  1  0
 28  5  1  0
 25 11  1  0
 23 19  1  0
  1 29  1  0
  1 30  1  0
  1 31  1  0
  3 32  1  0
  4 33  1  0
  6 34  1  0
 12 35  1  0
 12 36  1  0
 13 37  1  0
 13 38  1  0
 17 39  1  0
 18 40  1  0
 18 41  1  0
 20 42  1  0
 21 43  1  0
 22 44  1  0
 24 45  1  0
 24 46  1  0
 25 47  1  0
 25 48  1  0
 26 49  1  0
 27 50  1  0
M  END
$$$$
