
     RDKit          3D

 49 51  0  0  0  0  0  0  0  0999 V2000
    2.7157    1.3036   -1.7583 O   0  0  0  0  0  0  0  0  0  0  0  0
    2.3634    1.2763   -0.5851 C   0  0  0  0  0  0  0  0  0  0  0  0
    0.9213    1.3800   -0.1451 C   0  0  0  0  0  0  0  0  0  0  0  0
   -0.0156    1.4730   -1.3433 C   0  0  0  0  0  0  0  0  0  0  0  0
   -1.4231    1.5886   -0.9007 C   0  0  0  0  0  0  0  0  0  0  0  0
   -2.1843    0.7084   -0.2896 N   0  0  0  0  0  0  0  0  0  0  0  0
   -3.3750    1.3843   -0.1787 C   0  0  0  0  0  0  0  0  0  0  0  0
   -4.5565    0.8038    0.4776 C   0  0  0  0  0  0  0  0  0  0  0  0
   -5.6285    0.0242   -0.7118 S   0  0  0  0  0  6  0  0  0  0  0  0
   -4.9714   -1.1373   -1.2825 O   0  0  0  0  0  0  0  0  0  0  0  0
   -6.2377    1.0296   -1.5626 O   0  0  0  0  0  0  0  0  0  0  0  0
   -6.9383   -0.6061    0.3292 C   0  0  0  0  0  0  0  0  0  0  0  0
   -8.0568    0.1946    0.5893 C   0  0  0  0  0  0  0  0  0  0  0  0
   -9.0805   -0.3047    1.3950 C   0  0  0  0  0  0  0  0  0  0  0  0
   -8.9803   -1.5914    1.9179 C   0  0  0  0  0  0  0  0  0  0  0  0
   -9.9651   -2.0658    2.6913 F   0  0  0  0  0  0  0  0  0  0  0  0
   -7.8766   -2.3954    1.6466 C   0  0  0  0  0  0  0  0  0  0  0  0
   -6.8472   -1.9057    0.8421 C   0  0  0  0  0  0  0  0  0  0  0  0
   -3.3400    2.6518   -0.6119 N   0  0  0  0  0  0  0  0  0  0  0  0
   -2.0463    2.7829   -1.1193 O   0  0  0  0  0  0  0  0  0  0  0  0
    3.2415    1.1553    0.4701 N   0  0  0  0  0  0  0  0  0  0  0  0
    4.6704    1.0080    0.2576 C   0  0  0  0  0  0  0  0  0  0  0  0
    5.0528   -0.4240   -0.1241 C   0  0  0  0  0  0  0  0  0  0  0  0
    6.5429   -0.5750   -0.2974 C   0  0  0  0  0  0  0  0  0  0  0  0
    7.1463   -0.2566   -1.5218 C   0  0  0  0  0  0  0  0  0  0  0  0
    8.5275   -0.3757   -1.6812 C   0  0  0  0  0  0  0  0  0  0  0  0
    9.3176   -0.8102   -0.6185 C   0  0  0  0  0  0  0  0  0  0  0  0
    8.7277   -1.1251    0.6046 C   0  0  0  0  0  0  0  0  0  0  0  0
    7.3463   -1.0066    0.7664 C   0  0  0  0  0  0  0  0  0  0  0  0
    0.6788    0.4987    0.4619 H   0  0  0  0  0  0  0  0  0  0  0  0
    0.8170    2.2679    0.4908 H   0  0  0  0  0  0  0  0  0  0  0  0
    0.0872    0.5813   -1.9734 H   0  0  0  0  0  0  0  0  0  0  0  0
    0.2532    2.3325   -1.9696 H   0  0  0  0  0  0  0  0  0  0  0  0
   -5.1367    1.5730    0.9973 H   0  0  0  0  0  0  0  0  0  0  0  0
   -4.2548    0.0401    1.2018 H   0  0  0  0  0  0  0  0  0  0  0  0
   -8.1448    1.1930    0.1645 H   0  0  0  0  0  0  0  0  0  0  0  0
   -9.9599    0.2948    1.6112 H   0  0  0  0  0  0  0  0  0  0  0  0
   -7.8320   -3.4006    2.0560 H   0  0  0  0  0  0  0  0  0  0  0  0
   -5.9940   -2.5416    0.6142 H   0  0  0  0  0  0  0  0  0  0  0  0
    2.8808    1.0449    1.4092 H   0  0  0  0  0  0  0  0  0  0  0  0
    5.1636    1.3064    1.1897 H   0  0  0  0  0  0  0  0  0  0  0  0
    4.9808    1.7117   -0.5240 H   0  0  0  0  0  0  0  0  0  0  0  0
    4.5465   -0.7252   -1.0502 H   0  0  0  0  0  0  0  0  0  0  0  0
    4.6966   -1.1235    0.6435 H   0  0  0  0  0  0  0  0  0  0  0  0
    6.5412    0.0860   -2.3596 H   0  0  0  0  0  0  0  0  0  0  0  0
    8.9863   -0.1292   -2.6354 H   0  0  0  0  0  0  0  0  0  0  0  0
   10.3930   -0.9035   -0.7441 H   0  0  0  0  0  0  0  0  0  0  0  0
    9.3445   -1.4639    1.4329 H   0  0  0  0  0  0  0  0  0  0  0  0
    6.9024   -1.2558    1.7274 H   0  0  0  0  0  0  0  0  0  0  0  0
  1  2  2  0
  2  3  1  0
  3  4  1  0
  4  5  1  0
  5  6  2  0
  6  7  1  0
  7  8  1  0
  8  9  1  0
  9 10  2  0
  9 11  2  0
  9 12  1  0
 12 13  2  0
 13 14  1  0
 14 15  2  0
 15 16  1  0
 15 17  1  0
 17 18  2  0
  7 19  2  0
 19 20  1  0
  2 21  1  0
 21 22  1  0
 22 23  1  0
 23 24  1  0
 24 25  2  0
 25 26  1  0
 26 27  2  0
 27 28  1  0
 28 29  2  0
 20  5  1  0
 29 24  1  0
 18 12  1  0
  3 30  1  0
  3 31  1  0
  4 32  1  0
  4 33  1  0
  8 34  1  0
  8 35  1  0
 13 36  1  0
 14 37  1  0
 17 38  1  0
 18 39  1  0
 21 40  1  0
 22 41  1  0
 22 42  1  0
 23 43  1  0
 23 44  1  0
 25 45  1  0
 26 46  1  0
 27 47  1  0
 28 48  1  0
 29 49  1  0
M  END
$$$$
