
     RDKit          3D

 46 49  0  0  0  0  0  0  0  0999 V2000
    8.4464    1.0794    0.7790 C   0  0  0  0  0  0  0  0  0  0  0  0
    7.2329    0.3454    0.3664 C   0  0  0  0  0  0  0  0  0  0  0  0
    7.2789   -0.9476   -0.0655 N   0  0  0  0  0  0  0  0  0  0  0  0
    6.0242   -1.2348   -0.3315 C   0  0  0  0  0  0  0  0  0  0  0  0
    5.4872   -2.4009   -0.7983 N   0  0  0  0  0  0  0  0  0  0  0  0
    4.1996   -2.4003   -0.9733 C   0  0  0  0  0  0  0  0  0  0  0  0
    3.2775   -1.2621   -0.7202 C   0  0  0  0  0  0  0  0  0  0  0  0
    1.8146   -1.3435   -0.9568 C   0  0  0  0  0  0  0  0  0  0  0  0
    1.3137   -2.3839   -1.3752 O   0  0  0  0  0  0  0  0  0  0  0  0
    1.0924   -0.1813   -0.6880 N   0  0  0  0  0  0  0  0  0  0  0  0
   -0.3597   -0.2304   -0.8438 C   0  0  0  0  0  0  0  0  0  0  0  0
   -1.0492   -0.7221    0.4348 C   0  0  0  0  0  0  0  0  0  0  0  0
   -0.5512   -0.6295    1.5541 O   0  0  0  0  0  0  0  0  0  0  0  0
   -2.3192   -1.2212    0.2230 N   0  0  0  0  0  0  0  0  0  0  0  0
   -3.1755   -1.6220    1.3252 C   0  0  0  0  0  0  0  0  0  0  0  0
   -3.8593   -0.4349    2.0132 C   0  0  0  0  0  0  0  0  0  0  0  0
   -4.7594    0.3406    1.0779 C   0  0  0  0  0  0  0  0  0  0  0  0
   -6.0186   -0.1620    0.7184 C   0  0  0  0  0  0  0  0  0  0  0  0
   -6.8372    0.5433   -0.1667 C   0  0  0  0  0  0  0  0  0  0  0  0
   -6.3940    1.7521   -0.6929 C   0  0  0  0  0  0  0  0  0  0  0  0
   -7.1587    2.4721   -1.5619 O   0  0  0  0  0  0  0  0  0  0  0  0
   -5.1505    2.2662   -0.3472 C   0  0  0  0  0  0  0  0  0  0  0  0
   -4.3334    1.5627    0.5381 C   0  0  0  0  0  0  0  0  0  0  0  0
    1.6899    0.9640   -0.1899 C   0  0  0  0  0  0  0  0  0  0  0  0
    3.0103    1.0208    0.0213 C   0  0  0  0  0  0  0  0  0  0  0  0
    3.8443   -0.1317   -0.2592 C   0  0  0  0  0  0  0  0  0  0  0  0
    5.2297   -0.1100   -0.0598 N   0  0  0  0  0  0  0  0  0  0  0  0
    6.0193    0.9028    0.3857 N   0  0  0  0  0  0  0  0  0  0  0  0
    9.3224    0.4234    0.7688 H   0  0  0  0  0  0  0  0  0  0  0  0
    8.6385    1.9146    0.0985 H   0  0  0  0  0  0  0  0  0  0  0  0
    8.3316    1.4759    1.7926 H   0  0  0  0  0  0  0  0  0  0  0  0
    3.7240   -3.3230   -1.3472 H   0  0  0  0  0  0  0  0  0  0  0  0
   -0.6156   -0.9011   -1.6719 H   0  0  0  0  0  0  0  0  0  0  0  0
   -0.7416    0.7681   -1.0858 H   0  0  0  0  0  0  0  0  0  0  0  0
   -2.7511   -1.1122   -0.6867 H   0  0  0  0  0  0  0  0  0  0  0  0
   -2.5693   -2.1668    2.0575 H   0  0  0  0  0  0  0  0  0  0  0  0
   -3.9154   -2.3186    0.9164 H   0  0  0  0  0  0  0  0  0  0  0  0
   -3.1063    0.2378    2.4426 H   0  0  0  0  0  0  0  0  0  0  0  0
   -4.4575   -0.7980    2.8582 H   0  0  0  0  0  0  0  0  0  0  0  0
   -6.3705   -1.1062    1.1286 H   0  0  0  0  0  0  0  0  0  0  0  0
   -7.8083    0.1367   -0.4306 H   0  0  0  0  0  0  0  0  0  0  0  0
   -8.0092    2.0174   -1.6771 H   0  0  0  0  0  0  0  0  0  0  0  0
   -4.8211    3.2147   -0.7616 H   0  0  0  0  0  0  0  0  0  0  0  0
   -3.3636    1.9754    0.8072 H   0  0  0  0  0  0  0  0  0  0  0  0
    1.0459    1.8101    0.0354 H   0  0  0  0  0  0  0  0  0  0  0  0
    3.4724    1.9203    0.4210 H   0  0  0  0  0  0  0  0  0  0  0  0
  1  2  1  0
  2  3  1  0
  3  4  2  0
  4  5  1  0
  5  6  2  0
  6  7  1  0
  7  8  1  0
  8  9  2  0
  8 10  1  0
 10 11  1  0
 11 12  1  0
 12 13  2  0
 12 14  1  0
 14 15  1  0
 15 16  1  0
 16 17  1  0
 17 18  2  0
 18 19  1  0
 19 20  2  0
 20 21  1  0
 20 22  1  0
 22 23  2  0
 10 24  1  0
 24 25  2  0
 25 26  1  0
 26 27  1  0
 27 28  1  0
 28  2  2  0
 27  4  1  0
 26  7  2  0
 23 17  1  0
  1 29  1  0
  1 30  1  0
  1 31  1  0
  6 32  1  0
 11 33  1  0
 11 34  1  0
 14 35  1  0
 15 36  1  0
 15 37  1  0
 16 38  1  0
 16 39  1  0
 18 40  1  0
 19 41  1  0
 21 42  1  0
 22 43  1  0
 23 44  1  0
 24 45  1  0
 25 46  1  0
M  END
$$$$
