
     RDKit          3D

 56 59  0  0  0  0  0  0  0  0999 V2000
   -8.6170   -0.2448    0.2819 C   0  0  0  0  0  0  0  0  0  0  0  0
   -7.4763    0.5708    0.0578 O   0  0  0  0  0  0  0  0  0  0  0  0
   -6.3603   -0.0280   -0.4728 C   0  0  0  0  0  0  0  0  0  0  0  0
   -6.2600   -1.3914   -0.7688 C   0  0  0  0  0  0  0  0  0  0  0  0
   -5.0813   -1.9153   -1.3057 C   0  0  0  0  0  0  0  0  0  0  0  0
   -3.9887   -1.0825   -1.5676 C   0  0  0  0  0  0  0  0  0  0  0  0
   -2.7058   -1.6520   -2.1271 C   0  0  0  0  0  0  0  0  0  0  0  0
   -1.7874   -2.0194   -1.0762 N   0  0  0  0  0  0  0  0  0  0  0  0
   -1.7491   -3.2388   -0.4791 C   0  0  0  0  0  0  0  0  0  0  0  0
   -2.4597   -4.2038   -0.7035 O   0  0  0  0  0  0  0  0  0  0  0  0
   -0.7465   -3.2307    0.4656 N   0  0  0  0  0  0  0  0  0  0  0  0
   -0.1933   -1.9063    0.6532 C   0  0  1  0  0  0  0  0  0  0  0  0
    1.3164   -1.8806    0.4866 C   0  0  0  0  0  0  0  0  0  0  0  0
    1.9193   -0.6615    1.1599 C   0  0  0  0  0  0  0  0  0  0  0  0
    1.3098   -0.0401    2.0222 O   0  0  0  0  0  0  0  0  0  0  0  0
    3.2099   -0.4210    0.7233 N   0  0  0  0  0  0  0  0  0  0  0  0
    4.0884    0.6070    1.1357 C   0  0  0  0  0  0  0  0  0  0  0  0
    3.7512    1.5800    2.0871 C   0  0  0  0  0  0  0  0  0  0  0  0
    4.6568    2.5734    2.4589 C   0  0  0  0  0  0  0  0  0  0  0  0
    5.9311    2.6352    1.8964 C   0  0  0  0  0  0  0  0  0  0  0  0
    6.2736    1.6663    0.9429 C   0  0  0  0  0  0  0  0  0  0  0  0
    5.3837    0.6581    0.5520 C   0  0  0  0  0  0  0  0  0  0  0  0
    6.0697   -0.1323   -0.4215 C   0  0  0  0  0  0  0  0  0  0  0  0
    7.3267    0.3980   -0.5972 C   0  0  0  0  0  0  0  0  0  0  0  0
    7.4403    1.4825    0.2288 N   0  0  0  0  0  0  0  0  0  0  0  0
    8.6168    2.3170    0.3349 C   0  0  0  0  0  0  0  0  0  0  0  0
   -0.8842   -1.1723   -0.4993 C   0  0  0  0  0  0  0  0  0  0  0  0
   -0.6558   -0.0196   -0.8400 O   0  0  0  0  0  0  0  0  0  0  0  0
   -4.0839    0.2836   -1.2585 C   0  0  0  0  0  0  0  0  0  0  0  0
   -5.2574    0.8162   -0.7105 C   0  0  0  0  0  0  0  0  0  0  0  0
   -5.4262    2.1399   -0.3846 O   0  0  0  0  0  0  0  0  0  0  0  0
   -4.2787    2.9769   -0.4321 C   0  0  0  0  0  0  0  0  0  0  0  0
   -8.9827   -0.6800   -0.6541 H   0  0  0  0  0  0  0  0  0  0  0  0
   -8.4076   -1.0210    1.0253 H   0  0  0  0  0  0  0  0  0  0  0  0
   -9.4106    0.3930    0.6831 H   0  0  0  0  0  0  0  0  0  0  0  0
   -7.0799   -2.0781   -0.5866 H   0  0  0  0  0  0  0  0  0  0  0  0
   -5.0205   -2.9833   -1.5115 H   0  0  0  0  0  0  0  0  0  0  0  0
   -2.2291   -0.9129   -2.7820 H   0  0  0  0  0  0  0  0  0  0  0  0
   -2.9261   -2.5347   -2.7394 H   0  0  0  0  0  0  0  0  0  0  0  0
   -0.7084   -3.9796    1.1461 H   0  0  0  0  0  0  0  0  0  0  0  0
   -0.5651   -1.5247    1.6085 H   0  0  0  0  0  0  0  0  0  0  0  0
    1.5966   -1.8949   -0.5738 H   0  0  0  0  0  0  0  0  0  0  0  0
    1.7662   -2.7605    0.9635 H   0  0  0  0  0  0  0  0  0  0  0  0
    3.5847   -1.0398    0.0166 H   0  0  0  0  0  0  0  0  0  0  0  0
    2.7745    1.5923    2.5608 H   0  0  0  0  0  0  0  0  0  0  0  0
    4.3606    3.3129    3.1998 H   0  0  0  0  0  0  0  0  0  0  0  0
    6.6260    3.4138    2.1937 H   0  0  0  0  0  0  0  0  0  0  0  0
    5.6887   -0.9990   -0.9432 H   0  0  0  0  0  0  0  0  0  0  0  0
    8.1400    0.0899   -1.2414 H   0  0  0  0  0  0  0  0  0  0  0  0
    8.3420    3.3386    0.0601 H   0  0  0  0  0  0  0  0  0  0  0  0
    9.3907    1.9477   -0.3430 H   0  0  0  0  0  0  0  0  0  0  0  0
    8.9782    2.2760    1.3657 H   0  0  0  0  0  0  0  0  0  0  0  0
   -3.2214    0.9153   -1.4528 H   0  0  0  0  0  0  0  0  0  0  0  0
   -4.5689    3.9629   -0.0563 H   0  0  0  0  0  0  0  0  0  0  0  0
   -3.9290    3.1047   -1.4617 H   0  0  0  0  0  0  0  0  0  0  0  0
   -3.4806    2.5969    0.2146 H   0  0  0  0  0  0  0  0  0  0  0  0
  1  2  1  0
  2  3  1  0
  3  4  2  0
  4  5  1  0
  5  6  2  0
  6  7  1  0
  7  8  1  0
  8  9  1  0
  9 10  2  0
  9 11  1  0
 11 12  1  0
 12 13  1  0
 13 14  1  0
 14 15  2  0
 14 16  1  0
 16 17  1  0
 17 18  2  0
 18 19  1  0
 19 20  2  0
 20 21  1  0
 21 22  2  0
 22 23  1  0
 23 24  2  0
 24 25  1  0
 25 26  1  0
 12 27  1  0
 27 28  2  0
  6 29  1  0
 29 30  2  0
 30 31  1  0
 31 32  1  0
 30  3  1  0
 27  8  1  0
 22 17  1  0
 25 21  1  0
  1 33  1  0
  1 34  1  0
  1 35  1  0
  4 36  1  0
  5 37  1  0
  7 38  1  0
  7 39  1  0
 11 40  1  0
 12 41  1  1
 13 42  1  0
 13 43  1  0
 16 44  1  0
 18 45  1  0
 19 46  1  0
 20 47  1  0
 23 48  1  0
 24 49  1  0
 26 50  1  0
 26 51  1  0
 26 52  1  0
 29 53  1  0
 32 54  1  0
 32 55  1  0
 32 56  1  0
M  END
$$$$
