
     RDKit          3D

 56 58  0  0  0  0  0  0  0  0999 V2000
    9.9775   -1.1043    0.9957 C   0  0  0  0  0  0  0  0  0  0  0  0
    9.6284   -0.2122   -0.1828 C   0  0  0  0  0  0  0  0  0  0  0  0
    8.6045    0.7161    0.1730 O   0  0  0  0  0  0  0  0  0  0  0  0
    7.3014    0.3666   -0.0333 C   0  0  0  0  0  0  0  0  0  0  0  0
    6.8262   -0.8871   -0.3994 C   0  0  0  0  0  0  0  0  0  0  0  0
    5.4494   -1.1033   -0.5719 C   0  0  0  0  0  0  0  0  0  0  0  0
    4.5126   -0.0769   -0.3828 C   0  0  0  0  0  0  0  0  0  0  0  0
    3.0890   -0.2968   -0.5408 N   0  0  0  0  0  0  0  0  0  0  0  0
    2.1677    0.4589    0.2074 C   0  0  0  0  0  0  0  0  0  0  0  0
    0.8411    0.2921    0.1043 C   0  0  0  0  0  0  0  0  0  0  0  0
    0.3443   -0.6569   -0.7643 N   0  0  0  0  0  0  0  0  0  0  0  0
   -0.9323   -1.0620   -1.0807 C   0  0  0  0  0  0  0  0  0  0  0  0
   -2.1787   -0.4957   -0.4900 C   0  0  0  0  0  0  0  0  0  0  0  0
   -2.6851    0.6986   -1.3054 C   0  0  0  0  0  0  0  0  0  0  0  0
   -3.8285    1.4489   -0.6215 C   0  0  0  0  0  0  0  0  0  0  0  0
   -5.1389    0.6850   -0.5925 C   0  0  0  0  0  0  0  0  0  0  0  0
   -5.2780   -0.4442   -1.0441 O   0  0  0  0  0  0  0  0  0  0  0  0
   -6.1570    1.3963    0.0060 N   0  0  0  0  0  0  0  0  0  0  0  0
   -7.4822    0.8341    0.1802 C   0  0  0  0  0  0  0  0  0  0  0  0
   -7.5806   -0.0712    1.4177 C   0  0  0  0  0  0  0  0  0  0  0  0
   -7.3646    0.7185    2.7105 C   0  0  0  0  0  0  0  0  0  0  0  0
   -8.9425   -0.7655    1.4512 C   0  0  0  0  0  0  0  0  0  0  0  0
   -0.8621   -2.0203   -1.9849 N   0  0  0  0  0  0  0  0  0  0  0  0
    0.4659   -2.2514   -2.2692 N   0  0  0  0  0  0  0  0  0  0  0  0
    1.1749   -1.4281   -1.5287 C   0  0  0  0  0  0  0  0  0  0  0  0
    2.6170   -1.2876   -1.4822 C   0  0  0  0  0  0  0  0  0  0  0  0
    3.3529   -1.9423   -2.2191 O   0  0  0  0  0  0  0  0  0  0  0  0
    5.0107    1.1801   -0.0032 C   0  0  0  0  0  0  0  0  0  0  0  0
    6.3842    1.3957    0.1688 C   0  0  0  0  0  0  0  0  0  0  0  0
   10.2591   -0.4991    1.8638 H   0  0  0  0  0  0  0  0  0  0  0  0
   10.8102   -1.7678    0.7450 H   0  0  0  0  0  0  0  0  0  0  0  0
    9.1240   -1.7169    1.3009 H   0  0  0  0  0  0  0  0  0  0  0  0
    9.3845   -0.7855   -1.0840 H   0  0  0  0  0  0  0  0  0  0  0  0
   10.5117    0.3847   -0.4374 H   0  0  0  0  0  0  0  0  0  0  0  0
    7.4889   -1.7327   -0.5501 H   0  0  0  0  0  0  0  0  0  0  0  0
    5.1391   -2.1144   -0.8251 H   0  0  0  0  0  0  0  0  0  0  0  0
    2.5609    1.1738    0.9231 H   0  0  0  0  0  0  0  0  0  0  0  0
    0.1357    0.8658    0.6917 H   0  0  0  0  0  0  0  0  0  0  0  0
   -2.0015   -0.1989    0.5501 H   0  0  0  0  0  0  0  0  0  0  0  0
   -2.9375   -1.2853   -0.4593 H   0  0  0  0  0  0  0  0  0  0  0  0
   -1.8619    1.4083   -1.4605 H   0  0  0  0  0  0  0  0  0  0  0  0
   -2.9960    0.3612   -2.3024 H   0  0  0  0  0  0  0  0  0  0  0  0
   -4.0069    2.3842   -1.1661 H   0  0  0  0  0  0  0  0  0  0  0  0
   -3.5491    1.7076    0.4064 H   0  0  0  0  0  0  0  0  0  0  0  0
   -5.9611    2.3009    0.4138 H   0  0  0  0  0  0  0  0  0  0  0  0
   -8.1822    1.6738    0.2535 H   0  0  0  0  0  0  0  0  0  0  0  0
   -7.7344    0.2664   -0.7232 H   0  0  0  0  0  0  0  0  0  0  0  0
   -6.8057   -0.8461    1.3609 H   0  0  0  0  0  0  0  0  0  0  0  0
   -8.1029    1.5210    2.8141 H   0  0  0  0  0  0  0  0  0  0  0  0
   -6.3672    1.1692    2.7373 H   0  0  0  0  0  0  0  0  0  0  0  0
   -7.4532    0.0634    3.5839 H   0  0  0  0  0  0  0  0  0  0  0  0
   -9.0177   -1.4337    2.3157 H   0  0  0  0  0  0  0  0  0  0  0  0
   -9.0936   -1.3688    0.5498 H   0  0  0  0  0  0  0  0  0  0  0  0
   -9.7588   -0.0377    1.5131 H   0  0  0  0  0  0  0  0  0  0  0  0
    4.3570    2.0378    0.1235 H   0  0  0  0  0  0  0  0  0  0  0  0
    6.7418    2.3836    0.4506 H   0  0  0  0  0  0  0  0  0  0  0  0
  1  2  1  0
  2  3  1  0
  3  4  1  0
  4  5  2  0
  5  6  1  0
  6  7  2  0
  7  8  1  0
  8  9  1  0
  9 10  2  0
 10 11  1  0
 11 12  1  0
 12 13  1  0
 13 14  1  0
 14 15  1  0
 15 16  1  0
 16 17  2  0
 16 18  1  0
 18 19  1  0
 19 20  1  0
 20 21  1  0
 20 22  1  0
 12 23  2  0
 23 24  1  0
 24 25  2  0
 25 26  1  0
 26 27  2  0
  7 28  1  0
 28 29  2  0
 29  4  1  0
 26  8  1  0
 25 11  1  0
  1 30  1  0
  1 31  1  0
  1 32  1  0
  2 33  1  0
  2 34  1  0
  5 35  1  0
  6 36  1  0
  9 37  1  0
 10 38  1  0
 13 39  1  0
 13 40  1  0
 14 41  1  0
 14 42  1  0
 15 43  1  0
 15 44  1  0
 18 45  1  0
 19 46  1  0
 19 47  1  0
 20 48  1  0
 21 49  1  0
 21 50  1  0
 21 51  1  0
 22 52  1  0
 22 53  1  0
 22 54  1  0
 28 55  1  0
 29 56  1  0
M  END
$$$$
