
     RDKit          3D

 44 46  0  0  0  0  0  0  0  0999 V2000
   -4.5779    2.4333    0.1845 C   0  0  0  0  0  0  0  0  0  0  0  0
   -5.2159    1.0464    0.2466 C   0  0  0  0  0  0  0  0  0  0  0  0
   -6.5818    1.0634   -0.4378 C   0  0  0  0  0  0  0  0  0  0  0  0
   -4.2922    0.0005   -0.3876 C   0  0  0  0  0  0  0  0  0  0  0  0
   -4.5769   -0.5570   -1.4421 O   0  0  0  0  0  0  0  0  0  0  0  0
   -3.1473   -0.2114    0.3647 N   0  0  0  0  0  0  0  0  0  0  0  0
   -2.0749   -1.0817    0.0778 C   0  0  0  0  0  0  0  0  0  0  0  0
   -1.9945   -1.8752   -1.0648 C   0  0  0  0  0  0  0  0  0  0  0  0
   -0.8937   -2.7127   -1.2650 C   0  0  0  0  0  0  0  0  0  0  0  0
    0.1412   -2.7615   -0.3289 C   0  0  0  0  0  0  0  0  0  0  0  0
    0.0824   -1.9629    0.8092 C   0  0  0  0  0  0  0  0  0  0  0  0
    1.0127   -1.9096    1.8090 O   0  0  0  0  0  0  0  0  0  0  0  0
    2.3382   -2.3793    1.5424 C   0  0  0  0  0  0  0  0  0  0  0  0
    3.1369   -1.3803    0.7244 C   0  0  0  0  0  0  0  0  0  0  0  0
    3.6261   -1.7140   -0.4757 C   0  0  0  0  0  0  0  0  0  0  0  0
    4.3892   -0.7170   -1.2433 C   0  0  0  0  0  0  0  0  0  0  0  0
    4.8402   -1.0385   -2.3414 O   0  0  0  0  0  0  0  0  0  0  0  0
    4.5377    0.5203   -0.6400 N   0  0  0  0  0  0  0  0  0  0  0  0
    5.2377    1.5236   -1.3050 C   0  0  0  0  0  0  0  0  0  0  0  0
    5.4195    2.7336   -0.7613 C   0  0  0  0  0  0  0  0  0  0  0  0
    6.2855    3.9668   -1.5895 Cl  0  0  0  0  0  0  0  0  0  0  0  0
    4.8865    3.0217    0.5446 C   0  0  0  0  0  0  0  0  0  0  0  0
    4.2074    2.0865    1.2209 C   0  0  0  0  0  0  0  0  0  0  0  0
    3.9977    0.7378    0.6217 C   0  0  0  0  0  0  0  0  0  0  0  0
    3.3367   -0.1483    1.2995 N   0  0  0  0  0  0  0  0  0  0  0  0
   -1.0303   -1.1373    1.0099 C   0  0  0  0  0  0  0  0  0  0  0  0
   -5.2432    3.1888    0.6156 H   0  0  0  0  0  0  0  0  0  0  0  0
   -3.6349    2.4672    0.7397 H   0  0  0  0  0  0  0  0  0  0  0  0
   -4.3590    2.7202   -0.8501 H   0  0  0  0  0  0  0  0  0  0  0  0
   -5.3677    0.7658    1.2967 H   0  0  0  0  0  0  0  0  0  0  0  0
   -7.0474    0.0724   -0.4019 H   0  0  0  0  0  0  0  0  0  0  0  0
   -6.4990    1.3532   -1.4912 H   0  0  0  0  0  0  0  0  0  0  0  0
   -7.2565    1.7702    0.0567 H   0  0  0  0  0  0  0  0  0  0  0  0
   -3.0720    0.3025    1.2333 H   0  0  0  0  0  0  0  0  0  0  0  0
   -2.7730   -1.8711   -1.8211 H   0  0  0  0  0  0  0  0  0  0  0  0
   -0.8499   -3.3337   -2.1569 H   0  0  0  0  0  0  0  0  0  0  0  0
    0.9615   -3.4429   -0.5187 H   0  0  0  0  0  0  0  0  0  0  0  0
    2.8299   -2.4853    2.5176 H   0  0  0  0  0  0  0  0  0  0  0  0
    2.3316   -3.3881    1.1147 H   0  0  0  0  0  0  0  0  0  0  0  0
    3.4867   -2.6826   -0.9356 H   0  0  0  0  0  0  0  0  0  0  0  0
    5.6297    1.2759   -2.2883 H   0  0  0  0  0  0  0  0  0  0  0  0
    5.0434    4.0070    0.9714 H   0  0  0  0  0  0  0  0  0  0  0  0
    3.7895    2.2622    2.2045 H   0  0  0  0  0  0  0  0  0  0  0  0
   -1.0599   -0.5289    1.9104 H   0  0  0  0  0  0  0  0  0  0  0  0
  1  2  1  0
  2  3  1  0
  2  4  1  0
  4  5  2  0
  4  6  1  0
  6  7  1  0
  7  8  2  0
  8  9  1  0
  9 10  2  0
 10 11  1  0
 11 12  1  0
 12 13  1  0
 13 14  1  0
 14 15  2  0
 15 16  1  0
 16 17  2  0
 16 18  1  0
 18 19  1  0
 19 20  2  0
 20 21  1  0
 20 22  1  0
 22 23  2  0
 23 24  1  0
 24 25  2  0
 11 26  2  0
 26  7  1  0
 25 14  1  0
 24 18  1  0
  1 27  1  0
  1 28  1  0
  1 29  1  0
  2 30  1  0
  3 31  1  0
  3 32  1  0
  3 33  1  0
  6 34  1  0
  8 35  1  0
  9 36  1  0
 10 37  1  0
 13 38  1  0
 13 39  1  0
 15 40  1  0
 19 41  1  0
 22 42  1  0
 23 43  1  0
 26 44  1  0
M  END
$$$$
