
     RDKit          3D

 56 59  0  0  0  0  0  0  0  0999 V2000
    4.7400   -3.0068   -2.5163 C   0  0  0  0  0  0  0  0  0  0  0  0
    4.1662   -2.1917   -1.4639 N   0  0  0  0  0  0  0  0  0  0  0  0
    2.8695   -2.4486   -1.0872 C   0  0  0  0  0  0  0  0  0  0  0  0
    2.0998   -3.2276   -1.6328 O   0  0  0  0  0  0  0  0  0  0  0  0
    2.3776   -1.6402    0.0636 C   0  0  0  0  0  0  0  0  0  0  0  0
    1.1096   -2.0155    0.7874 C   0  0  0  0  0  0  0  0  0  0  0  0
    1.1929   -2.8793    1.6526 O   0  0  0  0  0  0  0  0  0  0  0  0
   -0.0526   -1.3484    0.4287 N   0  0  0  0  0  0  0  0  0  0  0  0
   -0.1250   -0.3159   -0.6081 C   0  0  0  0  0  0  0  0  0  0  0  0
   -1.4204    0.5109   -0.5152 C   0  0  0  0  0  0  0  0  0  0  0  0
   -2.6377   -0.3144   -0.6040 N   0  0  0  0  0  0  0  0  0  0  0  0
   -3.8633    0.4420   -0.2964 C   0  0  0  0  0  0  0  0  0  0  0  0
   -4.1303    0.7027    1.1958 C   0  0  0  0  0  0  0  0  0  0  0  0
   -5.3167    1.6529    1.3986 C   0  0  0  0  0  0  0  0  0  0  0  0
   -6.3558    1.5907    0.2783 C   0  0  0  0  0  0  0  0  0  0  0  0
   -6.4270    0.2072   -0.3506 C   0  0  0  0  0  0  0  0  0  0  0  0
   -5.0901   -0.2220   -0.9641 C   0  0  0  0  0  0  0  0  0  0  0  0
   -2.5018   -1.6215    0.0686 C   0  0  0  0  0  0  0  0  0  0  0  0
   -1.3182   -1.7355    1.0485 C   0  0  0  0  0  0  0  0  0  0  0  0
    3.0174   -0.5944    0.4893 N   0  0  0  0  0  0  0  0  0  0  0  0
    4.2016   -0.2286   -0.1213 N   0  0  0  0  0  0  0  0  0  0  0  0
    4.7299    1.0200    0.3860 C   0  0  0  0  0  0  0  0  0  0  0  0
    4.0731    1.6814    1.4490 C   0  0  0  0  0  0  0  0  0  0  0  0
    4.5432    2.8925    1.9703 C   0  0  0  0  0  0  0  0  0  0  0  0
    5.6819    3.4681    1.4342 C   0  0  0  0  0  0  0  0  0  0  0  0
    6.1364    4.6267    1.9274 F   0  0  0  0  0  0  0  0  0  0  0  0
    6.3539    2.8540    0.3898 C   0  0  0  0  0  0  0  0  0  0  0  0
    5.8804    1.6402   -0.1296 C   0  0  0  0  0  0  0  0  0  0  0  0
    4.8366   -1.0225   -1.1047 C   0  0  0  0  0  0  0  0  0  0  0  0
    5.8994   -0.7432   -1.6628 O   0  0  0  0  0  0  0  0  0  0  0  0
    4.2808   -3.9995   -2.5415 H   0  0  0  0  0  0  0  0  0  0  0  0
    4.5685   -2.5088   -3.4760 H   0  0  0  0  0  0  0  0  0  0  0  0
    5.8178   -3.1189   -2.3632 H   0  0  0  0  0  0  0  0  0  0  0  0
   -0.0624   -0.8231   -1.5784 H   0  0  0  0  0  0  0  0  0  0  0  0
    0.7400    0.3486   -0.5242 H   0  0  0  0  0  0  0  0  0  0  0  0
   -1.4242    1.2479   -1.3267 H   0  0  0  0  0  0  0  0  0  0  0  0
   -1.3981    1.0673    0.4297 H   0  0  0  0  0  0  0  0  0  0  0  0
   -3.7611    1.4246   -0.7806 H   0  0  0  0  0  0  0  0  0  0  0  0
   -3.2528    1.1282    1.6947 H   0  0  0  0  0  0  0  0  0  0  0  0
   -4.3507   -0.2400    1.7114 H   0  0  0  0  0  0  0  0  0  0  0  0
   -5.7922    1.4192    2.3590 H   0  0  0  0  0  0  0  0  0  0  0  0
   -4.9538    2.6847    1.4821 H   0  0  0  0  0  0  0  0  0  0  0  0
   -6.1019    2.3255   -0.4961 H   0  0  0  0  0  0  0  0  0  0  0  0
   -7.3368    1.8807    0.6712 H   0  0  0  0  0  0  0  0  0  0  0  0
   -7.2087    0.1788   -1.1182 H   0  0  0  0  0  0  0  0  0  0  0  0
   -6.7197   -0.5192    0.4183 H   0  0  0  0  0  0  0  0  0  0  0  0
   -5.0389   -1.3166   -0.9221 H   0  0  0  0  0  0  0  0  0  0  0  0
   -5.0830    0.0332   -2.0321 H   0  0  0  0  0  0  0  0  0  0  0  0
   -3.4188   -1.9286    0.5825 H   0  0  0  0  0  0  0  0  0  0  0  0
   -2.3493   -2.3632   -0.7263 H   0  0  0  0  0  0  0  0  0  0  0  0
   -1.2527   -2.7591    1.4327 H   0  0  0  0  0  0  0  0  0  0  0  0
   -1.4728   -1.0711    1.9070 H   0  0  0  0  0  0  0  0  0  0  0  0
    3.1802    1.2577    1.9038 H   0  0  0  0  0  0  0  0  0  0  0  0
    4.0261    3.3802    2.7902 H   0  0  0  0  0  0  0  0  0  0  0  0
    7.2451    3.3175   -0.0223 H   0  0  0  0  0  0  0  0  0  0  0  0
    6.4493    1.2209   -0.9519 H   0  0  0  0  0  0  0  0  0  0  0  0
  1  2  1  0
  2  3  1  0
  3  4  2  0
  3  5  1  0
  5  6  1  0
  6  7  2  0
  6  8  1  0
  8  9  1  0
  9 10  1  0
 10 11  1  0
 11 12  1  0
 12 13  1  0
 13 14  1  0
 14 15  1  0
 15 16  1  0
 16 17  1  0
 11 18  1  0
 18 19  1  0
  5 20  2  0
 20 21  1  0
 21 22  1  0
 22 23  2  0
 23 24  1  0
 24 25  2  0
 25 26  1  0
 25 27  1  0
 27 28  2  0
 21 29  1  0
 29 30  2  0
 29  2  1  0
 19  8  1  0
 28 22  1  0
 17 12  1  0
  1 31  1  0
  1 32  1  0
  1 33  1  0
  9 34  1  0
  9 35  1  0
 10 36  1  0
 10 37  1  0
 12 38  1  0
 13 39  1  0
 13 40  1  0
 14 41  1  0
 14 42  1  0
 15 43  1  0
 15 44  1  0
 16 45  1  0
 16 46  1  0
 17 47  1  0
 17 48  1  0
 18 49  1  0
 18 50  1  0
 19 51  1  0
 19 52  1  0
 23 53  1  0
 24 54  1  0
 27 55  1  0
 28 56  1  0
M  END
$$$$
