
     RDKit          3D

 46 49  0  0  0  0  0  0  0  0999 V2000
    3.0260   -1.7339    2.4435 O   0  0  0  0  0  0  0  0  0  0  0  0
    3.1408   -1.0224    1.4486 C   0  0  0  0  0  0  0  0  0  0  0  0
    4.4202   -0.3103    1.2650 C   0  0  0  0  0  0  0  0  0  0  0  0
    4.4518    1.0896    1.2612 C   0  0  0  0  0  0  0  0  0  0  0  0
    5.6711    1.7512    1.1165 C   0  0  0  0  0  0  0  0  0  0  0  0
    6.8514    1.0150    0.9906 C   0  0  0  0  0  0  0  0  0  0  0  0
    6.8099   -0.3808    1.0203 C   0  0  0  0  0  0  0  0  0  0  0  0
    8.4154   -1.3671    0.8650 Br  0  0  0  0  0  0  0  0  0  0  0  0
    5.5990   -1.0527    1.1652 C   0  0  0  0  0  0  0  0  0  0  0  0
    2.1355   -0.8502    0.5055 N   0  0  0  0  0  0  0  0  0  0  0  0
    2.3196   -0.3308   -0.8492 C   0  0  0  0  0  0  0  0  0  0  0  0
    1.1036    0.4849   -1.3426 C   0  0  0  0  0  0  0  0  0  0  0  0
   -0.2178   -0.0028   -0.9033 N   0  0  0  0  0  0  0  0  0  0  0  0
   -1.2416    0.1994   -1.9380 C   0  0  0  0  0  0  0  0  0  0  0  0
   -2.6737    0.0323   -1.4478 C   0  0  0  0  0  0  0  0  0  0  0  0
   -3.4533   -0.9376   -1.9403 C   0  0  0  0  0  0  0  0  0  0  0  0
   -4.8313   -1.0741   -1.4421 C   0  0  0  0  0  0  0  0  0  0  0  0
   -5.5351   -1.9725   -1.9023 O   0  0  0  0  0  0  0  0  0  0  0  0
   -5.2160   -0.1566   -0.4791 N   0  0  0  0  0  0  0  0  0  0  0  0
   -6.5007   -0.2198    0.0490 C   0  0  0  0  0  0  0  0  0  0  0  0
   -6.9248    0.6467    0.9771 C   0  0  0  0  0  0  0  0  0  0  0  0
   -6.0412    1.6778    1.4523 C   0  0  0  0  0  0  0  0  0  0  0  0
   -4.7960    1.7781    0.9722 C   0  0  0  0  0  0  0  0  0  0  0  0
   -4.3166    0.8165   -0.0606 C   0  0  0  0  0  0  0  0  0  0  0  0
   -3.1056    0.9377   -0.5094 N   0  0  0  0  0  0  0  0  0  0  0  0
   -0.1562   -1.3791   -0.3962 C   0  0  0  0  0  0  0  0  0  0  0  0
    0.8541   -1.5087    0.7616 C   0  0  0  0  0  0  0  0  0  0  0  0
    3.5323    1.6581    1.3806 H   0  0  0  0  0  0  0  0  0  0  0  0
    5.7044    2.8380    1.1119 H   0  0  0  0  0  0  0  0  0  0  0  0
    7.7989    1.5374    0.8824 H   0  0  0  0  0  0  0  0  0  0  0  0
    5.5608   -2.1380    1.2076 H   0  0  0  0  0  0  0  0  0  0  0  0
    3.2279    0.2674   -0.9433 H   0  0  0  0  0  0  0  0  0  0  0  0
    2.4592   -1.2073   -1.4951 H   0  0  0  0  0  0  0  0  0  0  0  0
    1.2031    1.5128   -0.9731 H   0  0  0  0  0  0  0  0  0  0  0  0
    1.1711    0.5371   -2.4371 H   0  0  0  0  0  0  0  0  0  0  0  0
   -1.1641    1.2254   -2.3242 H   0  0  0  0  0  0  0  0  0  0  0  0
   -1.0452   -0.4627   -2.7924 H   0  0  0  0  0  0  0  0  0  0  0  0
   -3.1274   -1.6502   -2.6852 H   0  0  0  0  0  0  0  0  0  0  0  0
   -7.1495   -1.0074   -0.3260 H   0  0  0  0  0  0  0  0  0  0  0  0
   -7.9292    0.5886    1.3837 H   0  0  0  0  0  0  0  0  0  0  0  0
   -6.4064    2.3675    2.2064 H   0  0  0  0  0  0  0  0  0  0  0  0
   -4.0981    2.5367    1.3037 H   0  0  0  0  0  0  0  0  0  0  0  0
   -1.1314   -1.7082   -0.0203 H   0  0  0  0  0  0  0  0  0  0  0  0
    0.1245   -2.0655   -1.2060 H   0  0  0  0  0  0  0  0  0  0  0  0
    1.0400   -2.5694    0.9683 H   0  0  0  0  0  0  0  0  0  0  0  0
    0.4407   -1.0639    1.6753 H   0  0  0  0  0  0  0  0  0  0  0  0
  1  2  2  0
  2  3  1  0
  3  4  2  0
  4  5  1  0
  5  6  2  0
  6  7  1  0
  7  8  1  0
  7  9  2  0
  2 10  1  0
 10 11  1  0
 11 12  1  0
 12 13  1  0
 13 14  1  0
 14 15  1  0
 15 16  2  0
 16 17  1  0
 17 18  2  0
 17 19  1  0
 19 20  1  0
 20 21  2  0
 21 22  1  0
 22 23  2  0
 23 24  1  0
 24 25  2  0
 13 26  1  0
 26 27  1  0
  9  3  1  0
 27 10  1  0
 25 15  1  0
 24 19  1  0
  4 28  1  0
  5 29  1  0
  6 30  1  0
  9 31  1  0
 11 32  1  0
 11 33  1  0
 12 34  1  0
 12 35  1  0
 14 36  1  0
 14 37  1  0
 16 38  1  0
 20 39  1  0
 21 40  1  0
 22 41  1  0
 23 42  1  0
 26 43  1  0
 26 44  1  0
 27 45  1  0
 27 46  1  0
M  END
$$$$
