
     RDKit          3D

 42 44  0  0  0  0  0  0  0  0999 V2000
    2.3659   -3.4472    2.2579 O   0  0  0  0  0  0  0  0  0  0  0  0
    2.4493   -3.1644    0.8406 S   0  0  0  0  0  6  0  0  0  0  0  0
    2.5270   -4.2322   -0.1336 O   0  0  0  0  0  0  0  0  0  0  0  0
    3.7776   -2.1526    0.5557 N   0  0  0  0  0  0  0  0  0  0  0  0
    3.7492   -0.8432    1.1326 C   0  0  0  0  0  0  0  0  0  0  0  0
    3.8386   -0.6633    2.5115 C   0  0  0  0  0  0  0  0  0  0  0  0
    3.7360    0.6223    3.0500 C   0  0  0  0  0  0  0  0  0  0  0  0
    3.5364    1.7240    2.2131 C   0  0  0  0  0  0  0  0  0  0  0  0
    3.4454    1.5455    0.8328 C   0  0  0  0  0  0  0  0  0  0  0  0
    3.5561    0.2655    0.3030 C   0  0  0  0  0  0  0  0  0  0  0  0
    3.4620    0.0901   -1.0242 F   0  0  0  0  0  0  0  0  0  0  0  0
    1.0574   -2.1455    0.4002 C   0  0  0  0  0  0  0  0  0  0  0  0
    0.7473   -1.9566   -0.9503 C   0  0  0  0  0  0  0  0  0  0  0  0
   -0.3154   -1.1215   -1.2987 C   0  0  0  0  0  0  0  0  0  0  0  0
   -1.0600   -0.4842   -0.3005 C   0  0  0  0  0  0  0  0  0  0  0  0
   -2.1699    0.3687   -0.6164 N   0  0  0  0  0  0  0  0  0  0  0  0
   -3.4107   -0.3297   -1.0400 C   0  0  0  0  0  0  0  0  0  0  0  0
   -4.5219    0.6506   -1.4284 C   0  0  0  0  0  0  0  0  0  0  0  0
   -4.4163    1.9746   -0.6788 C   0  0  0  0  0  0  0  0  0  0  0  0
   -3.2067    2.7903   -1.1242 C   0  0  0  0  0  0  0  0  0  0  0  0
   -1.7683    1.7844   -1.4695 S   0  0  0  0  0  6  0  0  0  0  0  0
   -0.6237    2.4082   -0.8385 O   0  0  0  0  0  0  0  0  0  0  0  0
   -1.7624    1.4605   -2.8820 O   0  0  0  0  0  0  0  0  0  0  0  0
   -0.7740   -0.7150    1.0469 C   0  0  0  0  0  0  0  0  0  0  0  0
    0.2886   -1.5461    1.4030 C   0  0  0  0  0  0  0  0  0  0  0  0
    4.0432   -2.1830   -0.4305 H   0  0  0  0  0  0  0  0  0  0  0  0
    3.9871   -1.5145    3.1719 H   0  0  0  0  0  0  0  0  0  0  0  0
    3.8059    0.7641    4.1264 H   0  0  0  0  0  0  0  0  0  0  0  0
    3.4479    2.7213    2.6379 H   0  0  0  0  0  0  0  0  0  0  0  0
    3.2785    2.3903    0.1715 H   0  0  0  0  0  0  0  0  0  0  0  0
    1.3318   -2.4383   -1.7308 H   0  0  0  0  0  0  0  0  0  0  0  0
   -0.5472   -0.9617   -2.3492 H   0  0  0  0  0  0  0  0  0  0  0  0
   -3.7629   -0.9270   -0.1892 H   0  0  0  0  0  0  0  0  0  0  0  0
   -3.2165   -1.0206   -1.8681 H   0  0  0  0  0  0  0  0  0  0  0  0
   -4.4887    0.8394   -2.5087 H   0  0  0  0  0  0  0  0  0  0  0  0
   -5.4938    0.1835   -1.2306 H   0  0  0  0  0  0  0  0  0  0  0  0
   -5.3241    2.5684   -0.8351 H   0  0  0  0  0  0  0  0  0  0  0  0
   -4.3544    1.7786    0.3991 H   0  0  0  0  0  0  0  0  0  0  0  0
   -2.9378    3.5143   -0.3492 H   0  0  0  0  0  0  0  0  0  0  0  0
   -3.4314    3.3382   -2.0453 H   0  0  0  0  0  0  0  0  0  0  0  0
   -1.3646   -0.2321    1.8207 H   0  0  0  0  0  0  0  0  0  0  0  0
    0.5195   -1.7043    2.4541 H   0  0  0  0  0  0  0  0  0  0  0  0
  1  2  2  0
  2  3  2  0
  2  4  1  0
  4  5  1  0
  5  6  2  0
  6  7  1  0
  7  8  2  0
  8  9  1  0
  9 10  2  0
 10 11  1  0
  2 12  1  0
 12 13  2  0
 13 14  1  0
 14 15  2  0
 15 16  1  0
 16 17  1  0
 17 18  1  0
 18 19  1  0
 19 20  1  0
 20 21  1  0
 21 22  2  0
 21 23  2  0
 15 24  1  0
 24 25  2  0
 10  5  1  0
 25 12  1  0
 21 16  1  0
  4 26  1  0
  6 27  1  0
  7 28  1  0
  8 29  1  0
  9 30  1  0
 13 31  1  0
 14 32  1  0
 17 33  1  0
 17 34  1  0
 18 35  1  0
 18 36  1  0
 19 37  1  0
 19 38  1  0
 20 39  1  0
 20 40  1  0
 24 41  1  0
 25 42  1  0
M  END
$$$$
