
     RDKit          3D

 60 63  0  0  0  0  0  0  0  0999 V2000
   -0.1706   -1.9167    1.7365 O   0  0  0  0  0  0  0  0  0  0  0  0
    0.2428   -1.6790    0.6075 C   0  0  0  0  0  0  0  0  0  0  0  0
   -0.5572   -1.6942   -0.5173 N   0  0  0  0  0  0  0  0  0  0  0  0
   -1.9859   -1.9234   -0.4177 C   0  0  0  0  0  0  0  0  0  0  0  0
   -2.7459   -0.6290   -0.1330 C   0  0  0  0  0  0  0  0  0  0  0  0
   -4.2509   -0.8995   -0.0149 C   0  0  0  0  0  0  0  0  0  0  0  0
   -5.0182    0.3271    0.2636 N   0  0  0  0  0  0  0  0  0  0  0  0
   -5.1924    1.1775   -0.9165 C   0  0  0  0  0  0  0  0  0  0  0  0
   -6.4467    0.9482   -1.7646 C   0  0  0  0  0  0  0  0  0  0  0  0
   -7.6549    1.7356   -1.2641 C   0  0  0  0  0  0  0  0  0  0  0  0
   -8.2374    1.2499    0.0555 C   0  0  0  0  0  0  0  0  0  0  0  0
   -7.2371    1.1489    1.2042 C   0  0  0  0  0  0  0  0  0  0  0  0
   -6.2334    0.0077    1.0201 C   0  0  0  0  0  0  0  0  0  0  0  0
    1.6706   -1.3130    0.4011 C   0  0  0  0  0  0  0  0  0  0  0  0
    2.3360   -1.5495   -0.8021 C   0  0  0  0  0  0  0  0  0  0  0  0
    3.6864   -1.1951   -0.9454 C   0  0  0  0  0  0  0  0  0  0  0  0
    4.4113   -0.5888    0.0945 C   0  0  0  0  0  0  0  0  0  0  0  0
    3.7106   -0.3765    1.3059 C   0  0  0  0  0  0  0  0  0  0  0  0
    2.3690   -0.7413    1.4645 C   0  0  0  0  0  0  0  0  0  0  0  0
    4.3592    0.1918    2.4065 N   0  0  0  0  0  0  0  0  0  0  0  0
    5.6284    0.6950    2.3328 C   0  0  0  0  0  0  0  0  0  0  0  0
    6.1807    1.1237    3.3463 O   0  0  0  0  0  0  0  0  0  0  0  0
    6.2250    0.8058    0.9188 C   0  0  0  0  0  0  0  0  0  0  0  0
    7.7545    0.8449    1.0228 C   0  0  0  0  0  0  0  0  0  0  0  0
    8.4063    0.9290   -0.3496 C   0  0  0  0  0  0  0  0  0  0  0  0
    7.9415   -0.2309   -1.2148 C   0  0  0  0  0  0  0  0  0  0  0  0
    6.4189   -0.2765   -1.3275 C   0  0  0  0  0  0  0  0  0  0  0  0
    5.7876   -0.2872    0.0000 N   0  0  0  0  0  0  0  0  0  0  0  0
   -0.2094   -1.2851   -1.3732 H   0  0  0  0  0  0  0  0  0  0  0  0
   -2.3063   -2.3515   -1.3734 H   0  0  0  0  0  0  0  0  0  0  0  0
   -2.1760   -2.6630    0.3680 H   0  0  0  0  0  0  0  0  0  0  0  0
   -2.5301    0.0889   -0.9321 H   0  0  0  0  0  0  0  0  0  0  0  0
   -2.3789   -0.1786    0.7980 H   0  0  0  0  0  0  0  0  0  0  0  0
   -4.3803   -1.6130    0.8103 H   0  0  0  0  0  0  0  0  0  0  0  0
   -4.6305   -1.3965   -0.9167 H   0  0  0  0  0  0  0  0  0  0  0  0
   -4.3229    1.0899   -1.5780 H   0  0  0  0  0  0  0  0  0  0  0  0
   -5.1683    2.2232   -0.5837 H   0  0  0  0  0  0  0  0  0  0  0  0
   -6.6814   -0.1190   -1.8525 H   0  0  0  0  0  0  0  0  0  0  0  0
   -6.2292    1.2950   -2.7833 H   0  0  0  0  0  0  0  0  0  0  0  0
   -8.4434    1.6852   -2.0252 H   0  0  0  0  0  0  0  0  0  0  0  0
   -7.3879    2.7960   -1.1736 H   0  0  0  0  0  0  0  0  0  0  0  0
   -9.0381    1.9397    0.3502 H   0  0  0  0  0  0  0  0  0  0  0  0
   -8.7176    0.2752   -0.0976 H   0  0  0  0  0  0  0  0  0  0  0  0
   -7.8082    0.9476    2.1198 H   0  0  0  0  0  0  0  0  0  0  0  0
   -6.7279    2.1059    1.3689 H   0  0  0  0  0  0  0  0  0  0  0  0
   -5.9142   -0.3040    2.0233 H   0  0  0  0  0  0  0  0  0  0  0  0
   -6.7488   -0.8566    0.5799 H   0  0  0  0  0  0  0  0  0  0  0  0
    1.8386   -2.0450   -1.6312 H   0  0  0  0  0  0  0  0  0  0  0  0
    4.1501   -1.4287   -1.8980 H   0  0  0  0  0  0  0  0  0  0  0  0
    1.8596   -0.5749    2.4112 H   0  0  0  0  0  0  0  0  0  0  0  0
    3.9170    0.2127    3.3150 H   0  0  0  0  0  0  0  0  0  0  0  0
    5.8721    1.7634    0.5093 H   0  0  0  0  0  0  0  0  0  0  0  0
    8.1159   -0.0526    1.5425 H   0  0  0  0  0  0  0  0  0  0  0  0
    8.0734    1.7042    1.6252 H   0  0  0  0  0  0  0  0  0  0  0  0
    8.1472    1.8808   -0.8288 H   0  0  0  0  0  0  0  0  0  0  0  0
    9.4968    0.9042   -0.2466 H   0  0  0  0  0  0  0  0  0  0  0  0
    8.3030   -1.1724   -0.7818 H   0  0  0  0  0  0  0  0  0  0  0  0
    8.3826   -0.1484   -2.2146 H   0  0  0  0  0  0  0  0  0  0  0  0
    6.0573    0.5822   -1.9068 H   0  0  0  0  0  0  0  0  0  0  0  0
    6.1878   -1.1891   -1.8864 H   0  0  0  0  0  0  0  0  0  0  0  0
  1  2  2  0
  2  3  1  0
  3  4  1  0
  4  5  1  0
  5  6  1  0
  6  7  1  0
  7  8  1  0
  8  9  1  0
  9 10  1  0
 10 11  1  0
 11 12  1  0
 12 13  1  0
  2 14  1  0
 14 15  2  0
 15 16  1  0
 16 17  2  0
 17 18  1  0
 18 19  2  0
 18 20  1  0
 20 21  1  0
 21 22  2  0
 21 23  1  0
 23 24  1  0
 24 25  1  0
 25 26  1  0
 26 27  1  0
 27 28  1  0
 13  7  1  0
 19 14  1  0
 28 23  1  0
 28 17  1  0
  3 29  1  0
  4 30  1  0
  4 31  1  0
  5 32  1  0
  5 33  1  0
  6 34  1  0
  6 35  1  0
  8 36  1  0
  8 37  1  0
  9 38  1  0
  9 39  1  0
 10 40  1  0
 10 41  1  0
 11 42  1  0
 11 43  1  0
 12 44  1  0
 12 45  1  0
 13 46  1  0
 13 47  1  0
 15 48  1  0
 16 49  1  0
 19 50  1  0
 20 51  1  0
 23 52  1  0
 24 53  1  0
 24 54  1  0
 25 55  1  0
 25 56  1  0
 26 57  1  0
 26 58  1  0
 27 59  1  0
 27 60  1  0
M  END
$$$$
