
     RDKit          3D

 52 55  0  0  0  0  0  0  0  0999 V2000
    8.3324    0.2875    2.1340 C   0  0  0  0  0  0  0  0  0  0  0  0
    7.7003   -0.1571    0.9373 O   0  0  0  0  0  0  0  0  0  0  0  0
    6.5157    0.4359    0.6014 C   0  0  0  0  0  0  0  0  0  0  0  0
    5.8497    1.4169    1.3420 C   0  0  0  0  0  0  0  0  0  0  0  0
    4.6299    1.9311    0.8894 C   0  0  0  0  0  0  0  0  0  0  0  0
    4.0737    1.4537   -0.3005 C   0  0  0  0  0  0  0  0  0  0  0  0
    2.7782    1.9983   -0.7589 C   0  0  0  0  0  0  0  0  0  0  0  0
    2.7099    3.2054   -0.9752 O   0  0  0  0  0  0  0  0  0  0  0  0
    1.7111    1.1214   -0.9322 N   0  0  0  0  0  0  0  0  0  0  0  0
    0.4624    1.6610   -1.4665 C   0  0  0  0  0  0  0  0  0  0  0  0
   -0.3630    0.5756   -2.1404 C   0  0  0  0  0  0  0  0  0  0  0  0
   -0.7189   -0.5467   -1.1520 C   0  0  0  0  0  0  0  0  0  0  0  0
    0.2826   -0.6760    0.0057 C   0  0  0  0  0  0  0  0  0  0  0  0
    1.6838   -0.2493   -0.4109 C   0  0  0  0  0  0  0  0  0  0  0  0
   -2.0504   -0.2428   -0.5612 N   0  0  0  0  0  0  0  0  0  0  0  0
   -2.8669   -1.1845   -0.9527 C   0  0  0  0  0  0  0  0  0  0  0  0
   -4.2905   -1.2324   -0.5616 C   0  0  0  0  0  0  0  0  0  0  0  0
   -5.1714   -2.2102   -1.0316 C   0  0  0  0  0  0  0  0  0  0  0  0
   -6.5068   -2.2033   -0.6208 C   0  0  0  0  0  0  0  0  0  0  0  0
   -6.9734   -1.2233    0.2592 C   0  0  0  0  0  0  0  0  0  0  0  0
   -6.1046   -0.2440    0.7374 C   0  0  0  0  0  0  0  0  0  0  0  0
   -6.4273    0.7632    1.6029 O   0  0  0  0  0  0  0  0  0  0  0  0
   -7.7732    0.8162    2.0602 C   0  0  0  0  0  0  0  0  0  0  0  0
   -4.7691   -0.2524    0.3242 C   0  0  0  0  0  0  0  0  0  0  0  0
   -2.1725   -2.2024   -1.8314 C   0  0  0  0  0  0  0  0  0  0  0  0
   -2.6573   -3.1502   -2.4000 O   0  0  0  0  0  0  0  0  0  0  0  0
   -0.8783   -1.7919   -1.8449 N   0  0  0  0  0  0  0  0  0  0  0  0
    4.7453    0.4921   -1.0609 C   0  0  0  0  0  0  0  0  0  0  0  0
    5.9604   -0.0170   -0.6012 C   0  0  0  0  0  0  0  0  0  0  0  0
    9.2361   -0.3076    2.2768 H   0  0  0  0  0  0  0  0  0  0  0  0
    7.6942    0.1302    3.0068 H   0  0  0  0  0  0  0  0  0  0  0  0
    8.6350    1.3341    2.0465 H   0  0  0  0  0  0  0  0  0  0  0  0
    6.2497    1.8032    2.2732 H   0  0  0  0  0  0  0  0  0  0  0  0
    4.1104    2.6938    1.4653 H   0  0  0  0  0  0  0  0  0  0  0  0
   -0.0875    2.1191   -0.6345 H   0  0  0  0  0  0  0  0  0  0  0  0
    0.6868    2.4560   -2.1874 H   0  0  0  0  0  0  0  0  0  0  0  0
    0.2248    0.1661   -2.9738 H   0  0  0  0  0  0  0  0  0  0  0  0
   -1.2647    1.0141   -2.5852 H   0  0  0  0  0  0  0  0  0  0  0  0
   -0.0301   -0.0431    0.8476 H   0  0  0  0  0  0  0  0  0  0  0  0
    0.3067   -1.7021    0.3915 H   0  0  0  0  0  0  0  0  0  0  0  0
    2.0622   -0.9098   -1.2004 H   0  0  0  0  0  0  0  0  0  0  0  0
    2.3552   -0.3351    0.4507 H   0  0  0  0  0  0  0  0  0  0  0  0
   -4.8551   -2.9909   -1.7197 H   0  0  0  0  0  0  0  0  0  0  0  0
   -7.1853   -2.9670   -0.9855 H   0  0  0  0  0  0  0  0  0  0  0  0
   -8.0177   -1.2546    0.5523 H   0  0  0  0  0  0  0  0  0  0  0  0
   -8.4620    0.9942    1.2290 H   0  0  0  0  0  0  0  0  0  0  0  0
   -7.8607    1.6582    2.7497 H   0  0  0  0  0  0  0  0  0  0  0  0
   -8.0423   -0.0935    2.6089 H   0  0  0  0  0  0  0  0  0  0  0  0
   -4.0996    0.5194    0.7080 H   0  0  0  0  0  0  0  0  0  0  0  0
   -0.1879   -2.2378   -2.4351 H   0  0  0  0  0  0  0  0  0  0  0  0
    4.3348    0.1482   -2.0076 H   0  0  0  0  0  0  0  0  0  0  0  0
    6.4852   -0.7700   -1.1858 H   0  0  0  0  0  0  0  0  0  0  0  0
  1  2  1  0
  2  3  1  0
  3  4  2  0
  4  5  1  0
  5  6  2  0
  6  7  1  0
  7  8  2  0
  7  9  1  0
  9 10  1  0
 10 11  1  0
 11 12  1  0
 12 13  1  0
 13 14  1  0
 12 15  1  0
 15 16  2  0
 16 17  1  0
 17 18  2  0
 18 19  1  0
 19 20  2  0
 20 21  1  0
 21 22  1  0
 22 23  1  0
 21 24  2  0
 16 25  1  0
 25 26  2  0
 25 27  1  0
  6 28  1  0
 28 29  2  0
 29  3  1  0
 14  9  1  0
 24 17  1  0
 27 12  1  0
  1 30  1  0
  1 31  1  0
  1 32  1  0
  4 33  1  0
  5 34  1  0
 10 35  1  0
 10 36  1  0
 11 37  1  0
 11 38  1  0
 13 39  1  0
 13 40  1  0
 14 41  1  0
 14 42  1  0
 18 43  1  0
 19 44  1  0
 20 45  1  0
 23 46  1  0
 23 47  1  0
 23 48  1  0
 24 49  1  0
 27 50  1  0
 28 51  1  0
 29 52  1  0
M  END
$$$$
