
     RDKit          3D

 55 59  0  0  0  0  0  0  0  0999 V2000
    3.6220   -0.8792    1.8469 O   0  0  0  0  0  0  0  0  0  0  0  0
    3.4358   -0.7391    0.6432 C   0  0  0  0  0  0  0  0  0  0  0  0
    4.4459   -0.8557   -0.2875 N   0  0  0  0  0  0  0  0  0  0  0  0
    5.8229   -1.0474    0.1111 C   0  0  0  0  0  0  0  0  0  0  0  0
    6.5649    0.2560    0.1203 C   0  0  0  0  0  0  0  0  0  0  0  0
    7.3303    0.6759   -0.9717 C   0  0  0  0  0  0  0  0  0  0  0  0
    7.9859    1.9031   -0.9232 C   0  0  0  0  0  0  0  0  0  0  0  0
    7.8478    2.6767    0.2170 C   0  0  0  0  0  0  0  0  0  0  0  0
    7.1098    2.3108    1.2858 N   0  0  0  0  0  0  0  0  0  0  0  0
    6.4853    1.1126    1.2147 C   0  0  0  0  0  0  0  0  0  0  0  0
    2.0758   -0.4048    0.0352 C   0  0  0  0  0  0  0  0  0  0  0  0
    1.5792   -1.5339   -0.8815 C   0  0  0  0  0  0  0  0  0  0  0  0
    0.4384   -2.3258   -0.2485 C   0  0  0  0  0  0  0  0  0  0  0  0
   -0.6974   -1.4395    0.0360 N   0  0  0  0  0  0  0  0  0  0  0  0
   -1.9650   -2.0033    0.2059 C   0  0  0  0  0  0  0  0  0  0  0  0
   -2.0389   -3.3084    0.3785 N   0  0  0  0  0  0  0  0  0  0  0  0
   -3.2592   -3.9101    0.5830 C   0  0  0  0  0  0  0  0  0  0  0  0
   -4.4180   -3.2435    0.6128 C   0  0  0  0  0  0  0  0  0  0  0  0
   -4.3995   -1.8789    0.4095 N   0  0  0  0  0  0  0  0  0  0  0  0
   -5.4490   -1.0284    0.3821 N   0  0  0  0  0  0  0  0  0  0  0  0
   -4.9329    0.1724    0.0766 C   0  0  0  0  0  0  0  0  0  0  0  0
   -5.7878    1.3589   -0.0720 C   0  0  0  0  0  0  0  0  0  0  0  0
   -5.2638    2.5888   -0.4990 C   0  0  0  0  0  0  0  0  0  0  0  0
   -6.0889    3.7106   -0.6338 C   0  0  0  0  0  0  0  0  0  0  0  0
   -7.4482    3.6187   -0.3443 C   0  0  0  0  0  0  0  0  0  0  0  0
   -7.9853    2.4061    0.0789 C   0  0  0  0  0  0  0  0  0  0  0  0
   -7.1609    1.2855    0.2134 C   0  0  0  0  0  0  0  0  0  0  0  0
   -3.5225    0.0806   -0.0642 C   0  0  0  0  0  0  0  0  0  0  0  0
   -3.2035   -1.2343    0.1874 C   0  0  0  0  0  0  0  0  0  0  0  0
   -0.3733   -0.1223    0.5895 C   0  0  0  0  0  0  0  0  0  0  0  0
    1.0520   -0.0677    1.1267 C   0  0  0  0  0  0  0  0  0  0  0  0
    4.2735   -0.5500   -1.2358 H   0  0  0  0  0  0  0  0  0  0  0  0
    5.8808   -1.5278    1.0942 H   0  0  0  0  0  0  0  0  0  0  0  0
    6.2741   -1.7370   -0.6110 H   0  0  0  0  0  0  0  0  0  0  0  0
    7.4242    0.0532   -1.8575 H   0  0  0  0  0  0  0  0  0  0  0  0
    8.5913    2.2486   -1.7538 H   0  0  0  0  0  0  0  0  0  0  0  0
    8.3410    3.6407    0.3036 H   0  0  0  0  0  0  0  0  0  0  0  0
    5.8944    0.8526    2.0911 H   0  0  0  0  0  0  0  0  0  0  0  0
    2.2270    0.4939   -0.5794 H   0  0  0  0  0  0  0  0  0  0  0  0
    1.2182   -1.0880   -1.8181 H   0  0  0  0  0  0  0  0  0  0  0  0
    2.3830   -2.2254   -1.1578 H   0  0  0  0  0  0  0  0  0  0  0  0
    0.1391   -3.1055   -0.9595 H   0  0  0  0  0  0  0  0  0  0  0  0
    0.7720   -2.8245    0.6695 H   0  0  0  0  0  0  0  0  0  0  0  0
   -3.2385   -4.9859    0.7327 H   0  0  0  0  0  0  0  0  0  0  0  0
   -5.3812   -3.7037    0.7773 H   0  0  0  0  0  0  0  0  0  0  0  0
   -4.2104    2.6983   -0.7385 H   0  0  0  0  0  0  0  0  0  0  0  0
   -5.6687    4.6564   -0.9664 H   0  0  0  0  0  0  0  0  0  0  0  0
   -8.0888    4.4903   -0.4494 H   0  0  0  0  0  0  0  0  0  0  0  0
   -9.0454    2.3271    0.3055 H   0  0  0  0  0  0  0  0  0  0  0  0
   -7.6009    0.3469    0.5461 H   0  0  0  0  0  0  0  0  0  0  0  0
   -2.8365    0.8726   -0.3179 H   0  0  0  0  0  0  0  0  0  0  0  0
   -1.0507    0.1294    1.4135 H   0  0  0  0  0  0  0  0  0  0  0  0
   -0.4981    0.6343   -0.1932 H   0  0  0  0  0  0  0  0  0  0  0  0
    1.1382   -0.7619    1.9732 H   0  0  0  0  0  0  0  0  0  0  0  0
    1.2607    0.9311    1.5296 H   0  0  0  0  0  0  0  0  0  0  0  0
  1  2  2  0
  2  3  1  0
  3  4  1  0
  4  5  1  0
  5  6  2  0
  6  7  1  0
  7  8  2  0
  8  9  1  0
  9 10  2  0
  2 11  1  0
 11 12  1  0
 12 13  1  0
 13 14  1  0
 14 15  1  0
 15 16  2  0
 16 17  1  0
 17 18  2  0
 18 19  1  0
 19 20  1  0
 20 21  2  0
 21 22  1  0
 22 23  2  0
 23 24  1  0
 24 25  2  0
 25 26  1  0
 26 27  2  0
 21 28  1  0
 28 29  2  0
 14 30  1  0
 30 31  1  0
 10  5  1  0
 31 11  1  0
 29 15  1  0
 29 19  1  0
 27 22  1  0
  3 32  1  0
  4 33  1  0
  4 34  1  0
  6 35  1  0
  7 36  1  0
  8 37  1  0
 10 38  1  0
 11 39  1  0
 12 40  1  0
 12 41  1  0
 13 42  1  0
 13 43  1  0
 17 44  1  0
 18 45  1  0
 23 46  1  0
 24 47  1  0
 25 48  1  0
 26 49  1  0
 27 50  1  0
 28 51  1  0
 30 52  1  0
 30 53  1  0
 31 54  1  0
 31 55  1  0
M  END
$$$$
