
     RDKit          3D

 61 65  0  0  0  0  0  0  0  0999 V2000
  -11.0301   -0.1772    0.3287 C   0  0  0  0  0  0  0  0  0  0  0  0
   -9.9622   -0.4608    1.2245 O   0  0  0  0  0  0  0  0  0  0  0  0
   -8.6952   -0.3576    0.7240 C   0  0  0  0  0  0  0  0  0  0  0  0
   -8.3491    0.0171   -0.5700 C   0  0  0  0  0  0  0  0  0  0  0  0
   -6.9999    0.0823   -0.9532 C   0  0  0  0  0  0  0  0  0  0  0  0
   -5.9679   -0.2249   -0.0584 C   0  0  0  0  0  0  0  0  0  0  0  0
   -4.5986   -0.1575   -0.4377 N   0  0  0  0  0  0  0  0  0  0  0  0
   -3.5203   -0.4108    0.4906 C   0  0  0  0  0  0  0  0  0  0  0  0
   -2.2784    0.1344   -0.2027 C   0  0  0  0  0  0  0  0  0  0  0  0
   -1.0234   -0.5911    0.2469 C   0  0  0  0  0  0  0  0  0  0  0  0
   -1.0773   -1.4636    1.1142 O   0  0  0  0  0  0  0  0  0  0  0  0
    0.1781   -0.2374   -0.3578 N   0  0  0  0  0  0  0  0  0  0  0  0
    0.4641    1.1148   -0.8795 C   0  0  0  0  0  0  0  0  0  0  0  0
    1.2667    1.9337    0.1562 C   0  0  0  0  0  0  0  0  0  0  0  0
    2.4604    1.1852    0.5636 N   0  0  0  0  0  0  0  0  0  0  0  0
    3.7055    1.6251    0.0990 C   0  0  0  0  0  0  0  0  0  0  0  0
    3.8503    2.7844   -0.2974 O   0  0  0  0  0  0  0  0  0  0  0  0
    4.8621    0.7042    0.0732 C   0  0  0  0  0  0  0  0  0  0  0  0
    6.2269    1.1064    0.1151 C   0  0  0  0  0  0  0  0  0  0  0  0
    6.9815   -0.0457    0.0210 C   0  0  0  0  0  0  0  0  0  0  0  0
    8.4266   -0.2607    0.0077 C   0  0  0  0  0  0  0  0  0  0  0  0
    9.2787    0.7139   -0.5163 C   0  0  0  0  0  0  0  0  0  0  0  0
   10.6440    0.4765   -0.5162 C   0  0  0  0  0  0  0  0  0  0  0  0
   11.2093   -0.6478   -0.0316 N   0  0  0  0  0  0  0  0  0  0  0  0
   10.3729   -1.5728    0.4805 C   0  0  0  0  0  0  0  0  0  0  0  0
    8.9942   -1.4295    0.5211 C   0  0  0  0  0  0  0  0  0  0  0  0
    6.0548   -1.0454   -0.1166 N   0  0  0  0  0  0  0  0  0  0  0  0
    4.7779   -0.6296   -0.0939 N   0  0  0  0  0  0  0  0  0  0  0  0
    2.1572   -0.1479    1.1093 C   0  0  0  0  0  0  0  0  0  0  0  0
    1.3935   -0.9680    0.0580 C   0  0  0  0  0  0  0  0  0  0  0  0
   -2.5949   -0.0859   -1.6738 C   0  0  0  0  0  0  0  0  0  0  0  0
   -4.0999    0.0024   -1.7357 C   0  0  0  0  0  0  0  0  0  0  0  0
   -4.7027    0.1580   -2.7868 O   0  0  0  0  0  0  0  0  0  0  0  0
   -6.3343   -0.6001    1.2423 C   0  0  0  0  0  0  0  0  0  0  0  0
   -7.6799   -0.6647    1.6266 C   0  0  0  0  0  0  0  0  0  0  0  0
  -11.0344   -0.8762   -0.5143 H   0  0  0  0  0  0  0  0  0  0  0  0
  -10.9899    0.8610   -0.0174 H   0  0  0  0  0  0  0  0  0  0  0  0
  -11.9687   -0.3094    0.8755 H   0  0  0  0  0  0  0  0  0  0  0  0
   -9.0973    0.2689   -1.3144 H   0  0  0  0  0  0  0  0  0  0  0  0
   -6.7931    0.3916   -1.9734 H   0  0  0  0  0  0  0  0  0  0  0  0
   -3.4778   -1.4910    0.6724 H   0  0  0  0  0  0  0  0  0  0  0  0
   -3.6788    0.1163    1.4375 H   0  0  0  0  0  0  0  0  0  0  0  0
   -2.1948    1.2032    0.0273 H   0  0  0  0  0  0  0  0  0  0  0  0
    1.0524    0.9857   -1.7955 H   0  0  0  0  0  0  0  0  0  0  0  0
   -0.4468    1.6545   -1.1384 H   0  0  0  0  0  0  0  0  0  0  0  0
    0.6634    2.1020    1.0559 H   0  0  0  0  0  0  0  0  0  0  0  0
    1.5223    2.9103   -0.2648 H   0  0  0  0  0  0  0  0  0  0  0  0
    6.5904    2.1208    0.2138 H   0  0  0  0  0  0  0  0  0  0  0  0
    8.8979    1.6411   -0.9309 H   0  0  0  0  0  0  0  0  0  0  0  0
   11.3386    1.2076   -0.9202 H   0  0  0  0  0  0  0  0  0  0  0  0
   10.8553   -2.4625    0.8752 H   0  0  0  0  0  0  0  0  0  0  0  0
    8.3956   -2.2142    0.9690 H   0  0  0  0  0  0  0  0  0  0  0  0
    6.2315   -2.0347   -0.2537 H   0  0  0  0  0  0  0  0  0  0  0  0
    3.0446   -0.6648    1.4725 H   0  0  0  0  0  0  0  0  0  0  0  0
    1.5186    0.0120    1.9875 H   0  0  0  0  0  0  0  0  0  0  0  0
    1.1402   -1.9566    0.4534 H   0  0  0  0  0  0  0  0  0  0  0  0
    2.0035   -1.1128   -0.8411 H   0  0  0  0  0  0  0  0  0  0  0  0
   -2.1554    0.6895   -2.3066 H   0  0  0  0  0  0  0  0  0  0  0  0
   -2.2793   -1.0716   -2.0316 H   0  0  0  0  0  0  0  0  0  0  0  0
   -5.5939   -0.8673    1.9899 H   0  0  0  0  0  0  0  0  0  0  0  0
   -7.9349   -0.9634    2.6405 H   0  0  0  0  0  0  0  0  0  0  0  0
  1  2  1  0
  2  3  1  0
  3  4  2  0
  4  5  1  0
  5  6  2  0
  6  7  1  0
  7  8  1  0
  8  9  1  0
  9 10  1  0
 10 11  2  0
 10 12  1  0
 12 13  1  0
 13 14  1  0
 14 15  1  0
 15 16  1  0
 16 17  2  0
 16 18  1  0
 18 19  1  0
 19 20  2  0
 20 21  1  0
 21 22  2  0
 22 23  1  0
 23 24  2  0
 24 25  1  0
 25 26  2  0
 20 27  1  0
 27 28  1  0
 15 29  1  0
 29 30  1  0
  9 31  1  0
 31 32  1  0
 32 33  2  0
  6 34  1  0
 34 35  2  0
 35  3  1  0
 32  7  1  0
 30 12  1  0
 28 18  2  0
 26 21  1  0
  1 36  1  0
  1 37  1  0
  1 38  1  0
  4 39  1  0
  5 40  1  0
  8 41  1  0
  8 42  1  0
  9 43  1  0
 13 44  1  0
 13 45  1  0
 14 46  1  0
 14 47  1  0
 19 48  1  0
 22 49  1  0
 23 50  1  0
 25 51  1  0
 26 52  1  0
 27 53  1  0
 29 54  1  0
 29 55  1  0
 30 56  1  0
 30 57  1  0
 31 58  1  0
 31 59  1  0
 34 60  1  0
 35 61  1  0
M  END
$$$$
