
     RDKit          3D

 41 43  0  0  0  0  0  0  0  0999 V2000
   -7.6618    1.1508   -0.1057 C   0  0  0  0  0  0  0  0  0  0  0  0
   -6.1831    1.0657    0.2277 C   0  0  0  0  0  0  0  0  0  0  0  0
   -5.6147    0.0192   -0.5574 O   0  0  0  0  0  0  0  0  0  0  0  0
   -4.2773   -0.2200   -0.4067 C   0  0  0  0  0  0  0  0  0  0  0  0
   -3.4113    0.4635    0.4480 C   0  0  0  0  0  0  0  0  0  0  0  0
   -2.0550    0.1162    0.5050 C   0  0  0  0  0  0  0  0  0  0  0  0
   -1.5550   -0.9149   -0.3014 C   0  0  0  0  0  0  0  0  0  0  0  0
   -0.1179   -1.3185   -0.2693 C   0  0  0  0  0  0  0  0  0  0  0  0
    0.1810   -2.4637   -0.5823 O   0  0  0  0  0  0  0  0  0  0  0  0
    0.7658   -0.3089    0.0467 N   0  0  0  0  0  0  0  0  0  0  0  0
    2.1462   -0.3604    0.1651 C   0  0  0  0  0  0  0  0  0  0  0  0
    2.9472   -1.3841    0.5187 C   0  0  0  0  0  0  0  0  0  0  0  0
    2.4588   -2.7215    1.0144 C   0  0  0  0  0  0  0  0  0  0  0  0
    4.3221   -1.2941    0.5552 N   0  0  0  0  0  0  0  0  0  0  0  0
    4.8846   -0.1637    0.2702 C   0  0  0  0  0  0  0  0  0  0  0  0
    6.3719   -0.0761    0.3017 C   0  0  0  0  0  0  0  0  0  0  0  0
    6.9779    1.0846    0.0245 C   0  0  0  0  0  0  0  0  0  0  0  0
    6.2019    2.2505   -0.3040 C   0  0  0  0  0  0  0  0  0  0  0  0
    4.8657    2.1741   -0.3367 C   0  0  0  0  0  0  0  0  0  0  0  0
    4.1939    0.9882   -0.0606 N   0  0  0  0  0  0  0  0  0  0  0  0
    2.8137    0.9604   -0.0992 C   0  0  0  0  0  0  0  0  0  0  0  0
    2.0925    1.9385   -0.3305 O   0  0  0  0  0  0  0  0  0  0  0  0
   -2.4277   -1.6099   -1.1446 C   0  0  0  0  0  0  0  0  0  0  0  0
   -3.7788   -1.2581   -1.1978 C   0  0  0  0  0  0  0  0  0  0  0  0
   -8.1606    0.1997    0.1082 H   0  0  0  0  0  0  0  0  0  0  0  0
   -8.1469    1.9421    0.4727 H   0  0  0  0  0  0  0  0  0  0  0  0
   -7.8055    1.3533   -1.1722 H   0  0  0  0  0  0  0  0  0  0  0  0
   -6.0692    0.8449    1.2952 H   0  0  0  0  0  0  0  0  0  0  0  0
   -5.7066    2.0232   -0.0123 H   0  0  0  0  0  0  0  0  0  0  0  0
   -3.7592    1.2664    1.0899 H   0  0  0  0  0  0  0  0  0  0  0  0
   -1.4120    0.6464    1.2028 H   0  0  0  0  0  0  0  0  0  0  0  0
    0.4268    0.6415   -0.1029 H   0  0  0  0  0  0  0  0  0  0  0  0
    1.4842   -2.6558    1.5058 H   0  0  0  0  0  0  0  0  0  0  0  0
    3.1438   -3.1191    1.7734 H   0  0  0  0  0  0  0  0  0  0  0  0
    2.4210   -3.4460    0.1953 H   0  0  0  0  0  0  0  0  0  0  0  0
    6.9168   -0.9772    0.5539 H   0  0  0  0  0  0  0  0  0  0  0  0
    8.0597    1.1683    0.0418 H   0  0  0  0  0  0  0  0  0  0  0  0
    6.7186    3.1796   -0.5222 H   0  0  0  0  0  0  0  0  0  0  0  0
    4.2582    3.0412   -0.5835 H   0  0  0  0  0  0  0  0  0  0  0  0
   -2.0605   -2.4252   -1.7649 H   0  0  0  0  0  0  0  0  0  0  0  0
   -4.4493   -1.8011   -1.8601 H   0  0  0  0  0  0  0  0  0  0  0  0
  1  2  1  0
  2  3  1  0
  3  4  1  0
  4  5  2  0
  5  6  1  0
  6  7  2  0
  7  8  1  0
  8  9  2  0
  8 10  1  0
 10 11  1  0
 11 12  2  0
 12 13  1  0
 12 14  1  0
 14 15  2  0
 15 16  1  0
 16 17  2  0
 17 18  1  0
 18 19  2  0
 19 20  1  0
 20 21  1  0
 21 22  2  0
  7 23  1  0
 23 24  2  0
 24  4  1  0
 21 11  1  0
 20 15  1  0
  1 25  1  0
  1 26  1  0
  1 27  1  0
  2 28  1  0
  2 29  1  0
  5 30  1  0
  6 31  1  0
 10 32  1  0
 13 33  1  0
 13 34  1  0
 13 35  1  0
 16 36  1  0
 17 37  1  0
 18 38  1  0
 19 39  1  0
 23 40  1  0
 24 41  1  0
M  END
$$$$
