
     RDKit          3D

 52 54  0  0  0  0  0  0  0  0999 V2000
    8.8248   -1.3079    0.3918 C   0  0  0  0  0  0  0  0  0  0  0  0
    7.4431   -0.8045    0.7750 C   0  0  0  0  0  0  0  0  0  0  0  0
    7.0131    0.3708   -0.1015 C   0  0  0  0  0  0  0  0  0  0  0  0
    5.7108    0.8668    0.2646 N   0  0  0  0  0  0  0  0  0  0  0  0
    5.4574    1.8474    1.2047 C   0  0  0  0  0  0  0  0  0  0  0  0
    6.2985    2.4794    1.8297 O   0  0  0  0  0  0  0  0  0  0  0  0
    4.0784    2.0397    1.3689 O   0  0  0  0  0  0  0  0  0  0  0  0
    3.5377    1.0985    0.5058 C   0  0  0  0  0  0  0  0  0  0  0  0
    2.1883    0.8730    0.3155 C   0  0  0  0  0  0  0  0  0  0  0  0
    1.8148   -0.1282   -0.5881 C   0  0  0  0  0  0  0  0  0  0  0  0
    0.4731   -0.4509   -0.8854 N   0  0  0  0  0  0  0  0  0  0  0  0
   -0.6634   -0.0157   -0.2171 C   0  0  0  0  0  0  0  0  0  0  0  0
   -0.6608    0.6407    0.8150 O   0  0  0  0  0  0  0  0  0  0  0  0
   -1.8016   -0.4357   -0.8926 N   0  0  0  0  0  0  0  0  0  0  0  0
   -3.1454   -0.3104   -0.4710 C   0  0  0  0  0  0  0  0  0  0  0  0
   -3.5163    0.0589    0.8266 C   0  0  0  0  0  0  0  0  0  0  0  0
   -4.8649    0.1570    1.1844 C   0  0  0  0  0  0  0  0  0  0  0  0
   -5.3225    0.5074    2.4294 O   0  0  0  0  0  0  0  0  0  0  0  0
   -4.3520    0.8013    3.4260 C   0  0  0  0  0  0  0  0  0  0  0  0
   -5.8454   -0.1191    0.2181 C   0  0  0  0  0  0  0  0  0  0  0  0
   -7.1776   -0.0720    0.5671 O   0  0  0  0  0  0  0  0  0  0  0  0
   -7.6811    1.2485    0.3726 C   0  0  0  0  0  0  0  0  0  0  0  0
   -5.4941   -0.5210   -1.0801 C   0  0  0  0  0  0  0  0  0  0  0  0
   -6.5330   -0.7834   -1.9354 O   0  0  0  0  0  0  0  0  0  0  0  0
   -6.2201   -1.3557   -3.1968 C   0  0  0  0  0  0  0  0  0  0  0  0
   -4.1402   -0.6072   -1.4157 C   0  0  0  0  0  0  0  0  0  0  0  0
    2.8145   -0.8591   -1.2758 C   0  0  0  0  0  0  0  0  0  0  0  0
    4.1773   -0.6128   -1.0649 C   0  0  0  0  0  0  0  0  0  0  0  0
    4.5011    0.3767   -0.1661 C   0  0  0  0  0  0  0  0  0  0  0  0
    8.8429   -1.6499   -0.6480 H   0  0  0  0  0  0  0  0  0  0  0  0
    9.1129   -2.1483    1.0309 H   0  0  0  0  0  0  0  0  0  0  0  0
    9.5757   -0.5198    0.5078 H   0  0  0  0  0  0  0  0  0  0  0  0
    6.7219   -1.6253    0.6845 H   0  0  0  0  0  0  0  0  0  0  0  0
    7.4463   -0.5029    1.8293 H   0  0  0  0  0  0  0  0  0  0  0  0
    7.7329    1.1901    0.0131 H   0  0  0  0  0  0  0  0  0  0  0  0
    7.0066    0.0901   -1.1608 H   0  0  0  0  0  0  0  0  0  0  0  0
    1.4708    1.4747    0.8600 H   0  0  0  0  0  0  0  0  0  0  0  0
    0.3316   -1.2055   -1.5394 H   0  0  0  0  0  0  0  0  0  0  0  0
   -1.6620   -0.6985   -1.8561 H   0  0  0  0  0  0  0  0  0  0  0  0
   -2.7503    0.2573    1.5653 H   0  0  0  0  0  0  0  0  0  0  0  0
   -4.8861    1.0655    4.3438 H   0  0  0  0  0  0  0  0  0  0  0  0
   -3.7392    1.6624    3.1395 H   0  0  0  0  0  0  0  0  0  0  0  0
   -3.7316   -0.0743    3.6436 H   0  0  0  0  0  0  0  0  0  0  0  0
   -7.5931    1.5595   -0.6742 H   0  0  0  0  0  0  0  0  0  0  0  0
   -7.1776    1.9697    1.0253 H   0  0  0  0  0  0  0  0  0  0  0  0
   -8.7435    1.2428    0.6340 H   0  0  0  0  0  0  0  0  0  0  0  0
   -5.6644   -0.6483   -3.8208 H   0  0  0  0  0  0  0  0  0  0  0  0
   -5.6726   -2.2972   -3.0822 H   0  0  0  0  0  0  0  0  0  0  0  0
   -7.1624   -1.5789   -3.7064 H   0  0  0  0  0  0  0  0  0  0  0  0
   -3.8430   -0.8985   -2.4165 H   0  0  0  0  0  0  0  0  0  0  0  0
    2.5371   -1.6366   -1.9844 H   0  0  0  0  0  0  0  0  0  0  0  0
    4.9328   -1.1817   -1.5931 H   0  0  0  0  0  0  0  0  0  0  0  0
  1  2  1  0
  2  3  1  0
  3  4  1  0
  4  5  1  0
  5  6  2  0
  5  7  1  0
  7  8  1  0
  8  9  2  0
  9 10  1  0
 10 11  1  0
 11 12  1  0
 12 13  2  0
 12 14  1  0
 14 15  1  0
 15 16  2  0
 16 17  1  0
 17 18  1  0
 18 19  1  0
 17 20  2  0
 20 21  1  0
 21 22  1  0
 20 23  1  0
 23 24  1  0
 24 25  1  0
 23 26  2  0
 10 27  2  0
 27 28  1  0
 28 29  2  0
 29  4  1  0
 29  8  1  0
 26 15  1  0
  1 30  1  0
  1 31  1  0
  1 32  1  0
  2 33  1  0
  2 34  1  0
  3 35  1  0
  3 36  1  0
  9 37  1  0
 11 38  1  0
 14 39  1  0
 16 40  1  0
 19 41  1  0
 19 42  1  0
 19 43  1  0
 22 44  1  0
 22 45  1  0
 22 46  1  0
 25 47  1  0
 25 48  1  0
 25 49  1  0
 26 50  1  0
 27 51  1  0
 28 52  1  0
M  END
$$$$
