
     RDKit          3D

 49 52  0  0  0  0  0  0  0  0999 V2000
   -2.6450   -3.8722   -2.8216 C   0  0  0  0  0  0  0  0  0  0  0  0
   -2.0218   -2.7706   -2.0151 C   0  0  0  0  0  0  0  0  0  0  0  0
   -0.6920   -2.3986   -2.2594 C   0  0  0  0  0  0  0  0  0  0  0  0
   -0.1068   -1.3902   -1.5099 C   0  0  0  0  0  0  0  0  0  0  0  0
    1.2049   -1.0992   -1.8344 O   0  0  0  0  0  0  0  0  0  0  0  0
    1.7526   -0.0426   -1.0549 C   0  0  0  0  0  0  0  0  0  0  0  0
    3.2007    0.2481   -1.4641 C   0  0  0  0  0  0  0  0  0  0  0  0
    3.7265   -0.2927   -2.4384 O   0  0  0  0  0  0  0  0  0  0  0  0
    3.8970    1.1580   -0.6757 N   0  0  0  0  0  0  0  0  0  0  0  0
    3.3452    1.8638    0.4846 C   0  0  0  0  0  0  0  0  0  0  0  0
    4.1513    3.1283    0.7981 C   0  0  0  0  0  0  0  0  0  0  0  0
    5.5374    2.8705    1.0524 O   0  0  0  0  0  0  0  0  0  0  0  0
    6.0741    1.7602    0.3171 C   0  0  0  0  0  0  0  0  0  0  0  0
    5.3058    1.4325   -0.9668 C   0  0  0  0  0  0  0  0  0  0  0  0
   -0.7098   -0.7040   -0.5202 N   0  0  0  0  0  0  0  0  0  0  0  0
   -1.9888   -1.0838   -0.2863 C   0  0  0  0  0  0  0  0  0  0  0  0
   -2.6813   -2.0802   -0.9725 C   0  0  0  0  0  0  0  0  0  0  0  0
   -3.9592   -2.1129   -0.3619 C   0  0  0  0  0  0  0  0  0  0  0  0
   -5.1104   -2.9931   -0.6839 C   0  0  0  0  0  0  0  0  0  0  0  0
   -4.0766   -1.2138    0.6174 N   0  0  0  0  0  0  0  0  0  0  0  0
   -2.8695   -0.5762    0.6697 N   0  0  0  0  0  0  0  0  0  0  0  0
   -2.6682    0.4620    1.6339 C   0  0  0  0  0  0  0  0  0  0  0  0
   -1.4570    1.1576    1.7399 C   0  0  0  0  0  0  0  0  0  0  0  0
   -1.3019    2.1661    2.6976 C   0  0  0  0  0  0  0  0  0  0  0  0
   -2.3504    2.4894    3.5557 C   0  0  0  0  0  0  0  0  0  0  0  0
   -3.5590    1.8060    3.4602 C   0  0  0  0  0  0  0  0  0  0  0  0
   -3.7192    0.7982    2.5059 C   0  0  0  0  0  0  0  0  0  0  0  0
   -3.6453   -3.5828   -3.1568 H   0  0  0  0  0  0  0  0  0  0  0  0
   -2.0548   -4.0980   -3.7159 H   0  0  0  0  0  0  0  0  0  0  0  0
   -2.7168   -4.7817   -2.2174 H   0  0  0  0  0  0  0  0  0  0  0  0
   -0.1087   -2.8886   -3.0341 H   0  0  0  0  0  0  0  0  0  0  0  0
    1.7548   -0.3265    0.0044 H   0  0  0  0  0  0  0  0  0  0  0  0
    1.1776    0.8765   -1.2208 H   0  0  0  0  0  0  0  0  0  0  0  0
    3.3959    1.1654    1.3277 H   0  0  0  0  0  0  0  0  0  0  0  0
    2.2968    2.1188    0.3083 H   0  0  0  0  0  0  0  0  0  0  0  0
    3.7410    3.6292    1.6805 H   0  0  0  0  0  0  0  0  0  0  0  0
    4.0916    3.8357   -0.0373 H   0  0  0  0  0  0  0  0  0  0  0  0
    7.1188    1.9913    0.0865 H   0  0  0  0  0  0  0  0  0  0  0  0
    6.0704    0.8939    0.9889 H   0  0  0  0  0  0  0  0  0  0  0  0
    5.7669    0.5818   -1.4784 H   0  0  0  0  0  0  0  0  0  0  0  0
    5.3225    2.2915   -1.6476 H   0  0  0  0  0  0  0  0  0  0  0  0
   -5.5034   -2.7579   -1.6779 H   0  0  0  0  0  0  0  0  0  0  0  0
   -5.9253   -2.8701    0.0374 H   0  0  0  0  0  0  0  0  0  0  0  0
   -4.8077   -4.0448   -0.6669 H   0  0  0  0  0  0  0  0  0  0  0  0
   -0.6110    0.9459    1.0968 H   0  0  0  0  0  0  0  0  0  0  0  0
   -0.3586    2.7007    2.7732 H   0  0  0  0  0  0  0  0  0  0  0  0
   -2.2261    3.2732    4.2984 H   0  0  0  0  0  0  0  0  0  0  0  0
   -4.3805    2.0544    4.1274 H   0  0  0  0  0  0  0  0  0  0  0  0
   -4.6765    0.2817    2.4560 H   0  0  0  0  0  0  0  0  0  0  0  0
  1  2  1  0
  2  3  2  0
  3  4  1  0
  4  5  1  0
  5  6  1  0
  6  7  1  0
  7  8  2  0
  7  9  1  0
  9 10  1  0
 10 11  1  0
 11 12  1  0
 12 13  1  0
 13 14  1  0
  4 15  2  0
 15 16  1  0
 16 17  2  0
 17 18  1  0
 18 19  1  0
 18 20  2  0
 20 21  1  0
 21 22  1  0
 22 23  2  0
 23 24  1  0
 24 25  2  0
 25 26  1  0
 26 27  2  0
 17  2  1  0
 27 22  1  0
 14  9  1  0
 21 16  1  0
  1 28  1  0
  1 29  1  0
  1 30  1  0
  3 31  1  0
  6 32  1  0
  6 33  1  0
 10 34  1  0
 10 35  1  0
 11 36  1  0
 11 37  1  0
 13 38  1  0
 13 39  1  0
 14 40  1  0
 14 41  1  0
 19 42  1  0
 19 43  1  0
 19 44  1  0
 23 45  1  0
 24 46  1  0
 25 47  1  0
 26 48  1  0
 27 49  1  0
M  END
$$$$
