
     RDKit          3D

 55 60  0  0  0  0  0  0  0  0999 V2000
   -4.9745   -0.4938    3.1796 O   0  0  0  0  0  0  0  0  0  0  0  0
   -4.5191   -0.5061    2.0389 C   0  0  0  0  0  0  0  0  0  0  0  0
   -5.4342   -0.1507    0.9301 C   0  0  0  0  0  0  0  0  0  0  0  0
   -6.1830    1.0410    1.0335 C   0  0  0  0  0  0  0  0  0  0  0  0
   -7.0721    1.4067    0.0187 C   0  0  0  0  0  0  0  0  0  0  0  0
   -7.1931    0.5576   -1.0611 C   0  0  0  0  0  0  0  0  0  0  0  0
   -6.4759   -0.6139   -1.1505 C   0  0  0  0  0  0  0  0  0  0  0  0
   -5.5936   -1.0065   -0.1674 C   0  0  0  0  0  0  0  0  0  0  0  0
   -6.7462   -1.3015   -2.2930 O   0  0  0  0  0  0  0  0  0  0  0  0
   -7.7368   -0.4443   -2.8993 C   0  0  0  0  0  0  0  0  0  0  0  0
   -8.0058    0.7497   -2.1344 O   0  0  0  0  0  0  0  0  0  0  0  0
   -3.2000   -0.8344    1.7468 N   0  0  0  0  0  0  0  0  0  0  0  0
   -2.5255   -0.5571    0.4728 C   0  0  0  0  0  0  0  0  0  0  0  0
   -1.0281   -0.2384    0.6570 C   0  0  0  0  0  0  0  0  0  0  0  0
   -0.2597   -1.2445    1.4121 N   0  0  0  0  0  0  0  0  0  0  0  0
    0.5491   -2.1360    0.5667 C   0  0  0  0  0  0  0  0  0  0  0  0
    1.7332   -1.4448   -0.1005 C   0  0  0  0  0  0  0  0  0  0  0  0
    1.8118   -1.3692   -1.4404 C   0  0  0  0  0  0  0  0  0  0  0  0
    2.9582   -0.6784   -2.0710 C   0  0  0  0  0  0  0  0  0  0  0  0
    3.0114   -0.5955   -3.2946 O   0  0  0  0  0  0  0  0  0  0  0  0
    3.8684   -0.1817   -1.1659 N   0  0  0  0  0  0  0  0  0  0  0  0
    4.9952    0.4981   -1.5643 N   0  0  0  0  0  0  0  0  0  0  0  0
    5.6834    0.8440   -0.5174 C   0  0  0  0  0  0  0  0  0  0  0  0
    6.9351    1.6195   -0.6155 C   0  0  0  0  0  0  0  0  0  0  0  0
    7.1170    2.4361   -1.7438 C   0  0  0  0  0  0  0  0  0  0  0  0
    8.2815    3.1956   -1.8899 C   0  0  0  0  0  0  0  0  0  0  0  0
    9.2775    3.1403   -0.9163 C   0  0  0  0  0  0  0  0  0  0  0  0
    9.1117    2.3197    0.1990 C   0  0  0  0  0  0  0  0  0  0  0  0
    7.9489    1.5636    0.3429 C   0  0  0  0  0  0  0  0  0  0  0  0
    7.8625    0.7589    1.4111 F   0  0  0  0  0  0  0  0  0  0  0  0
    5.0058    0.3906    1.0332 S   0  0  0  0  0  0  0  0  0  0  0  0
    3.6893   -0.3396    0.1804 C   0  0  0  0  0  0  0  0  0  0  0  0
    2.6989   -0.9377    0.7483 N   0  0  0  0  0  0  0  0  0  0  0  0
   -1.1063   -2.0264    2.3366 C   0  0  0  0  0  0  0  0  0  0  0  0
   -2.3345   -1.2567    2.8491 C   0  0  0  0  0  0  0  0  0  0  0  0
   -6.0703    1.6753    1.9107 H   0  0  0  0  0  0  0  0  0  0  0  0
   -7.6548    2.3198    0.0827 H   0  0  0  0  0  0  0  0  0  0  0  0
   -5.0621   -1.9471   -0.2403 H   0  0  0  0  0  0  0  0  0  0  0  0
   -7.3843   -0.1517   -3.8965 H   0  0  0  0  0  0  0  0  0  0  0  0
   -8.6700   -1.0094   -3.0076 H   0  0  0  0  0  0  0  0  0  0  0  0
   -2.6365   -1.4485   -0.1541 H   0  0  0  0  0  0  0  0  0  0  0  0
   -3.0130    0.2820   -0.0324 H   0  0  0  0  0  0  0  0  0  0  0  0
   -0.9536    0.7013    1.2212 H   0  0  0  0  0  0  0  0  0  0  0  0
   -0.5836   -0.0254   -0.3220 H   0  0  0  0  0  0  0  0  0  0  0  0
   -0.0892   -2.6285   -0.1799 H   0  0  0  0  0  0  0  0  0  0  0  0
    0.9716   -2.9405    1.1850 H   0  0  0  0  0  0  0  0  0  0  0  0
    1.0632   -1.7735   -2.1087 H   0  0  0  0  0  0  0  0  0  0  0  0
    6.3517    2.4906   -2.5170 H   0  0  0  0  0  0  0  0  0  0  0  0
    8.4105    3.8273   -2.7664 H   0  0  0  0  0  0  0  0  0  0  0  0
   10.1853    3.7283   -1.0304 H   0  0  0  0  0  0  0  0  0  0  0  0
    9.8872    2.2564    0.9574 H   0  0  0  0  0  0  0  0  0  0  0  0
   -0.4966   -2.3438    3.1908 H   0  0  0  0  0  0  0  0  0  0  0  0
   -1.4698   -2.9361    1.8381 H   0  0  0  0  0  0  0  0  0  0  0  0
   -2.9085   -1.8839    3.5405 H   0  0  0  0  0  0  0  0  0  0  0  0
   -2.0281   -0.3570    3.3966 H   0  0  0  0  0  0  0  0  0  0  0  0
  1  2  2  0
  2  3  1  0
  3  4  2  0
  4  5  1  0
  5  6  2  0
  6  7  1  0
  7  8  2  0
  7  9  1  0
  9 10  1  0
 10 11  1  0
  2 12  1  0
 12 13  1  0
 13 14  1  0
 14 15  1  0
 15 16  1  0
 16 17  1  0
 17 18  2  0
 18 19  1  0
 19 20  2  0
 19 21  1  0
 21 22  1  0
 22 23  2  0
 23 24  1  0
 24 25  2  0
 25 26  1  0
 26 27  2  0
 27 28  1  0
 28 29  2  0
 29 30  1  0
 23 31  1  0
 31 32  1  0
 32 33  2  0
 15 34  1  0
 34 35  1  0
  8  3  1  0
 35 12  1  0
 11  6  1  0
 33 17  1  0
 32 21  1  0
 29 24  1  0
  4 36  1  0
  5 37  1  0
  8 38  1  0
 10 39  1  0
 10 40  1  0
 13 41  1  0
 13 42  1  0
 14 43  1  0
 14 44  1  0
 16 45  1  0
 16 46  1  0
 18 47  1  0
 25 48  1  0
 26 49  1  0
 27 50  1  0
 28 51  1  0
 34 52  1  0
 34 53  1  0
 35 54  1  0
 35 55  1  0
M  END
$$$$
