
     RDKit          3D

 54 56  0  0  0  0  0  0  0  0999 V2000
    6.8602    0.6084   -2.5437 C   0  0  0  0  0  0  0  0  0  0  0  0
    7.0053    0.9493   -1.0618 C   0  0  0  0  0  0  0  0  0  0  0  0
    7.9613   -0.0190   -0.3679 C   0  0  0  0  0  0  0  0  0  0  0  0
    5.6754    0.9693   -0.3830 C   0  0  0  0  0  0  0  0  0  0  0  0
    5.0779    1.9845    0.2122 N   0  0  0  0  0  0  0  0  0  0  0  0
    3.8981    1.4501    0.6610 C   0  0  0  0  0  0  0  0  0  0  0  0
    2.8405    2.0226    1.3767 C   0  0  0  0  0  0  0  0  0  0  0  0
    1.7449    1.2051    1.6990 C   0  0  0  0  0  0  0  0  0  0  0  0
    1.6987   -0.1471    1.3093 C   0  0  0  0  0  0  0  0  0  0  0  0
    0.4984   -0.9406    1.6947 C   0  0  0  0  0  0  0  0  0  0  0  0
   -0.1459   -0.6305    2.6897 O   0  0  0  0  0  0  0  0  0  0  0  0
    0.1560   -1.9820    0.8578 N   0  0  0  0  0  0  0  0  0  0  0  0
   -1.0188   -2.8007    1.0916 C   0  0  0  0  0  0  0  0  0  0  0  0
   -2.2390   -2.3247    0.3026 C   0  0  0  0  0  0  0  0  0  0  0  0
   -2.8237   -1.0153    0.8498 C   0  0  0  0  0  0  0  0  0  0  0  0
   -4.1040   -0.6693    0.2036 N   0  0  0  0  0  0  0  0  0  0  0  0
   -3.9201   -0.1659   -1.1652 C   0  0  0  0  0  0  0  0  0  0  0  0
   -5.2615    0.0712   -1.8612 C   0  0  0  0  0  0  0  0  0  0  0  0
   -6.1660    0.9896   -1.0514 C   0  0  0  0  0  0  0  0  0  0  0  0
   -6.2875    0.4806    0.3805 C   0  0  0  0  0  0  0  0  0  0  0  0
   -4.9159    0.2441    1.0399 C   0  0  0  0  0  0  0  0  0  0  0  0
   -4.2389    1.5771    1.3982 C   0  0  0  0  0  0  0  0  0  0  0  0
    2.7616   -0.7347    0.6035 C   0  0  0  0  0  0  0  0  0  0  0  0
    3.8236    0.1127    0.3087 C   0  0  0  0  0  0  0  0  0  0  0  0
    4.9670   -0.2060   -0.3635 O   0  0  0  0  0  0  0  0  0  0  0  0
    7.8307    0.6548   -3.0491 H   0  0  0  0  0  0  0  0  0  0  0  0
    6.1867    1.3135   -3.0437 H   0  0  0  0  0  0  0  0  0  0  0  0
    6.4528   -0.3986   -2.6889 H   0  0  0  0  0  0  0  0  0  0  0  0
    7.4347    1.9566   -0.9887 H   0  0  0  0  0  0  0  0  0  0  0  0
    8.9527    0.0155   -0.8321 H   0  0  0  0  0  0  0  0  0  0  0  0
    8.0770    0.2364    0.6914 H   0  0  0  0  0  0  0  0  0  0  0  0
    7.6001   -1.0523   -0.4220 H   0  0  0  0  0  0  0  0  0  0  0  0
    2.8736    3.0647    1.6748 H   0  0  0  0  0  0  0  0  0  0  0  0
    0.9156    1.6334    2.2620 H   0  0  0  0  0  0  0  0  0  0  0  0
    0.6270   -2.0881   -0.0301 H   0  0  0  0  0  0  0  0  0  0  0  0
   -0.7535   -3.8125    0.7665 H   0  0  0  0  0  0  0  0  0  0  0  0
   -1.2384   -2.8425    2.1639 H   0  0  0  0  0  0  0  0  0  0  0  0
   -1.9618   -2.2157   -0.7518 H   0  0  0  0  0  0  0  0  0  0  0  0
   -3.0066   -3.1070    0.3569 H   0  0  0  0  0  0  0  0  0  0  0  0
   -2.1029   -0.1974    0.7364 H   0  0  0  0  0  0  0  0  0  0  0  0
   -2.9887   -1.1575    1.9256 H   0  0  0  0  0  0  0  0  0  0  0  0
   -3.3284    0.7575   -1.1732 H   0  0  0  0  0  0  0  0  0  0  0  0
   -3.3714   -0.8949   -1.7709 H   0  0  0  0  0  0  0  0  0  0  0  0
   -5.0916    0.5022   -2.8544 H   0  0  0  0  0  0  0  0  0  0  0  0
   -5.7662   -0.8913   -2.0151 H   0  0  0  0  0  0  0  0  0  0  0  0
   -5.7612    2.0081   -1.0566 H   0  0  0  0  0  0  0  0  0  0  0  0
   -7.1575    1.0400   -1.5149 H   0  0  0  0  0  0  0  0  0  0  0  0
   -6.8476   -0.4642    0.3736 H   0  0  0  0  0  0  0  0  0  0  0  0
   -6.8802    1.1871    0.9737 H   0  0  0  0  0  0  0  0  0  0  0  0
   -5.1227   -0.2710    1.9880 H   0  0  0  0  0  0  0  0  0  0  0  0
   -4.9102    2.1914    2.0087 H   0  0  0  0  0  0  0  0  0  0  0  0
   -3.3294    1.4181    1.9866 H   0  0  0  0  0  0  0  0  0  0  0  0
   -3.9701    2.1633    0.5147 H   0  0  0  0  0  0  0  0  0  0  0  0
    2.7897   -1.7787    0.3235 H   0  0  0  0  0  0  0  0  0  0  0  0
  1  2  1  0
  2  3  1  0
  2  4  1  0
  4  5  2  0
  5  6  1  0
  6  7  2  0
  7  8  1  0
  8  9  2  0
  9 10  1  0
 10 11  2  0
 10 12  1  0
 12 13  1  0
 13 14  1  0
 14 15  1  0
 15 16  1  0
 16 17  1  0
 17 18  1  0
 18 19  1  0
 19 20  1  0
 20 21  1  0
 21 22  1  0
  9 23  1  0
 23 24  2  0
 24 25  1  0
 25  4  1  0
 24  6  1  0
 21 16  1  0
  1 26  1  0
  1 27  1  0
  1 28  1  0
  2 29  1  0
  3 30  1  0
  3 31  1  0
  3 32  1  0
  7 33  1  0
  8 34  1  0
 12 35  1  0
 13 36  1  0
 13 37  1  0
 14 38  1  0
 14 39  1  0
 15 40  1  0
 15 41  1  0
 17 42  1  0
 17 43  1  0
 18 44  1  0
 18 45  1  0
 19 46  1  0
 19 47  1  0
 20 48  1  0
 20 49  1  0
 21 50  1  0
 22 51  1  0
 22 52  1  0
 22 53  1  0
 23 54  1  0
M  END
$$$$
