
     RDKit          3D

 47 49  0  0  0  0  0  0  0  0999 V2000
   -2.4934    3.4277   -0.3299 C   0  0  0  0  0  0  0  0  0  0  0  0
   -3.2267    2.3773    0.4856 C   0  0  0  0  0  0  0  0  0  0  0  0
   -4.1644    1.5523   -0.3842 C   0  0  0  0  0  0  0  0  0  0  0  0
   -5.0487    2.1397   -1.0190 O   0  0  0  0  0  0  0  0  0  0  0  0
   -4.1091    0.1571   -0.3333 N   0  0  0  0  0  0  0  0  0  0  0  0
   -5.3854   -0.5118   -0.6066 C   0  0  0  0  0  0  0  0  0  0  0  0
   -5.3569   -2.0320   -0.5810 C   0  0  0  0  0  0  0  0  0  0  0  0
   -4.5679   -2.5082    0.6239 C   0  0  0  0  0  0  0  0  0  0  0  0
   -3.1784   -1.9449    0.5156 C   0  0  0  0  0  0  0  0  0  0  0  0
   -2.0827   -2.7211    0.9140 C   0  0  0  0  0  0  0  0  0  0  0  0
   -0.7806   -2.2418    0.7652 C   0  0  0  0  0  0  0  0  0  0  0  0
   -0.5556   -0.9907    0.1996 C   0  0  0  0  0  0  0  0  0  0  0  0
    0.7271   -0.4474   -0.0338 N   0  0  0  0  0  0  0  0  0  0  0  0
    1.9592   -1.0279    0.2568 C   0  0  0  0  0  0  0  0  0  0  0  0
    2.1313   -2.1236    0.7798 O   0  0  0  0  0  0  0  0  0  0  0  0
    3.1234   -0.1172   -0.1619 C   0  0  0  0  0  0  0  0  0  0  0  0
    4.3801   -0.6944    0.1534 O   0  0  0  0  0  0  0  0  0  0  0  0
    5.4980    0.0225   -0.1700 C   0  0  0  0  0  0  0  0  0  0  0  0
    5.5252    1.2731   -0.7894 C   0  0  0  0  0  0  0  0  0  0  0  0
    6.7486    1.8941   -1.0624 C   0  0  0  0  0  0  0  0  0  0  0  0
    7.9464    1.2697   -0.7186 C   0  0  0  0  0  0  0  0  0  0  0  0
    7.9243    0.0220   -0.1008 C   0  0  0  0  0  0  0  0  0  0  0  0
    6.7033   -0.5969    0.1712 C   0  0  0  0  0  0  0  0  0  0  0  0
   -1.6602   -0.2086   -0.1763 C   0  0  0  0  0  0  0  0  0  0  0  0
   -2.9790   -0.6447    0.0220 C   0  0  0  0  0  0  0  0  0  0  0  0
   -3.1969    4.1220   -0.8014 H   0  0  0  0  0  0  0  0  0  0  0  0
   -1.8248    4.0092    0.3121 H   0  0  0  0  0  0  0  0  0  0  0  0
   -1.8973    2.9723   -1.1264 H   0  0  0  0  0  0  0  0  0  0  0  0
   -2.5321    1.7774    1.0725 H   0  0  0  0  0  0  0  0  0  0  0  0
   -3.8598    2.8811    1.2275 H   0  0  0  0  0  0  0  0  0  0  0  0
   -6.1021   -0.1475    0.1416 H   0  0  0  0  0  0  0  0  0  0  0  0
   -5.7546   -0.1766   -1.5839 H   0  0  0  0  0  0  0  0  0  0  0  0
   -6.3788   -2.4260   -0.5535 H   0  0  0  0  0  0  0  0  0  0  0  0
   -4.8934   -2.4052   -1.5040 H   0  0  0  0  0  0  0  0  0  0  0  0
   -5.0284   -2.1744    1.5609 H   0  0  0  0  0  0  0  0  0  0  0  0
   -4.5453   -3.6039    0.6289 H   0  0  0  0  0  0  0  0  0  0  0  0
   -2.2322   -3.7166    1.3275 H   0  0  0  0  0  0  0  0  0  0  0  0
    0.0339   -2.8867    1.0804 H   0  0  0  0  0  0  0  0  0  0  0  0
    0.7456    0.4691   -0.4626 H   0  0  0  0  0  0  0  0  0  0  0  0
    3.0417    0.0361   -1.2450 H   0  0  0  0  0  0  0  0  0  0  0  0
    3.0026    0.8328    0.3731 H   0  0  0  0  0  0  0  0  0  0  0  0
    4.6186    1.7943   -1.0744 H   0  0  0  0  0  0  0  0  0  0  0  0
    6.7668    2.8681   -1.5451 H   0  0  0  0  0  0  0  0  0  0  0  0
    8.8956    1.7544   -0.9320 H   0  0  0  0  0  0  0  0  0  0  0  0
    8.8541   -0.4710    0.1699 H   0  0  0  0  0  0  0  0  0  0  0  0
    6.6888   -1.5717    0.6537 H   0  0  0  0  0  0  0  0  0  0  0  0
   -1.4798    0.7388   -0.6709 H   0  0  0  0  0  0  0  0  0  0  0  0
  1  2  1  0
  2  3  1  0
  3  4  2  0
  3  5  1  0
  5  6  1  0
  6  7  1  0
  7  8  1  0
  8  9  1  0
  9 10  2  0
 10 11  1  0
 11 12  2  0
 12 13  1  0
 13 14  1  0
 14 15  2  0
 14 16  1  0
 16 17  1  0
 17 18  1  0
 18 19  2  0
 19 20  1  0
 20 21  2  0
 21 22  1  0
 22 23  2  0
 12 24  1  0
 24 25  2  0
 25  5  1  0
 25  9  1  0
 23 18  1  0
  1 26  1  0
  1 27  1  0
  1 28  1  0
  2 29  1  0
  2 30  1  0
  6 31  1  0
  6 32  1  0
  7 33  1  0
  7 34  1  0
  8 35  1  0
  8 36  1  0
 10 37  1  0
 11 38  1  0
 13 39  1  0
 16 40  1  0
 16 41  1  0
 19 42  1  0
 20 43  1  0
 21 44  1  0
 22 45  1  0
 23 46  1  0
 24 47  1  0
M  END
$$$$
