
     RDKit          3D

 50 52  0  0  0  0  0  0  0  0999 V2000
    7.7412   -0.7795   -0.6242 C   0  0  0  0  0  0  0  0  0  0  0  0
    6.5742   -0.9624    0.3262 C   0  0  0  0  0  0  0  0  0  0  0  0
    5.3790   -0.5977   -0.3588 O   0  0  0  0  0  0  0  0  0  0  0  0
    4.2004   -0.7500    0.4335 C   0  0  0  0  0  0  0  0  0  0  0  0
    3.9814    0.4608    1.3378 C   0  0  0  0  0  0  0  0  0  0  0  0
    2.7068    0.3453    2.1690 C   0  0  0  0  0  0  0  0  0  0  0  0
    1.5059    0.3502    1.3629 N   0  0  0  0  0  0  0  0  0  0  0  0
    0.9540    1.5004    0.8592 C   0  0  0  0  0  0  0  0  0  0  0  0
    1.4059    2.6154    1.1099 O   0  0  0  0  0  0  0  0  0  0  0  0
   -0.2416    1.3170   -0.0272 C   0  0  0  0  0  0  0  0  0  0  0  0
   -0.7982    2.4333   -0.5247 C   0  0  0  0  0  0  0  0  0  0  0  0
   -1.9614    2.3609   -1.3976 C   0  0  0  0  0  0  0  0  0  0  0  0
   -2.5335    3.5208   -1.9265 C   0  0  0  0  0  0  0  0  0  0  0  0
   -3.6416    3.4196   -2.7590 C   0  0  0  0  0  0  0  0  0  0  0  0
   -4.1348    2.1579   -3.0330 C   0  0  0  0  0  0  0  0  0  0  0  0
   -3.6028    1.0190   -2.5370 N   0  0  0  0  0  0  0  0  0  0  0  0
   -2.5269    1.1265   -1.7208 C   0  0  0  0  0  0  0  0  0  0  0  0
   -1.9442   -0.0495   -1.1868 N   0  0  0  0  0  0  0  0  0  0  0  0
   -2.5725   -1.3330   -1.4841 C   0  0  0  0  0  0  0  0  0  0  0  0
   -3.6520   -1.6994   -0.4839 C   0  0  0  0  0  0  0  0  0  0  0  0
   -5.0016   -1.4264   -0.7608 C   0  0  0  0  0  0  0  0  0  0  0  0
   -5.9946   -1.7456    0.1668 C   0  0  0  0  0  0  0  0  0  0  0  0
   -5.6405   -2.3375    1.3726 C   0  0  0  0  0  0  0  0  0  0  0  0
   -6.5939   -2.6420    2.2632 F   0  0  0  0  0  0  0  0  0  0  0  0
   -4.3117   -2.6139    1.6703 C   0  0  0  0  0  0  0  0  0  0  0  0
   -3.3174   -2.2939    0.7443 C   0  0  0  0  0  0  0  0  0  0  0  0
   -0.8225   -0.0178   -0.3721 C   0  0  0  0  0  0  0  0  0  0  0  0
   -0.2921   -1.0403    0.0710 O   0  0  0  0  0  0  0  0  0  0  0  0
    8.6841   -1.0523   -0.1419 H   0  0  0  0  0  0  0  0  0  0  0  0
    7.8041    0.2608   -0.9597 H   0  0  0  0  0  0  0  0  0  0  0  0
    7.6105   -1.3957   -1.5198 H   0  0  0  0  0  0  0  0  0  0  0  0
    6.7175   -0.3298    1.2074 H   0  0  0  0  0  0  0  0  0  0  0  0
    6.5145   -2.0097    0.6422 H   0  0  0  0  0  0  0  0  0  0  0  0
    4.2424   -1.6827    1.0076 H   0  0  0  0  0  0  0  0  0  0  0  0
    3.3659   -0.8395   -0.2697 H   0  0  0  0  0  0  0  0  0  0  0  0
    3.9656    1.3708    0.7258 H   0  0  0  0  0  0  0  0  0  0  0  0
    4.8330    0.5728    2.0180 H   0  0  0  0  0  0  0  0  0  0  0  0
    2.6544    1.1839    2.8724 H   0  0  0  0  0  0  0  0  0  0  0  0
    2.7065   -0.5823    2.7509 H   0  0  0  0  0  0  0  0  0  0  0  0
    1.0980   -0.5426    1.0812 H   0  0  0  0  0  0  0  0  0  0  0  0
   -0.3986    3.4168   -0.2929 H   0  0  0  0  0  0  0  0  0  0  0  0
   -2.1241    4.5016   -1.6967 H   0  0  0  0  0  0  0  0  0  0  0  0
   -4.1071    4.3025   -3.1837 H   0  0  0  0  0  0  0  0  0  0  0  0
   -4.9977    2.0231   -3.6796 H   0  0  0  0  0  0  0  0  0  0  0  0
   -2.9684   -1.3437   -2.5073 H   0  0  0  0  0  0  0  0  0  0  0  0
   -1.8097   -2.1224   -1.4743 H   0  0  0  0  0  0  0  0  0  0  0  0
   -5.2828   -0.9569   -1.7018 H   0  0  0  0  0  0  0  0  0  0  0  0
   -7.0377   -1.5321   -0.0423 H   0  0  0  0  0  0  0  0  0  0  0  0
   -4.0574   -3.0722    2.6205 H   0  0  0  0  0  0  0  0  0  0  0  0
   -2.2778   -2.5084    0.9864 H   0  0  0  0  0  0  0  0  0  0  0  0
  1  2  1  0
  2  3  1  0
  3  4  1  0
  4  5  1  0
  5  6  1  0
  6  7  1  0
  7  8  1  0
  8  9  2  0
  8 10  1  0
 10 11  2  0
 11 12  1  0
 12 13  2  0
 13 14  1  0
 14 15  2  0
 15 16  1  0
 16 17  2  0
 17 18  1  0
 18 19  1  0
 19 20  1  0
 20 21  2  0
 21 22  1  0
 22 23  2  0
 23 24  1  0
 23 25  1  0
 25 26  2  0
 18 27  1  0
 27 28  2  0
 27 10  1  0
 17 12  1  0
 26 20  1  0
  1 29  1  0
  1 30  1  0
  1 31  1  0
  2 32  1  0
  2 33  1  0
  4 34  1  0
  4 35  1  0
  5 36  1  0
  5 37  1  0
  6 38  1  0
  6 39  1  0
  7 40  1  0
 11 41  1  0
 13 42  1  0
 14 43  1  0
 15 44  1  0
 19 45  1  0
 19 46  1  0
 21 47  1  0
 22 48  1  0
 25 49  1  0
 26 50  1  0
M  END
$$$$
