
     RDKit          3D

 37 39  0  0  0  0  0  0  0  0999 V2000
    7.2791   -0.9248    0.1914 C   0  0  0  0  0  0  0  0  0  0  0  0
    5.8185   -0.8272    0.3509 C   0  0  0  0  0  0  0  0  0  0  0  0
    4.8330   -0.0727   -0.2348 C   0  0  0  0  0  0  0  0  0  0  0  0
    3.6368   -0.4896    0.3990 C   0  0  0  0  0  0  0  0  0  0  0  0
    2.3941    0.0267    0.0931 N   0  0  0  0  0  0  0  0  0  0  0  0
    1.2265   -0.3062    0.7465 C   0  0  0  0  0  0  0  0  0  0  0  0
    1.0831   -1.0589    1.6987 O   0  0  0  0  0  0  0  0  0  0  0  0
   -0.0158    0.3821    0.1864 C   0  0  0  0  0  0  0  0  0  0  0  0
   -1.1366   -0.2669    0.2550 N   0  0  0  0  0  0  0  0  0  0  0  0
   -2.3046    0.3140   -0.1986 N   0  0  0  0  0  0  0  0  0  0  0  0
   -3.4341   -0.5896   -0.1495 C   0  0  0  0  0  0  0  0  0  0  0  0
   -3.2757   -1.8862    0.3849 C   0  0  0  0  0  0  0  0  0  0  0  0
   -4.3377   -2.7960    0.4502 C   0  0  0  0  0  0  0  0  0  0  0  0
   -5.5922   -2.4339   -0.0213 C   0  0  0  0  0  0  0  0  0  0  0  0
   -5.7793   -1.1650   -0.5562 C   0  0  0  0  0  0  0  0  0  0  0  0
   -4.7131   -0.2556   -0.6196 C   0  0  0  0  0  0  0  0  0  0  0  0
   -2.3806    1.6624   -0.6113 C   0  0  0  0  0  0  0  0  0  0  0  0
   -3.4000    2.2348   -1.0012 O   0  0  0  0  0  0  0  0  0  0  0  0
   -1.1759    2.3671   -0.5888 N   0  0  0  0  0  0  0  0  0  0  0  0
   -1.1835    3.7306   -1.0813 C   0  0  0  0  0  0  0  0  0  0  0  0
    0.0354    1.7429   -0.4302 C   0  0  0  0  0  0  0  0  0  0  0  0
    1.1276    2.1751   -0.7844 O   0  0  0  0  0  0  0  0  0  0  0  0
    3.8916   -1.4375    1.3040 N   0  0  0  0  0  0  0  0  0  0  0  0
    5.2558   -1.6474    1.2752 O   0  0  0  0  0  0  0  0  0  0  0  0
    7.6380   -0.2282   -0.5725 H   0  0  0  0  0  0  0  0  0  0  0  0
    7.7846   -0.6877    1.1325 H   0  0  0  0  0  0  0  0  0  0  0  0
    7.5657   -1.9371   -0.1095 H   0  0  0  0  0  0  0  0  0  0  0  0
    4.9605    0.6715   -1.0057 H   0  0  0  0  0  0  0  0  0  0  0  0
    2.3740    0.7643   -0.6056 H   0  0  0  0  0  0  0  0  0  0  0  0
   -2.3142   -2.2161    0.7744 H   0  0  0  0  0  0  0  0  0  0  0  0
   -4.1762   -3.7841    0.8734 H   0  0  0  0  0  0  0  0  0  0  0  0
   -6.4199   -3.1359    0.0280 H   0  0  0  0  0  0  0  0  0  0  0  0
   -6.7577   -0.8725   -0.9298 H   0  0  0  0  0  0  0  0  0  0  0  0
   -4.9370    0.7096   -1.0591 H   0  0  0  0  0  0  0  0  0  0  0  0
   -2.0343    4.2782   -0.6643 H   0  0  0  0  0  0  0  0  0  0  0  0
   -1.2760    3.7083   -2.1719 H   0  0  0  0  0  0  0  0  0  0  0  0
   -0.2599    4.2512   -0.8114 H   0  0  0  0  0  0  0  0  0  0  0  0
  1  2  1  0
  2  3  2  0
  3  4  1  0
  4  5  1  0
  5  6  1  0
  6  7  2  0
  6  8  1  0
  8  9  2  0
  9 10  1  0
 10 11  1  0
 11 12  2  0
 12 13  1  0
 13 14  2  0
 14 15  1  0
 15 16  2  0
 10 17  1  0
 17 18  2  0
 17 19  1  0
 19 20  1  0
 19 21  1  0
 21 22  2  0
  4 23  2  0
 23 24  1  0
 24  2  1  0
 21  8  1  0
 16 11  1  0
  1 25  1  0
  1 26  1  0
  1 27  1  0
  3 28  1  0
  5 29  1  0
 12 30  1  0
 13 31  1  0
 14 32  1  0
 15 33  1  0
 16 34  1  0
 20 35  1  0
 20 36  1  0
 20 37  1  0
M  END
$$$$
