
     RDKit          3D

 41 44  0  0  0  0  0  0  0  0999 V2000
   -1.7957    1.6894   -2.0714 C   0  0  0  0  0  0  0  0  0  0  0  0
   -1.8240    0.5426   -1.2325 O   0  0  0  0  0  0  0  0  0  0  0  0
   -2.6201    0.5901   -0.1146 C   0  0  0  0  0  0  0  0  0  0  0  0
   -3.6705    1.5093    0.0295 C   0  0  0  0  0  0  0  0  0  0  0  0
   -4.5560    1.4170    1.1042 C   0  0  0  0  0  0  0  0  0  0  0  0
   -4.4161    0.3932    2.0320 C   0  0  0  0  0  0  0  0  0  0  0  0
   -3.3742   -0.5258    1.9006 C   0  0  0  0  0  0  0  0  0  0  0  0
   -2.4414   -0.4252    0.8532 C   0  0  0  0  0  0  0  0  0  0  0  0
   -1.3854   -1.3622    0.8024 N   0  0  0  0  0  0  0  0  0  0  0  0
   -1.4469   -2.7275    1.1703 C   0  0  0  0  0  0  0  0  0  0  0  0
   -2.3892   -3.3886    1.5742 O   0  0  0  0  0  0  0  0  0  0  0  0
   -0.1590   -3.2511    0.9702 N   0  0  0  0  0  0  0  0  0  0  0  0
    0.6707   -2.2197    0.5425 C   0  0  0  0  0  0  0  0  0  0  0  0
    1.9993   -2.1485    0.2461 C   0  0  0  0  0  0  0  0  0  0  0  0
    2.8961   -3.3328    0.3330 C   0  0  0  0  0  0  0  0  0  0  0  0
    2.6786   -4.2172    1.3638 N   0  0  0  0  0  0  0  0  0  0  0  0
    3.8180   -3.5130   -0.4524 O   0  0  0  0  0  0  0  0  0  0  0  0
    2.5813   -0.9842   -0.1230 N   0  0  0  0  0  0  0  0  0  0  0  0
    1.7972    0.1164   -0.1536 C   0  0  0  0  0  0  0  0  0  0  0  0
    2.4270    1.3942   -0.5304 C   0  0  0  0  0  0  0  0  0  0  0  0
    1.7373    2.6114   -0.4209 C   0  0  0  0  0  0  0  0  0  0  0  0
    2.3695    3.7889   -0.7874 C   0  0  0  0  0  0  0  0  0  0  0  0
    3.6318    3.8467   -1.2552 N   0  0  0  0  0  0  0  0  0  0  0  0
    4.2911    2.6752   -1.3585 C   0  0  0  0  0  0  0  0  0  0  0  0
    3.7426    1.4496   -1.0147 C   0  0  0  0  0  0  0  0  0  0  0  0
    0.4844    0.1333    0.1503 N   0  0  0  0  0  0  0  0  0  0  0  0
   -0.0546   -1.0537    0.4440 C   0  0  0  0  0  0  0  0  0  0  0  0
   -2.7284    1.7805   -2.6369 H   0  0  0  0  0  0  0  0  0  0  0  0
   -0.9824    1.5559   -2.7913 H   0  0  0  0  0  0  0  0  0  0  0  0
   -1.5877    2.6007   -1.5007 H   0  0  0  0  0  0  0  0  0  0  0  0
   -3.8498    2.2902   -0.7022 H   0  0  0  0  0  0  0  0  0  0  0  0
   -5.3714    2.1299    1.1999 H   0  0  0  0  0  0  0  0  0  0  0  0
   -5.1162    0.3045    2.8590 H   0  0  0  0  0  0  0  0  0  0  0  0
   -3.2854   -1.3080    2.6515 H   0  0  0  0  0  0  0  0  0  0  0  0
    0.0821   -4.2220    1.1081 H   0  0  0  0  0  0  0  0  0  0  0  0
    3.4127   -4.9080    1.4806 H   0  0  0  0  0  0  0  0  0  0  0  0
    2.2118   -3.9175    2.2104 H   0  0  0  0  0  0  0  0  0  0  0  0
    0.7172    2.6472   -0.0491 H   0  0  0  0  0  0  0  0  0  0  0  0
    1.8594    4.7449   -0.7100 H   0  0  0  0  0  0  0  0  0  0  0  0
    5.3068    2.7454   -1.7378 H   0  0  0  0  0  0  0  0  0  0  0  0
    4.3393    0.5485   -1.1293 H   0  0  0  0  0  0  0  0  0  0  0  0
  1  2  1  0
  2  3  1  0
  3  4  2  0
  4  5  1  0
  5  6  2  0
  6  7  1  0
  7  8  2  0
  8  9  1  0
  9 10  1  0
 10 11  2  0
 10 12  1  0
 12 13  1  0
 13 14  2  0
 14 15  1  0
 15 16  1  0
 15 17  2  0
 14 18  1  0
 18 19  2  0
 19 20  1  0
 20 21  2  0
 21 22  1  0
 22 23  2  0
 23 24  1  0
 24 25  2  0
 19 26  1  0
 26 27  2  0
  8  3  1  0
 27  9  1  0
 27 13  1  0
 25 20  1  0
  1 28  1  0
  1 29  1  0
  1 30  1  0
  4 31  1  0
  5 32  1  0
  6 33  1  0
  7 34  1  0
 12 35  1  0
 16 36  1  0
 16 37  1  0
 21 38  1  0
 22 39  1  0
 24 40  1  0
 25 41  1  0
M  END
$$$$
