
     RDKit          3D

 62 66  0  0  0  0  0  0  0  0999 V2000
    8.3097    0.3756   -3.0523 C   0  0  0  0  0  0  0  0  0  0  0  0
    7.8926    1.6030   -2.4646 O   0  0  0  0  0  0  0  0  0  0  0  0
    6.7634    1.5675   -1.6909 C   0  0  0  0  0  0  0  0  0  0  0  0
    6.2908    2.8217   -1.3018 C   0  0  0  0  0  0  0  0  0  0  0  0
    5.1313    2.9504   -0.5292 C   0  0  0  0  0  0  0  0  0  0  0  0
    4.4314    1.7962   -0.1301 C   0  0  0  0  0  0  0  0  0  0  0  0
    3.2611    1.7689    0.6064 N   0  0  0  0  0  0  0  0  0  0  0  0
    2.8949    0.5315    0.7964 C   0  0  0  0  0  0  0  0  0  0  0  0
    1.7888    0.0460    1.4297 N   0  0  0  0  0  0  0  0  0  0  0  0
    0.8182    0.8613    1.9692 C   0  0  0  0  0  0  0  0  0  0  0  0
    0.8622    2.0827    2.0956 O   0  0  0  0  0  0  0  0  0  0  0  0
   -0.3812    0.0804    2.5092 C   0  0  0  0  0  0  0  0  0  0  0  0
   -1.0049   -0.7852    1.5056 N   0  0  0  0  0  0  0  0  0  0  0  0
   -0.5201   -2.0747    1.3550 C   0  0  0  0  0  0  0  0  0  0  0  0
    0.5092   -2.4311    1.9380 O   0  0  0  0  0  0  0  0  0  0  0  0
   -1.2061   -2.9649    0.3063 C   0  0  0  0  0  0  0  0  0  0  0  0
   -1.0412   -4.4297    0.7398 C   0  0  0  0  0  0  0  0  0  0  0  0
   -1.7763   -5.3935   -0.1795 C   0  0  0  0  0  0  0  0  0  0  0  0
   -3.2375   -4.9935   -0.2896 C   0  0  0  0  0  0  0  0  0  0  0  0
   -3.3775   -3.5516   -0.7693 C   0  0  0  0  0  0  0  0  0  0  0  0
   -2.6364   -2.6300    0.1058 N   0  0  0  0  0  0  0  0  0  0  0  0
   -2.8270   -1.2378   -0.0828 C   0  0  0  0  0  0  0  0  0  0  0  0
   -3.8241   -0.7239   -0.9376 C   0  0  0  0  0  0  0  0  0  0  0  0
   -4.0370    0.6492   -1.0827 C   0  0  0  0  0  0  0  0  0  0  0  0
   -3.2764    1.5423   -0.3407 C   0  0  0  0  0  0  0  0  0  0  0  0
   -3.4775    2.9937   -0.5356 C   0  0  0  0  0  0  0  0  0  0  0  0
   -3.3336    3.4359   -1.6730 O   0  0  0  0  0  0  0  0  0  0  0  0
   -3.7984    3.7777    0.5677 N   0  0  0  0  0  0  0  0  0  0  0  0
   -3.8019    5.2221    0.4129 C   0  0  0  0  0  0  0  0  0  0  0  0
   -4.2912    3.2663    1.8386 C   0  0  0  0  0  0  0  0  0  0  0  0
   -2.2785    1.0759    0.5182 C   0  0  0  0  0  0  0  0  0  0  0  0
   -2.0429   -0.3043    0.6523 C   0  0  0  0  0  0  0  0  0  0  0  0
    3.9016   -0.6790    0.1403 S   0  0  0  0  0  0  0  0  0  0  0  0
    4.9331    0.5463   -0.5030 C   0  0  0  0  0  0  0  0  0  0  0  0
    6.0984    0.4067   -1.2822 C   0  0  0  0  0  0  0  0  0  0  0  0
    7.5084   -0.0668   -3.6556 H   0  0  0  0  0  0  0  0  0  0  0  0
    9.1509    0.5907   -3.7204 H   0  0  0  0  0  0  0  0  0  0  0  0
    8.6640   -0.3217   -2.2852 H   0  0  0  0  0  0  0  0  0  0  0  0
    6.8232    3.7186   -1.6131 H   0  0  0  0  0  0  0  0  0  0  0  0
    4.7589    3.9305   -0.2475 H   0  0  0  0  0  0  0  0  0  0  0  0
    1.7042   -0.9603    1.5151 H   0  0  0  0  0  0  0  0  0  0  0  0
   -0.0267   -0.5289    3.3495 H   0  0  0  0  0  0  0  0  0  0  0  0
   -1.1226    0.7710    2.9263 H   0  0  0  0  0  0  0  0  0  0  0  0
   -0.6694   -2.8086   -0.6400 H   0  0  0  0  0  0  0  0  0  0  0  0
    0.0212   -4.6974    0.7564 H   0  0  0  0  0  0  0  0  0  0  0  0
   -1.4104   -4.5596    1.7653 H   0  0  0  0  0  0  0  0  0  0  0  0
   -1.6995   -6.4157    0.2101 H   0  0  0  0  0  0  0  0  0  0  0  0
   -1.3099   -5.3908   -1.1732 H   0  0  0  0  0  0  0  0  0  0  0  0
   -3.7249   -5.1044    0.6884 H   0  0  0  0  0  0  0  0  0  0  0  0
   -3.7510   -5.6672   -0.9855 H   0  0  0  0  0  0  0  0  0  0  0  0
   -3.0108   -3.4690   -1.8025 H   0  0  0  0  0  0  0  0  0  0  0  0
   -4.4517   -3.3245   -0.7624 H   0  0  0  0  0  0  0  0  0  0  0  0
   -4.4568   -1.3745   -1.5319 H   0  0  0  0  0  0  0  0  0  0  0  0
   -4.7922    1.0159   -1.7746 H   0  0  0  0  0  0  0  0  0  0  0  0
   -3.2248    5.5318   -0.4645 H   0  0  0  0  0  0  0  0  0  0  0  0
   -4.8357    5.5554    0.2896 H   0  0  0  0  0  0  0  0  0  0  0  0
   -3.3664    5.6848    1.3039 H   0  0  0  0  0  0  0  0  0  0  0  0
   -5.2085    3.8043    2.1033 H   0  0  0  0  0  0  0  0  0  0  0  0
   -3.5383    3.4528    2.6081 H   0  0  0  0  0  0  0  0  0  0  0  0
   -4.5208    2.1995    1.7993 H   0  0  0  0  0  0  0  0  0  0  0  0
   -1.6698    1.8168    1.0286 H   0  0  0  0  0  0  0  0  0  0  0  0
    6.4428   -0.5849   -1.5518 H   0  0  0  0  0  0  0  0  0  0  0  0
  1  2  1  0
  2  3  1  0
  3  4  2  0
  4  5  1  0
  5  6  2  0
  6  7  1  0
  7  8  2  0
  8  9  1  0
  9 10  1  0
 10 11  2  0
 10 12  1  0
 12 13  1  0
 13 14  1  0
 14 15  2  0
 14 16  1  0
 16 17  1  0
 17 18  1  0
 18 19  1  0
 19 20  1  0
 20 21  1  0
 21 22  1  0
 22 23  2  0
 23 24  1  0
 24 25  2  0
 25 26  1  0
 26 27  2  0
 26 28  1  0
 28 29  1  0
 28 30  1  0
 25 31  1  0
 31 32  2  0
  8 33  1  0
 33 34  1  0
 34 35  2  0
 35  3  1  0
 34  6  1  0
 32 13  1  0
 21 16  1  0
 32 22  1  0
  1 36  1  0
  1 37  1  0
  1 38  1  0
  4 39  1  0
  5 40  1  0
  9 41  1  0
 12 42  1  0
 12 43  1  0
 16 44  1  0
 17 45  1  0
 17 46  1  0
 18 47  1  0
 18 48  1  0
 19 49  1  0
 19 50  1  0
 20 51  1  0
 20 52  1  0
 23 53  1  0
 24 54  1  0
 29 55  1  0
 29 56  1  0
 29 57  1  0
 30 58  1  0
 30 59  1  0
 30 60  1  0
 31 61  1  0
 35 62  1  0
M  END
$$$$
