
     RDKit          3D

 39 41  0  0  0  0  0  0  0  0999 V2000
    3.5197   -0.8199    1.2759 C   0  0  0  0  0  0  0  0  0  0  0  0
    3.4125   -1.3879   -0.1289 C   0  0  0  0  0  0  0  0  0  0  0  0
    2.0459   -1.4114   -0.5603 O   0  0  0  0  0  0  0  0  0  0  0  0
    1.6173   -0.2454   -1.1355 C   0  0  0  0  0  0  0  0  0  0  0  0
    2.2224    0.2449   -2.2967 C   0  0  0  0  0  0  0  0  0  0  0  0
    1.7413    1.4038   -2.9038 C   0  0  0  0  0  0  0  0  0  0  0  0
    0.6406    2.0634   -2.3660 C   0  0  0  0  0  0  0  0  0  0  0  0
    0.0114    1.5568   -1.2279 C   0  0  0  0  0  0  0  0  0  0  0  0
    0.4871    0.3890   -0.5957 C   0  0  0  0  0  0  0  0  0  0  0  0
   -0.2356   -0.1980    0.6175 C   0  0  0  0  0  0  0  0  0  0  0  0
   -1.5971   -0.7583    0.2351 C   0  0  0  0  0  0  0  0  0  0  0  0
   -1.5594   -1.9639   -0.6096 C   0  0  0  0  0  0  0  0  0  0  0  0
   -1.9512   -1.7654   -1.8962 N   0  0  0  0  0  0  0  0  0  0  0  0
   -1.1926   -3.0475   -0.1825 O   0  0  0  0  0  0  0  0  0  0  0  0
   -2.7561   -0.2360    0.7025 C   0  0  0  0  0  0  0  0  0  0  0  0
   -4.1260   -0.7862    0.3998 C   0  0  0  0  0  0  0  0  0  0  0  0
   -2.7167    0.8564    1.5640 N   0  0  0  0  0  0  0  0  0  0  0  0
   -1.5708    1.3276    2.0951 C   0  0  0  0  0  0  0  0  0  0  0  0
   -1.3596    2.2280    3.0207 N   0  0  0  0  0  0  0  0  0  0  0  0
    0.0057    2.2169    3.1475 C   0  0  0  0  0  0  0  0  0  0  0  0
    0.6600    1.3645    2.3508 N   0  0  0  0  0  0  0  0  0  0  0  0
   -0.3709    0.8213    1.6674 N   0  0  0  0  0  0  0  0  0  0  0  0
    3.2294    0.2351    1.2927 H   0  0  0  0  0  0  0  0  0  0  0  0
    2.8506   -1.3505    1.9610 H   0  0  0  0  0  0  0  0  0  0  0  0
    4.5447   -0.9014    1.6487 H   0  0  0  0  0  0  0  0  0  0  0  0
    4.0730   -0.8483   -0.8162 H   0  0  0  0  0  0  0  0  0  0  0  0
    3.7537   -2.4288   -0.1176 H   0  0  0  0  0  0  0  0  0  0  0  0
    3.0587   -0.2810   -2.7484 H   0  0  0  0  0  0  0  0  0  0  0  0
    2.2220    1.7872   -3.8002 H   0  0  0  0  0  0  0  0  0  0  0  0
    0.2664    2.9696   -2.8363 H   0  0  0  0  0  0  0  0  0  0  0  0
   -0.8556    2.0865   -0.8361 H   0  0  0  0  0  0  0  0  0  0  0  0
    0.3516   -0.9913    1.0957 H   0  0  0  0  0  0  0  0  0  0  0  0
   -1.8227   -2.5382   -2.5365 H   0  0  0  0  0  0  0  0  0  0  0  0
   -2.0682   -0.8396   -2.2848 H   0  0  0  0  0  0  0  0  0  0  0  0
   -4.1045   -1.7368   -0.1393 H   0  0  0  0  0  0  0  0  0  0  0  0
   -4.6918   -0.0685   -0.2034 H   0  0  0  0  0  0  0  0  0  0  0  0
   -4.6761   -0.9604    1.3312 H   0  0  0  0  0  0  0  0  0  0  0  0
   -3.5965    1.1638    1.9702 H   0  0  0  0  0  0  0  0  0  0  0  0
    0.5373    2.8500    3.8465 H   0  0  0  0  0  0  0  0  0  0  0  0
  1  2  1  0
  2  3  1  0
  3  4  1  0
  4  5  2  0
  5  6  1  0
  6  7  2  0
  7  8  1  0
  8  9  2  0
  9 10  1  0
 10 11  1  0
 11 12  1  0
 12 13  1  0
 12 14  2  0
 11 15  2  0
 15 16  1  0
 15 17  1  0
 17 18  1  0
 18 19  2  0
 19 20  1  0
 20 21  2  0
 21 22  1  0
  9  4  1  0
 22 10  1  0
 22 18  1  0
  1 23  1  0
  1 24  1  0
  1 25  1  0
  2 26  1  0
  2 27  1  0
  5 28  1  0
  6 29  1  0
  7 30  1  0
  8 31  1  0
 10 32  1  0
 13 33  1  0
 13 34  1  0
 16 35  1  0
 16 36  1  0
 16 37  1  0
 17 38  1  0
 20 39  1  0
M  END
$$$$
