
     RDKit          3D

 44 46  0  0  0  0  0  0  0  0999 V2000
    2.9515   -2.8381   -2.6988 C   0  0  0  0  0  0  0  0  0  0  0  0
    2.2877   -2.8525   -1.4413 O   0  0  0  0  0  0  0  0  0  0  0  0
    2.4165   -1.7602   -0.6310 C   0  0  0  0  0  0  0  0  0  0  0  0
    3.3495   -0.7339   -0.8450 C   0  0  0  0  0  0  0  0  0  0  0  0
    3.4730    0.3504    0.0442 C   0  0  0  0  0  0  0  0  0  0  0  0
    4.4435    1.4171   -0.1885 C   0  0  0  0  0  0  0  0  0  0  0  0
    4.7767    2.5887    0.4545 C   0  0  0  0  0  0  0  0  0  0  0  0
    5.8113    3.1353   -0.3246 C   0  0  0  0  0  0  0  0  0  0  0  0
    6.1064    2.3678   -1.3741 N   0  0  0  0  0  0  0  0  0  0  0  0
    5.2449    1.2870   -1.2882 O   0  0  0  0  0  0  0  0  0  0  0  0
    2.6437    0.3832    1.1723 C   0  0  0  0  0  0  0  0  0  0  0  0
    1.7130   -0.6319    1.4041 C   0  0  0  0  0  0  0  0  0  0  0  0
    1.5927   -1.6943    0.4988 C   0  0  0  0  0  0  0  0  0  0  0  0
    0.3722   -2.9579    0.7835 S   0  0  0  0  0  6  0  0  0  0  0  0
   -0.3205   -3.2685   -0.4480 O   0  0  0  0  0  0  0  0  0  0  0  0
    1.0174   -3.9819    1.5801 O   0  0  0  0  0  0  0  0  0  0  0  0
   -0.7432   -2.2467    1.8273 N   0  0  0  0  0  0  0  0  0  0  0  0
   -1.7827   -1.3672    1.4062 C   0  0  0  0  0  0  0  0  0  0  0  0
   -1.7386   -0.6069    0.2389 C   0  0  0  0  0  0  0  0  0  0  0  0
   -2.7577    0.3107   -0.0572 C   0  0  0  0  0  0  0  0  0  0  0  0
   -3.8268    0.4952    0.8181 C   0  0  0  0  0  0  0  0  0  0  0  0
   -4.8893    1.3936    0.5921 N   0  0  0  0  0  0  0  0  0  0  0  0
   -5.0491    2.2555   -0.4785 C   0  0  0  0  0  0  0  0  0  0  0  0
   -6.3345    3.0400   -0.3890 C   0  0  0  0  0  0  0  0  0  0  0  0
   -4.2885    2.4035   -1.4278 O   0  0  0  0  0  0  0  0  0  0  0  0
   -3.8591   -0.2512    2.0001 C   0  0  0  0  0  0  0  0  0  0  0  0
   -2.8392   -1.1633    2.2966 C   0  0  0  0  0  0  0  0  0  0  0  0
    2.6669   -1.9611   -3.2896 H   0  0  0  0  0  0  0  0  0  0  0  0
    2.6379   -3.7286   -3.2520 H   0  0  0  0  0  0  0  0  0  0  0  0
    4.0369   -2.8932   -2.5677 H   0  0  0  0  0  0  0  0  0  0  0  0
    4.0081   -0.7690   -1.7087 H   0  0  0  0  0  0  0  0  0  0  0  0
    4.3393    2.9948    1.3530 H   0  0  0  0  0  0  0  0  0  0  0  0
    6.3620    4.0538   -0.1774 H   0  0  0  0  0  0  0  0  0  0  0  0
    2.7101    1.1973    1.8905 H   0  0  0  0  0  0  0  0  0  0  0  0
    1.0925   -0.5786    2.2947 H   0  0  0  0  0  0  0  0  0  0  0  0
   -0.8887   -2.8190    2.6572 H   0  0  0  0  0  0  0  0  0  0  0  0
   -0.9324   -0.7061   -0.4814 H   0  0  0  0  0  0  0  0  0  0  0  0
   -2.6811    0.8620   -0.9898 H   0  0  0  0  0  0  0  0  0  0  0  0
   -5.6160    1.4076    1.2963 H   0  0  0  0  0  0  0  0  0  0  0  0
   -6.5135    3.3760    0.6364 H   0  0  0  0  0  0  0  0  0  0  0  0
   -6.2670    3.9242   -1.0294 H   0  0  0  0  0  0  0  0  0  0  0  0
   -7.1660    2.4141   -0.7234 H   0  0  0  0  0  0  0  0  0  0  0  0
   -4.6710   -0.1326    2.7128 H   0  0  0  0  0  0  0  0  0  0  0  0
   -2.8888   -1.7151    3.2316 H   0  0  0  0  0  0  0  0  0  0  0  0
  1  2  1  0
  2  3  1  0
  3  4  2  0
  4  5  1  0
  5  6  1  0
  6  7  2  0
  7  8  1  0
  8  9  2  0
  9 10  1  0
  5 11  2  0
 11 12  1  0
 12 13  2  0
 13 14  1  0
 14 15  2  0
 14 16  2  0
 14 17  1  0
 17 18  1  0
 18 19  2  0
 19 20  1  0
 20 21  2  0
 21 22  1  0
 22 23  1  0
 23 24  1  0
 23 25  2  0
 21 26  1  0
 26 27  2  0
 13  3  1  0
 27 18  1  0
 10  6  1  0
  1 28  1  0
  1 29  1  0
  1 30  1  0
  4 31  1  0
  7 32  1  0
  8 33  1  0
 11 34  1  0
 12 35  1  0
 17 36  1  0
 19 37  1  0
 20 38  1  0
 22 39  1  0
 24 40  1  0
 24 41  1  0
 24 42  1  0
 26 43  1  0
 27 44  1  0
M  END
$$$$
