
     RDKit          3D

 38 40  0  0  0  0  0  0  0  0999 V2000
   -1.7919    2.6070    0.7684 N   0  0  0  0  0  0  0  0  0  0  0  0
   -2.2764    1.8640   -0.4151 C   0  0  1  0  0  0  0  0  0  0  0  0
   -1.0371    1.4813   -1.2680 C   0  0  0  0  0  0  0  0  0  0  0  0
   -0.5853    2.2188   -2.1446 O   0  0  0  0  0  0  0  0  0  0  0  0
   -0.3879    0.3204   -0.8986 N   0  0  0  0  0  0  0  0  0  0  0  0
    0.8876   -0.0807   -1.5437 C   0  0  2  0  0  0  0  0  0  0  0  0
    1.5558   -1.3750   -0.9919 C   0  0  0  0  0  0  0  0  0  0  0  0
    1.2117   -2.5140   -0.7813 O   0  0  0  0  0  0  0  0  0  0  0  0
    2.6873   -0.6887   -0.7071 N   0  0  0  0  0  0  0  0  0  0  0  0
    3.7055   -0.9470    0.1683 C   0  0  0  0  0  0  0  0  0  0  0  0
    4.1005   -2.3674    0.3624 C   0  0  0  0  0  0  0  0  0  0  0  0
    4.2802   -2.9443    1.4184 O   0  0  0  0  0  0  0  0  0  0  0  0
    4.2615   -2.9876   -0.8227 O   0  0  0  0  0  0  0  0  0  0  0  0
    4.3255    0.0470    0.8348 C   0  0  0  0  0  0  0  0  0  0  0  0
    5.7054   -0.2193    1.8579 Cl  0  0  0  0  0  0  0  0  0  0  0  0
    3.8868    1.4890    0.7986 C   0  0  0  0  0  0  0  0  0  0  0  0
    2.1056    1.6579    0.4350 S   0  0  0  0  0  0  0  0  0  0  0  0
    2.1960    0.6278   -1.0665 C   0  0  2  0  0  0  0  0  0  0  0  0
   -3.1599    0.6701   -0.0776 C   0  0  0  0  0  0  0  0  0  0  0  0
   -3.4014    0.2465    1.2392 C   0  0  0  0  0  0  0  0  0  0  0  0
   -4.2004   -0.8702    1.4967 C   0  0  0  0  0  0  0  0  0  0  0  0
   -4.7757   -1.5772    0.4441 C   0  0  0  0  0  0  0  0  0  0  0  0
   -4.5601   -1.1647   -0.8677 C   0  0  0  0  0  0  0  0  0  0  0  0
   -3.7627   -0.0484   -1.1269 C   0  0  0  0  0  0  0  0  0  0  0  0
   -1.3254    3.4509    0.4296 H   0  0  0  0  0  0  0  0  0  0  0  0
   -1.0512    2.0643    1.2139 H   0  0  0  0  0  0  0  0  0  0  0  0
   -2.8860    2.5540   -1.0123 H   0  0  0  0  0  0  0  0  0  0  0  0
   -0.8201   -0.2783   -0.1993 H   0  0  0  0  0  0  0  0  0  0  0  0
    0.7787   -0.1198   -2.6353 H   0  0  0  0  0  0  0  0  0  0  0  0
    4.4422   -3.9182   -0.5748 H   0  0  0  0  0  0  0  0  0  0  0  0
    4.4668    2.0411    0.0513 H   0  0  0  0  0  0  0  0  0  0  0  0
    4.0474    1.9698    1.7693 H   0  0  0  0  0  0  0  0  0  0  0  0
    2.7659    1.0826   -1.8849 H   0  0  0  0  0  0  0  0  0  0  0  0
   -2.9807    0.7872    2.0846 H   0  0  0  0  0  0  0  0  0  0  0  0
   -4.3788   -1.1831    2.5226 H   0  0  0  0  0  0  0  0  0  0  0  0
   -5.3988   -2.4442    0.6474 H   0  0  0  0  0  0  0  0  0  0  0  0
   -5.0162   -1.7103   -1.6900 H   0  0  0  0  0  0  0  0  0  0  0  0
   -3.6146    0.2584   -2.1613 H   0  0  0  0  0  0  0  0  0  0  0  0
  1  2  1  0
  2  3  1  0
  3  4  2  0
  3  5  1  0
  5  6  1  0
  6  7  1  0
  7  8  2  0
  7  9  1  0
  9 10  1  0
 10 11  1  0
 11 12  2  0
 11 13  1  0
 10 14  2  0
 14 15  1  0
 14 16  1  0
 16 17  1  0
 17 18  1  0
  2 19  1  0
 19 20  2  0
 20 21  1  0
 21 22  2  0
 22 23  1  0
 23 24  2  0
 18  6  1  0
 24 19  1  0
 18  9  1  0
  1 25  1  0
  1 26  1  0
  2 27  1  6
  5 28  1  0
  6 29  1  6
 13 30  1  0
 16 31  1  0
 16 32  1  0
 18 33  1  6
 20 34  1  0
 21 35  1  0
 22 36  1  0
 23 37  1  0
 24 38  1  0
M  END
$$$$
