
     RDKit          3D

 50 51  0  0  0  0  0  0  0  0999 V2000
   -6.8654    2.5237    0.3538 C   0  0  0  0  0  0  0  0  0  0  0  0
   -6.3150    1.3145    0.8549 O   0  0  0  0  0  0  0  0  0  0  0  0
   -5.1038    0.9087    0.3552 C   0  0  0  0  0  0  0  0  0  0  0  0
   -4.3690    1.6059   -0.6029 C   0  0  0  0  0  0  0  0  0  0  0  0
   -3.1378    1.1114   -1.0528 C   0  0  0  0  0  0  0  0  0  0  0  0
   -2.6075   -0.0880   -0.5587 C   0  0  0  0  0  0  0  0  0  0  0  0
   -1.3502   -0.5688   -1.0210 N   0  0  0  0  0  0  0  0  0  0  0  0
   -0.5185    0.1727   -1.9446 C   0  0  0  0  0  0  0  0  0  0  0  0
    0.8479   -0.4910   -1.8286 C   0  0  0  0  0  0  0  0  0  0  0  0
    1.6342    0.0776   -0.7319 N   0  0  0  0  0  0  0  0  0  0  0  0
    3.0035   -0.1065   -0.6715 C   0  0  0  0  0  0  0  0  0  0  0  0
    3.6323   -0.6453   -1.5726 O   0  0  0  0  0  0  0  0  0  0  0  0
    3.6068    0.4361    0.6170 C   0  0  0  0  0  0  0  0  0  0  0  0
    5.1379    0.3030    0.7980 C   0  0  0  0  0  0  0  0  0  0  0  0
    5.9028    1.0734   -0.2911 C   0  0  0  0  0  0  0  0  0  0  0  0
    5.5045    0.9195    2.1651 C   0  0  0  0  0  0  0  0  0  0  0  0
    5.5781   -1.1704    0.8079 C   0  0  0  0  0  0  0  0  0  0  0  0
    0.4930   -1.9461   -1.5601 C   0  0  0  0  0  0  0  0  0  0  0  0
   -0.8009   -1.8416   -0.7856 C   0  0  0  0  0  0  0  0  0  0  0  0
   -1.2509   -2.7648   -0.1241 O   0  0  0  0  0  0  0  0  0  0  0  0
   -3.3549   -0.7794    0.4049 C   0  0  0  0  0  0  0  0  0  0  0  0
   -4.5936   -0.2993    0.8611 C   0  0  0  0  0  0  0  0  0  0  0  0
   -5.3675   -0.9302    1.8059 O   0  0  0  0  0  0  0  0  0  0  0  0
   -4.9708   -2.2307    2.2199 C   0  0  0  0  0  0  0  0  0  0  0  0
   -6.2197    3.3773    0.5850 H   0  0  0  0  0  0  0  0  0  0  0  0
   -7.0600    2.4538   -0.7215 H   0  0  0  0  0  0  0  0  0  0  0  0
   -7.8244    2.6879    0.8546 H   0  0  0  0  0  0  0  0  0  0  0  0
   -4.7249    2.5388   -1.0270 H   0  0  0  0  0  0  0  0  0  0  0  0
   -2.6223    1.6925   -1.8114 H   0  0  0  0  0  0  0  0  0  0  0  0
   -0.9326    0.0483   -2.9518 H   0  0  0  0  0  0  0  0  0  0  0  0
   -0.4676    1.2342   -1.6823 H   0  0  0  0  0  0  0  0  0  0  0  0
    1.4259   -0.3799   -2.7523 H   0  0  0  0  0  0  0  0  0  0  0  0
    1.1518    0.3260    0.1257 H   0  0  0  0  0  0  0  0  0  0  0  0
    3.3274    1.4967    0.6782 H   0  0  0  0  0  0  0  0  0  0  0  0
    3.1014   -0.0772    1.4465 H   0  0  0  0  0  0  0  0  0  0  0  0
    5.5818    2.1203   -0.3325 H   0  0  0  0  0  0  0  0  0  0  0  0
    5.7564    0.6395   -1.2844 H   0  0  0  0  0  0  0  0  0  0  0  0
    6.9811    1.0653   -0.0935 H   0  0  0  0  0  0  0  0  0  0  0  0
    4.9924    0.4009    2.9836 H   0  0  0  0  0  0  0  0  0  0  0  0
    6.5821    0.8555    2.3547 H   0  0  0  0  0  0  0  0  0  0  0  0
    5.2218    1.9773    2.2113 H   0  0  0  0  0  0  0  0  0  0  0  0
    5.0212   -1.7432    1.5579 H   0  0  0  0  0  0  0  0  0  0  0  0
    6.6441   -1.2598    1.0476 H   0  0  0  0  0  0  0  0  0  0  0  0
    5.4269   -1.6536   -0.1616 H   0  0  0  0  0  0  0  0  0  0  0  0
    0.2898   -2.4871   -2.4902 H   0  0  0  0  0  0  0  0  0  0  0  0
    1.2505   -2.4746   -0.9752 H   0  0  0  0  0  0  0  0  0  0  0  0
   -2.9639   -1.6967    0.8250 H   0  0  0  0  0  0  0  0  0  0  0  0
   -4.0285   -2.1948    2.7760 H   0  0  0  0  0  0  0  0  0  0  0  0
   -4.9059   -2.9177    1.3695 H   0  0  0  0  0  0  0  0  0  0  0  0
   -5.7401   -2.6139    2.8974 H   0  0  0  0  0  0  0  0  0  0  0  0
  1  2  1  0
  2  3  1  0
  3  4  2  0
  4  5  1  0
  5  6  2  0
  6  7  1  0
  7  8  1  0
  8  9  1  0
  9 10  1  0
 10 11  1  0
 11 12  2  0
 11 13  1  0
 13 14  1  0
 14 15  1  0
 14 16  1  0
 14 17  1  0
  9 18  1  0
 18 19  1  0
 19 20  2  0
  6 21  1  0
 21 22  2  0
 22 23  1  0
 23 24  1  0
 22  3  1  0
 19  7  1  0
  1 25  1  0
  1 26  1  0
  1 27  1  0
  4 28  1  0
  5 29  1  0
  8 30  1  0
  8 31  1  0
  9 32  1  0
 10 33  1  0
 13 34  1  0
 13 35  1  0
 15 36  1  0
 15 37  1  0
 15 38  1  0
 16 39  1  0
 16 40  1  0
 16 41  1  0
 17 42  1  0
 17 43  1  0
 17 44  1  0
 18 45  1  0
 18 46  1  0
 21 47  1  0
 24 48  1  0
 24 49  1  0
 24 50  1  0
M  END
$$$$
