
     RDKit          3D

 47 48  0  0  0  0  0  0  0  0999 V2000
   -6.1736    3.2373   -0.6958 C   0  0  0  0  0  0  0  0  0  0  0  0
   -6.9783    2.0631   -0.6412 O   0  0  0  0  0  0  0  0  0  0  0  0
   -6.3305    0.8841   -0.3799 C   0  0  0  0  0  0  0  0  0  0  0  0
   -4.9681    0.7305   -0.1238 C   0  0  0  0  0  0  0  0  0  0  0  0
   -4.4351   -0.5447    0.1362 C   0  0  0  0  0  0  0  0  0  0  0  0
   -3.0019   -0.7218    0.4002 C   0  0  0  0  0  0  0  0  0  0  0  0
   -2.3907   -0.0729    1.4029 C   0  0  0  0  0  0  0  0  0  0  0  0
   -0.9413   -0.1549    1.7298 C   0  0  0  0  0  0  0  0  0  0  0  0
   -0.5042    0.5876    2.6132 O   0  0  0  0  0  0  0  0  0  0  0  0
   -0.0233   -1.0989    0.9984 C   0  0  0  0  0  0  0  0  0  0  0  0
    0.5833   -0.4546   -0.2217 C   0  0  0  0  0  0  0  0  0  0  0  0
   -0.1227    0.1017   -1.0650 O   0  0  0  0  0  0  0  0  0  0  0  0
    2.0518   -0.4812   -0.4649 C   0  0  0  0  0  0  0  0  0  0  0  0
    2.9589   -1.1867    0.2242 C   0  0  0  0  0  0  0  0  0  0  0  0
    4.3872   -1.1379   -0.1147 C   0  0  0  0  0  0  0  0  0  0  0  0
    5.0645   -2.3345   -0.3824 C   0  0  0  0  0  0  0  0  0  0  0  0
    6.4193   -2.3144   -0.7134 C   0  0  0  0  0  0  0  0  0  0  0  0
    7.0888   -1.0985   -0.7622 C   0  0  0  0  0  0  0  0  0  0  0  0
    8.4142   -1.1016   -1.0979 O   0  0  0  0  0  0  0  0  0  0  0  0
    6.4416    0.1084   -0.4769 C   0  0  0  0  0  0  0  0  0  0  0  0
    7.2353    1.2253   -0.5587 O   0  0  0  0  0  0  0  0  0  0  0  0
    6.6494    2.4537   -0.1406 C   0  0  0  0  0  0  0  0  0  0  0  0
    5.0842    0.0830   -0.1506 C   0  0  0  0  0  0  0  0  0  0  0  0
   -5.2730   -1.6668    0.1180 C   0  0  0  0  0  0  0  0  0  0  0  0
   -6.6354   -1.5194   -0.1350 C   0  0  0  0  0  0  0  0  0  0  0  0
   -7.1480   -0.2514   -0.3772 C   0  0  0  0  0  0  0  0  0  0  0  0
   -8.4898   -0.1353   -0.6186 O   0  0  0  0  0  0  0  0  0  0  0  0
   -5.6935    3.4319    0.2699 H   0  0  0  0  0  0  0  0  0  0  0  0
   -6.8333    4.0819   -0.9152 H   0  0  0  0  0  0  0  0  0  0  0  0
   -5.4336    3.1723   -1.5029 H   0  0  0  0  0  0  0  0  0  0  0  0
   -4.2960    1.5837   -0.1272 H   0  0  0  0  0  0  0  0  0  0  0  0
   -2.4838   -1.3940   -0.2740 H   0  0  0  0  0  0  0  0  0  0  0  0
   -2.9426    0.5991    2.0549 H   0  0  0  0  0  0  0  0  0  0  0  0
    0.7376   -1.4084    1.7213 H   0  0  0  0  0  0  0  0  0  0  0  0
   -0.5423   -2.0149    0.6994 H   0  0  0  0  0  0  0  0  0  0  0  0
    2.3542    0.1403   -1.3049 H   0  0  0  0  0  0  0  0  0  0  0  0
    2.7008   -1.8547    1.0381 H   0  0  0  0  0  0  0  0  0  0  0  0
    4.5398   -3.2880   -0.3522 H   0  0  0  0  0  0  0  0  0  0  0  0
    6.9488   -3.2365   -0.9361 H   0  0  0  0  0  0  0  0  0  0  0  0
    8.6772   -0.1608   -1.0868 H   0  0  0  0  0  0  0  0  0  0  0  0
    7.4118    3.2347   -0.2298 H   0  0  0  0  0  0  0  0  0  0  0  0
    5.8101    2.7310   -0.7869 H   0  0  0  0  0  0  0  0  0  0  0  0
    6.3424    2.4062    0.9109 H   0  0  0  0  0  0  0  0  0  0  0  0
    4.5477    0.9989    0.0797 H   0  0  0  0  0  0  0  0  0  0  0  0
   -4.8774   -2.6604    0.3104 H   0  0  0  0  0  0  0  0  0  0  0  0
   -7.2936   -2.3826   -0.1431 H   0  0  0  0  0  0  0  0  0  0  0  0
   -8.6364    0.8210   -0.7621 H   0  0  0  0  0  0  0  0  0  0  0  0
  1  2  1  0
  2  3  1  0
  3  4  2  0
  4  5  1  0
  5  6  1  0
  6  7  2  0
  7  8  1  0
  8  9  2  0
  8 10  1  0
 10 11  1  0
 11 12  2  0
 11 13  1  0
 13 14  2  0
 14 15  1  0
 15 16  2  0
 16 17  1  0
 17 18  2  0
 18 19  1  0
 18 20  1  0
 20 21  1  0
 21 22  1  0
 20 23  2  0
  5 24  2  0
 24 25  1  0
 25 26  2  0
 26 27  1  0
 26  3  1  0
 23 15  1  0
  1 28  1  0
  1 29  1  0
  1 30  1  0
  4 31  1  0
  6 32  1  0
  7 33  1  0
 10 34  1  0
 10 35  1  0
 13 36  1  0
 14 37  1  0
 16 38  1  0
 17 39  1  0
 19 40  1  0
 22 41  1  0
 22 42  1  0
 22 43  1  0
 23 44  1  0
 24 45  1  0
 25 46  1  0
 27 47  1  0
M  END
$$$$
