
     RDKit          3D

 68 72  0  0  0  0  0  0  0  0999 V2000
    4.6608   -5.1476   -2.5628 C   0  0  0  0  0  0  0  0  0  0  0  0
    4.7385   -3.7240   -2.6540 O   0  0  0  0  0  0  0  0  0  0  0  0
    5.2928   -3.1806   -1.5248 C   0  0  0  0  0  0  0  0  0  0  0  0
    6.6607   -3.3655   -1.2882 C   0  0  0  0  0  0  0  0  0  0  0  0
    7.2682   -2.7658   -0.1867 C   0  0  0  0  0  0  0  0  0  0  0  0
    6.5149   -1.9605    0.6646 C   0  0  0  0  0  0  0  0  0  0  0  0
    5.1521   -1.7488    0.4090 C   0  0  0  0  0  0  0  0  0  0  0  0
    4.5311   -2.3622   -0.6784 C   0  0  0  0  0  0  0  0  0  0  0  0
    3.0817   -2.1448   -0.8802 C   0  0  0  0  0  0  0  0  0  0  0  0
    2.4044   -2.8640   -1.6076 O   0  0  0  0  0  0  0  0  0  0  0  0
    2.4131   -1.0215   -0.1888 C   0  0  0  0  0  0  0  0  0  0  0  0
    1.1194   -0.6236   -0.5689 C   0  0  0  0  0  0  0  0  0  0  0  0
    0.4168   -1.2798   -1.5480 O   0  0  0  0  0  0  0  0  0  0  0  0
    0.4998    0.4737    0.0412 C   0  0  0  0  0  0  0  0  0  0  0  0
    1.1856    1.1874    1.0428 C   0  0  0  0  0  0  0  0  0  0  0  0
    2.4543    0.7511    1.4509 C   0  0  0  0  0  0  0  0  0  0  0  0
    3.1126    1.4505    2.4210 O   0  0  0  0  0  0  0  0  0  0  0  0
    3.0703   -0.3535    0.8451 C   0  0  0  0  0  0  0  0  0  0  0  0
    4.3801   -0.8696    1.3082 C   0  0  0  0  0  0  0  0  0  0  0  0
    4.8253   -0.6237    2.4223 O   0  0  0  0  0  0  0  0  0  0  0  0
    0.4855    2.3695    1.6726 C   0  0  0  0  0  0  0  0  0  0  0  0
   -0.3332    3.2263    0.6753 C   0  0  0  0  0  0  0  0  0  0  0  0
   -1.4199    3.8373    1.4000 O   0  0  0  0  0  0  0  0  0  0  0  0
    0.5401    4.3658    0.0931 C   0  0  0  0  0  0  0  0  0  0  0  0
    1.7728    4.3166    0.0927 O   0  0  0  0  0  0  0  0  0  0  0  0
   -0.1951    5.5270   -0.5836 C   0  0  0  0  0  0  0  0  0  0  0  0
   -1.1246    6.1940    0.2508 O   0  0  0  0  0  0  0  0  0  0  0  0
   -0.9281    2.4366   -0.5104 C   0  0  0  0  0  0  0  0  0  0  0  0
   -0.8986    0.9164   -0.3275 C   0  0  0  0  0  0  0  0  0  0  0  0
   -1.7604    0.5409    0.7478 O   0  0  0  0  0  0  0  0  0  0  0  0
   -2.9279   -0.1410    0.2929 C   0  0  0  0  0  0  0  0  0  0  0  0
   -3.7046   -0.6068    1.5284 C   0  0  0  0  0  0  0  0  0  0  0  0
   -5.2159   -0.6535    1.2699 C   0  0  0  0  0  0  0  0  0  0  0  0
   -5.8393   -1.6524    2.1597 N   0  0  0  0  0  0  0  0  0  0  0  0
   -5.5059   -0.9933   -0.2030 C   0  0  0  0  0  0  0  0  0  0  0  0
   -4.9924   -2.3123   -0.4602 O   0  0  0  0  0  0  0  0  0  0  0  0
   -4.8116    0.0215   -1.1383 C   0  0  0  0  0  0  0  0  0  0  0  0
   -5.7907    1.0845   -1.6226 C   0  0  0  0  0  0  0  0  0  0  0  0
   -3.7475    0.7307   -0.4788 O   0  0  0  0  0  0  0  0  0  0  0  0
    3.9397   -5.4927   -3.3105 H   0  0  0  0  0  0  0  0  0  0  0  0
    4.3112   -5.4781   -1.5774 H   0  0  0  0  0  0  0  0  0  0  0  0
    5.6319   -5.5987   -2.7934 H   0  0  0  0  0  0  0  0  0  0  0  0
    7.2613   -3.9601   -1.9716 H   0  0  0  0  0  0  0  0  0  0  0  0
    8.3302   -2.9131   -0.0016 H   0  0  0  0  0  0  0  0  0  0  0  0
    6.9930   -1.4837    1.5194 H   0  0  0  0  0  0  0  0  0  0  0  0
    0.9504   -2.0530   -1.8498 H   0  0  0  0  0  0  0  0  0  0  0  0
    2.5680    1.4340    3.2255 H   0  0  0  0  0  0  0  0  0  0  0  0
   -0.1769    1.9765    2.4561 H   0  0  0  0  0  0  0  0  0  0  0  0
    1.1987    3.0131    2.2012 H   0  0  0  0  0  0  0  0  0  0  0  0
   -1.0593    4.1724    2.2447 H   0  0  0  0  0  0  0  0  0  0  0  0
    0.5475    6.2626   -0.9064 H   0  0  0  0  0  0  0  0  0  0  0  0
   -0.7088    5.1568   -1.4760 H   0  0  0  0  0  0  0  0  0  0  0  0
   -1.7818    5.5215    0.5279 H   0  0  0  0  0  0  0  0  0  0  0  0
   -1.9610    2.7610   -0.6857 H   0  0  0  0  0  0  0  0  0  0  0  0
   -0.3676    2.6616   -1.4279 H   0  0  0  0  0  0  0  0  0  0  0  0
   -1.2139    0.4574   -1.2728 H   0  0  0  0  0  0  0  0  0  0  0  0
   -2.6196   -1.0074   -0.3088 H   0  0  0  0  0  0  0  0  0  0  0  0
   -3.3080   -1.5870    1.8272 H   0  0  0  0  0  0  0  0  0  0  0  0
   -3.5103    0.0521    2.3860 H   0  0  0  0  0  0  0  0  0  0  0  0
   -5.6473    0.3285    1.4991 H   0  0  0  0  0  0  0  0  0  0  0  0
   -6.8558   -1.5771    2.0923 H   0  0  0  0  0  0  0  0  0  0  0  0
   -5.6117   -1.4213    3.1288 H   0  0  0  0  0  0  0  0  0  0  0  0
   -6.5825   -1.0417   -0.4014 H   0  0  0  0  0  0  0  0  0  0  0  0
   -5.2282   -2.8277    0.3403 H   0  0  0  0  0  0  0  0  0  0  0  0
   -4.3830   -0.4885   -2.0096 H   0  0  0  0  0  0  0  0  0  0  0  0
   -5.2780    1.8194   -2.2529 H   0  0  0  0  0  0  0  0  0  0  0  0
   -6.2170    1.6384   -0.7785 H   0  0  0  0  0  0  0  0  0  0  0  0
   -6.6064    0.6397   -2.1997 H   0  0  0  0  0  0  0  0  0  0  0  0
  1  2  1  0
  2  3  1  0
  3  4  2  0
  4  5  1  0
  5  6  2  0
  6  7  1  0
  7  8  2  0
  8  9  1  0
  9 10  2  0
  9 11  1  0
 11 12  2  0
 12 13  1  0
 12 14  1  0
 14 15  2  0
 15 16  1  0
 16 17  1  0
 16 18  2  0
 18 19  1  0
 19 20  2  0
 15 21  1  0
 21 22  1  0
 22 23  1  0
 22 24  1  0
 24 25  2  0
 24 26  1  0
 26 27  1  0
 22 28  1  0
 28 29  1  0
 29 30  1  0
 30 31  1  0
 31 32  1  0
 32 33  1  0
 33 34  1  0
 33 35  1  0
 35 36  1  0
 35 37  1  0
 37 38  1  0
 37 39  1  0
  8  3  1  0
 18 11  1  0
 39 31  1  0
 19  7  1  0
 29 14  1  0
  1 40  1  0
  1 41  1  0
  1 42  1  0
  4 43  1  0
  5 44  1  0
  6 45  1  0
 13 46  1  0
 17 47  1  0
 21 48  1  0
 21 49  1  0
 23 50  1  0
 26 51  1  0
 26 52  1  0
 27 53  1  0
 28 54  1  0
 28 55  1  0
 29 56  1  0
 31 57  1  0
 32 58  1  0
 32 59  1  0
 33 60  1  0
 34 61  1  0
 34 62  1  0
 35 63  1  0
 36 64  1  0
 37 65  1  0
 38 66  1  0
 38 67  1  0
 38 68  1  0
M  END
$$$$
