
     RDKit          3D

 40 42  0  0  0  0  0  0  0  0999 V2000
    7.5612   -1.0764   -1.1751 C   0  0  0  0  0  0  0  0  0  0  0  0
    6.5706   -0.0721   -0.6400 C   0  0  0  0  0  0  0  0  0  0  0  0
    6.9272    1.0644   -0.3502 O   0  0  0  0  0  0  0  0  0  0  0  0
    5.2893   -0.5871   -0.5633 N   0  0  0  0  0  0  0  0  0  0  0  0
    4.1250    0.0718   -0.1191 C   0  0  0  0  0  0  0  0  0  0  0  0
    2.9311   -0.6564   -0.1330 C   0  0  0  0  0  0  0  0  0  0  0  0
    1.7277   -0.0778    0.2931 C   0  0  0  0  0  0  0  0  0  0  0  0
    1.6973    1.2419    0.7388 C   0  0  0  0  0  0  0  0  0  0  0  0
    0.5341    1.9033    1.1847 N   0  0  0  0  0  0  0  0  0  0  0  0
   -0.7557    1.4007    1.2291 C   0  0  0  0  0  0  0  0  0  0  0  0
   -1.1153    0.2870    0.8546 O   0  0  0  0  0  0  0  0  0  0  0  0
   -1.7715    2.4029    1.7626 C   0  0  0  0  0  0  0  0  0  0  0  0
   -2.6851    3.1418    0.3778 S   0  0  0  0  0  0  0  0  0  0  0  0
   -3.5065    1.7181   -0.1720 C   0  0  0  0  0  0  0  0  0  0  0  0
   -4.2291    0.9773    0.6040 N   0  0  0  0  0  0  0  0  0  0  0  0
   -4.7083   -0.0776   -0.1378 N   0  0  0  0  0  0  0  0  0  0  0  0
   -5.4922   -1.0591    0.4067 C   0  0  0  0  0  0  0  0  0  0  0  0
   -5.8905   -1.1485    1.5600 O   0  0  0  0  0  0  0  0  0  0  0  0
   -5.8800   -2.1183   -0.5997 C   0  0  0  0  0  0  0  0  0  0  0  0
   -6.7286   -3.2501   -0.0985 C   0  0  0  0  0  0  0  0  0  0  0  0
   -5.5154   -2.0781   -1.8471 N   0  0  0  0  0  0  0  0  0  0  0  0
   -4.7143   -1.0138   -2.3037 N   0  0  0  0  0  0  0  0  0  0  0  0
   -4.3627   -0.1097   -1.4553 C   0  0  0  0  0  0  0  0  0  0  0  0
   -3.3813    1.2648   -1.8461 S   0  0  0  0  0  0  0  0  0  0  0  0
    2.8918    1.9697    0.7539 C   0  0  0  0  0  0  0  0  0  0  0  0
    4.0950    1.3903    0.3294 C   0  0  0  0  0  0  0  0  0  0  0  0
    7.3078   -2.0909   -0.8536 H   0  0  0  0  0  0  0  0  0  0  0  0
    7.5693   -1.0288   -2.2673 H   0  0  0  0  0  0  0  0  0  0  0  0
    8.5585   -0.8404   -0.7922 H   0  0  0  0  0  0  0  0  0  0  0  0
    5.1649   -1.5450   -0.8662 H   0  0  0  0  0  0  0  0  0  0  0  0
    2.9103   -1.6884   -0.4745 H   0  0  0  0  0  0  0  0  0  0  0  0
    0.8347   -0.6937    0.2613 H   0  0  0  0  0  0  0  0  0  0  0  0
    0.6663    2.8668    1.4693 H   0  0  0  0  0  0  0  0  0  0  0  0
   -2.4438    1.8959    2.4620 H   0  0  0  0  0  0  0  0  0  0  0  0
   -1.2722    3.2019    2.3196 H   0  0  0  0  0  0  0  0  0  0  0  0
   -6.2027   -3.7753    0.7035 H   0  0  0  0  0  0  0  0  0  0  0  0
   -6.9376   -3.9575   -0.9061 H   0  0  0  0  0  0  0  0  0  0  0  0
   -7.6756   -2.8579    0.2820 H   0  0  0  0  0  0  0  0  0  0  0  0
    2.9155    3.0019    1.0944 H   0  0  0  0  0  0  0  0  0  0  0  0
    4.9909    2.0024    0.3630 H   0  0  0  0  0  0  0  0  0  0  0  0
  1  2  1  0
  2  3  2  0
  2  4  1  0
  4  5  1  0
  5  6  2  0
  6  7  1  0
  7  8  2  0
  8  9  1  0
  9 10  1  0
 10 11  2  0
 10 12  1  0
 12 13  1  0
 13 14  1  0
 14 15  2  0
 15 16  1  0
 16 17  1  0
 17 18  2  0
 17 19  1  0
 19 20  1  0
 19 21  2  0
 21 22  1  0
 22 23  2  0
 23 24  1  0
  8 25  1  0
 25 26  2  0
 26  5  1  0
 24 14  1  0
 23 16  1  0
  1 27  1  0
  1 28  1  0
  1 29  1  0
  4 30  1  0
  6 31  1  0
  7 32  1  0
  9 33  1  0
 12 34  1  0
 12 35  1  0
 20 36  1  0
 20 37  1  0
 20 38  1  0
 25 39  1  0
 26 40  1  0
M  END
$$$$
