
     RDKit          3D

 64 67  0  0  0  0  0  0  0  0999 V2000
   -5.0839    2.0067   -0.0550 C   0  0  0  0  0  0  0  0  0  0  0  0
   -4.2898    0.8532   -0.4664 N   0  0  0  0  0  0  0  0  0  0  0  0
   -3.3796    1.2300   -1.5623 C   0  0  0  0  0  0  0  0  0  0  0  0
   -2.0443    0.4812   -1.4632 C   0  0  0  0  0  0  0  0  0  0  0  0
   -1.2668    0.8726   -0.2064 C   0  0  0  0  0  0  0  0  0  0  0  0
    0.0063    0.1741   -0.1365 N   0  0  0  0  0  0  0  0  0  0  0  0
    1.0707    0.7306    0.5389 C   0  0  0  0  0  0  0  0  0  0  0  0
    1.0599    1.8826    0.9662 O   0  0  0  0  0  0  0  0  0  0  0  0
    2.3122   -0.1358    0.6669 C   0  0  0  0  0  0  0  0  0  0  0  0
    2.0570   -1.4855    1.3525 C   0  0  0  0  0  0  0  0  0  0  0  0
    3.3490   -2.3076    1.4144 C   0  0  0  0  0  0  0  0  0  0  0  0
    3.9821   -2.4494    0.0265 C   0  0  0  0  0  0  0  0  0  0  0  0
    4.1878   -1.1253   -0.5883 N   0  0  0  0  0  0  0  0  0  0  0  0
    5.3539   -0.4950   -0.2665 C   0  0  0  0  0  0  0  0  0  0  0  0
    6.3047   -0.9136    0.5398 N   0  0  0  0  0  0  0  0  0  0  0  0
    7.2696    0.0626    0.5267 C   0  0  0  0  0  0  0  0  0  0  0  0
    8.4847    0.1364    1.2230 C   0  0  0  0  0  0  0  0  0  0  0  0
    9.3029    1.2568    1.0292 C   0  0  0  0  0  0  0  0  0  0  0  0
    8.9193    2.2812    0.1580 C   0  0  0  0  0  0  0  0  0  0  0  0
    7.7118    2.2228   -0.5474 C   0  0  0  0  0  0  0  0  0  0  0  0
    6.9166    1.0964   -0.3308 C   0  0  0  0  0  0  0  0  0  0  0  0
    5.7045    0.7046   -0.8355 N   0  0  0  0  0  0  0  0  0  0  0  0
    2.9475   -0.3391   -0.7123 C   0  0  0  0  0  0  0  0  0  0  0  0
   -5.0336   -0.3924   -0.7711 C   0  0  0  0  0  0  0  0  0  0  0  0
   -5.1000   -1.3108    0.4664 C   0  0  0  0  0  0  0  0  0  0  0  0
   -6.2297   -0.9742    1.4354 C   0  0  0  0  0  0  0  0  0  0  0  0
   -7.5780   -0.9327    0.7270 C   0  0  0  0  0  0  0  0  0  0  0  0
   -7.5827    0.0078   -0.4730 C   0  0  0  0  0  0  0  0  0  0  0  0
   -6.4218   -0.2576   -1.4330 C   0  0  0  0  0  0  0  0  0  0  0  0
   -4.4231    2.8245    0.2565 H   0  0  0  0  0  0  0  0  0  0  0  0
   -5.7246    2.3891   -0.8585 H   0  0  0  0  0  0  0  0  0  0  0  0
   -5.6960    1.7914    0.8228 H   0  0  0  0  0  0  0  0  0  0  0  0
   -3.1485    2.3035   -1.5320 H   0  0  0  0  0  0  0  0  0  0  0  0
   -3.8461    1.0511   -2.5392 H   0  0  0  0  0  0  0  0  0  0  0  0
   -1.4432    0.7223   -2.3501 H   0  0  0  0  0  0  0  0  0  0  0  0
   -2.1966   -0.6052   -1.4861 H   0  0  0  0  0  0  0  0  0  0  0  0
   -1.8180    0.6104    0.7047 H   0  0  0  0  0  0  0  0  0  0  0  0
   -1.0925    1.9553   -0.1910 H   0  0  0  0  0  0  0  0  0  0  0  0
   -0.0354   -0.8304   -0.2172 H   0  0  0  0  0  0  0  0  0  0  0  0
    3.0140    0.4254    1.3003 H   0  0  0  0  0  0  0  0  0  0  0  0
    1.3008   -2.0672    0.8113 H   0  0  0  0  0  0  0  0  0  0  0  0
    1.6639   -1.3287    2.3639 H   0  0  0  0  0  0  0  0  0  0  0  0
    4.0532   -1.8206    2.1000 H   0  0  0  0  0  0  0  0  0  0  0  0
    3.1362   -3.3009    1.8259 H   0  0  0  0  0  0  0  0  0  0  0  0
    4.9173   -3.0200    0.0849 H   0  0  0  0  0  0  0  0  0  0  0  0
    3.3131   -3.0335   -0.6186 H   0  0  0  0  0  0  0  0  0  0  0  0
    8.7726   -0.6608    1.8977 H   0  0  0  0  0  0  0  0  0  0  0  0
   10.2454    1.3272    1.5673 H   0  0  0  0  0  0  0  0  0  0  0  0
    9.5714    3.1424    0.0251 H   0  0  0  0  0  0  0  0  0  0  0  0
    7.4135    3.0179   -1.2214 H   0  0  0  0  0  0  0  0  0  0  0  0
    5.1686    1.1963   -1.5296 H   0  0  0  0  0  0  0  0  0  0  0  0
    2.2611   -0.8873   -1.3724 H   0  0  0  0  0  0  0  0  0  0  0  0
    3.1159    0.6249   -1.2092 H   0  0  0  0  0  0  0  0  0  0  0  0
   -4.4259   -0.9584   -1.4898 H   0  0  0  0  0  0  0  0  0  0  0  0
   -5.2547   -2.3456    0.1150 H   0  0  0  0  0  0  0  0  0  0  0  0
   -4.1395   -1.3166    1.0002 H   0  0  0  0  0  0  0  0  0  0  0  0
   -6.0298   -0.0221    1.9393 H   0  0  0  0  0  0  0  0  0  0  0  0
   -6.2669   -1.7330    2.2262 H   0  0  0  0  0  0  0  0  0  0  0  0
   -7.8417   -1.9443    0.3914 H   0  0  0  0  0  0  0  0  0  0  0  0
   -8.3560   -0.6220    1.4359 H   0  0  0  0  0  0  0  0  0  0  0  0
   -7.5698    1.0446   -0.1253 H   0  0  0  0  0  0  0  0  0  0  0  0
   -8.5284   -0.1126   -1.0139 H   0  0  0  0  0  0  0  0  0  0  0  0
   -6.4058    0.5053   -2.2199 H   0  0  0  0  0  0  0  0  0  0  0  0
   -6.6347   -1.2031   -1.9528 H   0  0  0  0  0  0  0  0  0  0  0  0
  1  2  1  0
  2  3  1  0
  3  4  1  0
  4  5  1  0
  5  6  1  0
  6  7  1  0
  7  8  2  0
  7  9  1  0
  9 10  1  0
 10 11  1  0
 11 12  1  0
 12 13  1  0
 13 14  1  0
 14 15  2  0
 15 16  1  0
 16 17  2  0
 17 18  1  0
 18 19  2  0
 19 20  1  0
 20 21  2  0
 21 22  1  0
 13 23  1  0
  2 24  1  0
 24 25  1  0
 25 26  1  0
 26 27  1  0
 27 28  1  0
 28 29  1  0
 23  9  1  0
 29 24  1  0
 22 14  1  0
 21 16  1  0
  1 30  1  0
  1 31  1  0
  1 32  1  0
  3 33  1  0
  3 34  1  0
  4 35  1  0
  4 36  1  0
  5 37  1  0
  5 38  1  0
  6 39  1  0
  9 40  1  0
 10 41  1  0
 10 42  1  0
 11 43  1  0
 11 44  1  0
 12 45  1  0
 12 46  1  0
 17 47  1  0
 18 48  1  0
 19 49  1  0
 20 50  1  0
 22 51  1  0
 23 52  1  0
 23 53  1  0
 24 54  1  0
 25 55  1  0
 25 56  1  0
 26 57  1  0
 26 58  1  0
 27 59  1  0
 27 60  1  0
 28 61  1  0
 28 62  1  0
 29 63  1  0
 29 64  1  0
M  END
$$$$
