
     RDKit          3D

 50 53  0  0  0  0  0  0  0  0999 V2000
    6.9321   -0.6309   -1.7462 C   0  0  0  0  0  0  0  0  0  0  0  0
    5.5997   -0.3931   -1.3144 O   0  0  0  0  0  0  0  0  0  0  0  0
    5.1445   -1.0737   -0.2147 C   0  0  0  0  0  0  0  0  0  0  0  0
    5.8472   -2.1300    0.3846 C   0  0  0  0  0  0  0  0  0  0  0  0
    5.3207   -2.8025    1.4889 C   0  0  0  0  0  0  0  0  0  0  0  0
    4.0861   -2.4311    2.0053 C   0  0  0  0  0  0  0  0  0  0  0  0
    3.3761   -1.3847    1.4158 C   0  0  0  0  0  0  0  0  0  0  0  0
    3.8876   -0.6890    0.3008 C   0  0  0  0  0  0  0  0  0  0  0  0
    3.1169    0.4118   -0.2808 C   0  0  0  0  0  0  0  0  0  0  0  0
    3.4623    1.3834   -1.1034 N   0  0  0  0  0  0  0  0  0  0  0  0
    2.3343    2.1501   -1.3165 N   0  0  0  0  0  0  0  0  0  0  0  0
    1.3703    1.5952   -0.6128 C   0  0  0  0  0  0  0  0  0  0  0  0
   -0.0263    1.9834   -0.4691 C   0  0  0  0  0  0  0  0  0  0  0  0
   -0.4976    3.1389   -1.1023 C   0  0  0  0  0  0  0  0  0  0  0  0
   -1.8348    3.5409   -0.9755 C   0  0  0  0  0  0  0  0  0  0  0  0
   -2.7427    2.7938   -0.2165 C   0  0  0  0  0  0  0  0  0  0  0  0
   -4.0470    3.1433   -0.0363 O   0  0  0  0  0  0  0  0  0  0  0  0
   -4.5180    4.3456   -0.6300 C   0  0  0  0  0  0  0  0  0  0  0  0
   -2.2792    1.6284    0.4022 C   0  0  0  0  0  0  0  0  0  0  0  0
   -3.3305    0.5727    1.3743 S   0  0  0  0  0  6  0  0  0  0  0  0
   -4.7315    0.8252    1.1159 O   0  0  0  0  0  0  0  0  0  0  0  0
   -2.7987    0.5768    2.7218 O   0  0  0  0  0  0  0  0  0  0  0  0
   -3.0015   -0.9669    0.7063 N   0  0  0  0  0  0  0  0  0  0  0  0
   -3.4239   -1.1829   -0.7077 C   0  0  0  0  0  0  0  0  0  0  0  0
   -4.3035   -2.4252   -0.6828 C   0  0  0  0  0  0  0  0  0  0  0  0
   -3.7630   -3.2045    0.4983 C   0  0  0  0  0  0  0  0  0  0  0  0
   -3.5104   -2.1055    1.5177 C   0  0  0  0  0  0  0  0  0  0  0  0
   -0.9317    1.2332    0.2872 C   0  0  0  0  0  0  0  0  0  0  0  0
    1.7898    0.4872    0.0732 O   0  0  0  0  0  0  0  0  0  0  0  0
    7.0412   -1.6474   -2.1376 H   0  0  0  0  0  0  0  0  0  0  0  0
    7.1475    0.0641   -2.5635 H   0  0  0  0  0  0  0  0  0  0  0  0
    7.6518   -0.4349   -0.9444 H   0  0  0  0  0  0  0  0  0  0  0  0
    6.8098   -2.4609    0.0081 H   0  0  0  0  0  0  0  0  0  0  0  0
    5.8771   -3.6188    1.9433 H   0  0  0  0  0  0  0  0  0  0  0  0
    3.6743   -2.9519    2.8663 H   0  0  0  0  0  0  0  0  0  0  0  0
    2.4142   -1.1096    1.8453 H   0  0  0  0  0  0  0  0  0  0  0  0
    0.1807    3.7480   -1.7004 H   0  0  0  0  0  0  0  0  0  0  0  0
   -2.1301    4.4536   -1.4850 H   0  0  0  0  0  0  0  0  0  0  0  0
   -5.5732    4.4590   -0.3633 H   0  0  0  0  0  0  0  0  0  0  0  0
   -3.9804    5.2158   -0.2394 H   0  0  0  0  0  0  0  0  0  0  0  0
   -4.4541    4.2969   -1.7219 H   0  0  0  0  0  0  0  0  0  0  0  0
   -2.5219   -1.3581   -1.3046 H   0  0  0  0  0  0  0  0  0  0  0  0
   -3.9572   -0.3323   -1.1407 H   0  0  0  0  0  0  0  0  0  0  0  0
   -5.3476   -2.1428   -0.5011 H   0  0  0  0  0  0  0  0  0  0  0  0
   -4.2599   -2.9867   -1.6200 H   0  0  0  0  0  0  0  0  0  0  0  0
   -4.4611   -3.9626    0.8635 H   0  0  0  0  0  0  0  0  0  0  0  0
   -2.8227   -3.6996    0.2280 H   0  0  0  0  0  0  0  0  0  0  0  0
   -2.7693   -2.4102    2.2615 H   0  0  0  0  0  0  0  0  0  0  0  0
   -4.4457   -1.8413    2.0237 H   0  0  0  0  0  0  0  0  0  0  0  0
   -0.6006    0.3297    0.7989 H   0  0  0  0  0  0  0  0  0  0  0  0
  1  2  1  0
  2  3  1  0
  3  4  2  0
  4  5  1  0
  5  6  2  0
  6  7  1  0
  7  8  2  0
  8  9  1  0
  9 10  2  0
 10 11  1  0
 11 12  2  0
 12 13  1  0
 13 14  2  0
 14 15  1  0
 15 16  2  0
 16 17  1  0
 17 18  1  0
 16 19  1  0
 19 20  1  0
 20 21  2  0
 20 22  2  0
 20 23  1  0
 23 24  1  0
 24 25  1  0
 25 26  1  0
 26 27  1  0
 19 28  2  0
 12 29  1  0
  8  3  1  0
 29  9  1  0
 28 13  1  0
 27 23  1  0
  1 30  1  0
  1 31  1  0
  1 32  1  0
  4 33  1  0
  5 34  1  0
  6 35  1  0
  7 36  1  0
 14 37  1  0
 15 38  1  0
 18 39  1  0
 18 40  1  0
 18 41  1  0
 24 42  1  0
 24 43  1  0
 25 44  1  0
 25 45  1  0
 26 46  1  0
 26 47  1  0
 27 48  1  0
 27 49  1  0
 28 50  1  0
M  END
$$$$
