
     RDKit          3D

 50 52  0  0  0  0  0  0  0  0999 V2000
    5.9236   -0.5092   -2.9204 C   0  0  0  0  0  0  0  0  0  0  0  0
    5.4413   -1.1735   -1.7598 O   0  0  0  0  0  0  0  0  0  0  0  0
    5.0973   -0.3854   -0.6962 C   0  0  0  0  0  0  0  0  0  0  0  0
    4.5931   -1.0789    0.4055 C   0  0  0  0  0  0  0  0  0  0  0  0
    4.1980   -0.3967    1.5582 C   0  0  0  0  0  0  0  0  0  0  0  0
    4.3040    0.9973    1.6258 C   0  0  0  0  0  0  0  0  0  0  0  0
    3.8466    1.7372    2.8602 C   0  0  0  0  0  0  0  0  0  0  0  0
    2.5533    2.5388    2.6543 C   0  0  0  0  0  0  0  0  0  0  0  0
    1.4457    1.7223    2.1967 N   0  0  0  0  0  0  0  0  0  0  0  0
    0.8151    0.7838    2.9559 C   0  0  0  0  0  0  0  0  0  0  0  0
    1.0577    0.4835    4.1124 O   0  0  0  0  0  0  0  0  0  0  0  0
   -0.1596    0.1876    2.1889 N   0  0  0  0  0  0  0  0  0  0  0  0
   -0.0676    0.5837    0.8052 C   0  0  1  0  0  0  0  0  0  0  0  0
   -1.3708    1.1060    0.2279 C   0  0  0  0  0  0  0  0  0  0  0  0
   -2.3349   -0.0223   -0.0761 C   0  0  0  0  0  0  0  0  0  0  0  0
   -2.0702   -1.1854    0.2041 O   0  0  0  0  0  0  0  0  0  0  0  0
   -3.4872    0.4501   -0.6672 N   0  0  0  0  0  0  0  0  0  0  0  0
   -4.5164   -0.3716   -1.0310 C   0  0  0  0  0  0  0  0  0  0  0  0
   -4.6313   -1.6661   -0.9128 N   0  0  0  0  0  0  0  0  0  0  0  0
   -5.8532   -2.0794   -1.4190 C   0  0  0  0  0  0  0  0  0  0  0  0
   -6.1757   -3.5298   -1.3762 C   0  0  0  0  0  0  0  0  0  0  0  0
   -6.6498   -1.0591   -1.9160 C   0  0  0  0  0  0  0  0  0  0  0  0
   -8.0034   -1.1122   -2.5287 C   0  0  0  0  0  0  0  0  0  0  0  0
   -5.8344    0.4432   -1.7425 S   0  0  0  0  0  0  0  0  0  0  0  0
    0.9731    1.6954    0.9130 C   0  0  0  0  0  0  0  0  0  0  0  0
    1.3151    2.4236   -0.0096 O   0  0  0  0  0  0  0  0  0  0  0  0
    4.8148    1.6900    0.5216 C   0  0  0  0  0  0  0  0  0  0  0  0
    5.2081    1.0031   -0.6327 C   0  0  0  0  0  0  0  0  0  0  0  0
    5.1673    0.1674   -3.3319 H   0  0  0  0  0  0  0  0  0  0  0  0
    6.1358   -1.2705   -3.6773 H   0  0  0  0  0  0  0  0  0  0  0  0
    6.8582    0.0217   -2.7115 H   0  0  0  0  0  0  0  0  0  0  0  0
    4.5045   -2.1619    0.3648 H   0  0  0  0  0  0  0  0  0  0  0  0
    3.8028   -0.9639    2.3988 H   0  0  0  0  0  0  0  0  0  0  0  0
    4.6469    2.4164    3.1797 H   0  0  0  0  0  0  0  0  0  0  0  0
    3.7134    1.0262    3.6852 H   0  0  0  0  0  0  0  0  0  0  0  0
    2.2630    2.9900    3.6102 H   0  0  0  0  0  0  0  0  0  0  0  0
    2.7187    3.3495    1.9358 H   0  0  0  0  0  0  0  0  0  0  0  0
   -0.5966   -0.6740    2.4984 H   0  0  0  0  0  0  0  0  0  0  0  0
    0.3623   -0.2459    0.2336 H   0  0  0  0  0  0  0  0  0  0  0  0
   -1.8546    1.8037    0.9225 H   0  0  0  0  0  0  0  0  0  0  0  0
   -1.1772    1.6430   -0.7089 H   0  0  0  0  0  0  0  0  0  0  0  0
   -3.6134    1.4328   -0.8561 H   0  0  0  0  0  0  0  0  0  0  0  0
   -6.3993   -3.9035   -2.3804 H   0  0  0  0  0  0  0  0  0  0  0  0
   -5.3351   -4.1075   -0.9791 H   0  0  0  0  0  0  0  0  0  0  0  0
   -7.0442   -3.7085   -0.7346 H   0  0  0  0  0  0  0  0  0  0  0  0
   -7.9664   -0.7874   -3.5737 H   0  0  0  0  0  0  0  0  0  0  0  0
   -8.4108   -2.1279   -2.5092 H   0  0  0  0  0  0  0  0  0  0  0  0
   -8.7012   -0.4647   -1.9875 H   0  0  0  0  0  0  0  0  0  0  0  0
    4.9019    2.7741    0.5440 H   0  0  0  0  0  0  0  0  0  0  0  0
    5.5919    1.5850   -1.4637 H   0  0  0  0  0  0  0  0  0  0  0  0
  1  2  1  0
  2  3  1  0
  3  4  2  0
  4  5  1  0
  5  6  2  0
  6  7  1  0
  7  8  1  0
  8  9  1  0
  9 10  1  0
 10 11  2  0
 10 12  1  0
 12 13  1  0
 13 14  1  0
 14 15  1  0
 15 16  2  0
 15 17  1  0
 17 18  1  0
 18 19  2  0
 19 20  1  0
 20 21  1  0
 20 22  2  0
 22 23  1  0
 22 24  1  0
 13 25  1  0
 25 26  2  0
  6 27  1  0
 27 28  2  0
 28  3  1  0
 25  9  1  0
 24 18  1  0
  1 29  1  0
  1 30  1  0
  1 31  1  0
  4 32  1  0
  5 33  1  0
  7 34  1  0
  7 35  1  0
  8 36  1  0
  8 37  1  0
 12 38  1  0
 13 39  1  6
 14 40  1  0
 14 41  1  0
 17 42  1  0
 21 43  1  0
 21 44  1  0
 21 45  1  0
 23 46  1  0
 23 47  1  0
 23 48  1  0
 27 49  1  0
 28 50  1  0
M  END
$$$$
