
     RDKit          3D

 50 52  0  0  0  0  0  0  0  0999 V2000
   -0.6069   -5.2536    1.8660 C   0  0  0  0  0  0  0  0  0  0  0  0
   -1.3653   -4.5831    0.8693 O   0  0  0  0  0  0  0  0  0  0  0  0
   -1.0250   -3.2797    0.5782 C   0  0  0  0  0  0  0  0  0  0  0  0
   -0.0846   -2.5270    1.1782 C   0  0  0  0  0  0  0  0  0  0  0  0
    0.2524   -1.2041    0.8658 N   0  0  0  0  0  0  0  0  0  0  0  0
    1.3421   -0.5582    1.6421 C   0  0  0  0  0  0  0  0  0  0  0  0
    2.7198   -0.9606    1.1045 C   0  0  0  0  0  0  0  0  0  0  0  0
    3.1401   -2.1162    1.1412 O   0  0  0  0  0  0  0  0  0  0  0  0
    3.4622    0.0785    0.5864 N   0  0  0  0  0  0  0  0  0  0  0  0
    4.7051   -0.1849   -0.1013 C   0  0  0  0  0  0  0  0  0  0  0  0
    5.3128    1.1104   -0.4902 C   0  0  0  0  0  0  0  0  0  0  0  0
    6.5523    1.6795   -0.2790 C   0  0  0  0  0  0  0  0  0  0  0  0
    6.5208    2.9503   -0.9037 C   0  0  0  0  0  0  0  0  0  0  0  0
    5.2674    3.0771   -1.4552 C   0  0  0  0  0  0  0  0  0  0  0  0
    4.5241    1.9678   -1.2075 O   0  0  0  0  0  0  0  0  0  0  0  0
   -0.4256   -0.5786   -0.2063 C   0  0  0  0  0  0  0  0  0  0  0  0
   -0.0772    0.8295   -0.6607 C   0  0  0  0  0  0  0  0  0  0  0  0
   -0.7903    2.1036    0.4367 S   0  0  0  0  0  0  0  0  0  0  0  0
   -2.5083    1.9628   -0.0140 C   0  0  0  0  0  0  0  0  0  0  0  0
   -3.3980    1.3030    0.8365 C   0  0  0  0  0  0  0  0  0  0  0  0
   -4.7443    1.1749    0.4854 C   0  0  0  0  0  0  0  0  0  0  0  0
   -5.2161    1.7065   -0.7200 C   0  0  0  0  0  0  0  0  0  0  0  0
   -6.6646    1.5929   -1.0928 C   0  0  0  0  0  0  0  0  0  0  0  0
   -4.3258    2.3887   -1.5586 C   0  0  0  0  0  0  0  0  0  0  0  0
   -2.9792    2.5150   -1.2077 C   0  0  0  0  0  0  0  0  0  0  0  0
   -1.3831   -1.2324   -0.8953 C   0  0  0  0  0  0  0  0  0  0  0  0
   -1.7689   -2.6167   -0.5377 C   0  0  0  0  0  0  0  0  0  0  0  0
   -2.6649   -3.1770   -1.1641 O   0  0  0  0  0  0  0  0  0  0  0  0
   -0.9946   -6.2727    1.9558 H   0  0  0  0  0  0  0  0  0  0  0  0
   -0.7181   -4.7647    2.8395 H   0  0  0  0  0  0  0  0  0  0  0  0
    0.4479   -5.3184    1.5780 H   0  0  0  0  0  0  0  0  0  0  0  0
    0.5157   -2.9293    1.9886 H   0  0  0  0  0  0  0  0  0  0  0  0
    1.2979   -0.8695    2.6937 H   0  0  0  0  0  0  0  0  0  0  0  0
    1.2481    0.5298    1.6614 H   0  0  0  0  0  0  0  0  0  0  0  0
    3.0122    0.9614    0.3774 H   0  0  0  0  0  0  0  0  0  0  0  0
    5.3644   -0.7572    0.5605 H   0  0  0  0  0  0  0  0  0  0  0  0
    4.4909   -0.7924   -0.9872 H   0  0  0  0  0  0  0  0  0  0  0  0
    7.3760    1.2306    0.2593 H   0  0  0  0  0  0  0  0  0  0  0  0
    7.3142    3.6833   -0.9482 H   0  0  0  0  0  0  0  0  0  0  0  0
    4.7752    3.8532   -2.0251 H   0  0  0  0  0  0  0  0  0  0  0  0
   -0.4157    1.0163   -1.6869 H   0  0  0  0  0  0  0  0  0  0  0  0
    1.0084    0.9594   -0.6871 H   0  0  0  0  0  0  0  0  0  0  0  0
   -3.0514    0.8760    1.7746 H   0  0  0  0  0  0  0  0  0  0  0  0
   -5.4206    0.6554    1.1613 H   0  0  0  0  0  0  0  0  0  0  0  0
   -6.7676    1.3076   -2.1457 H   0  0  0  0  0  0  0  0  0  0  0  0
   -7.1694    2.5497   -0.9284 H   0  0  0  0  0  0  0  0  0  0  0  0
   -7.1710    0.8276   -0.4945 H   0  0  0  0  0  0  0  0  0  0  0  0
   -4.6775    2.8287   -2.4891 H   0  0  0  0  0  0  0  0  0  0  0  0
   -2.3078    3.0541   -1.8716 H   0  0  0  0  0  0  0  0  0  0  0  0
   -1.9284   -0.7975   -1.7240 H   0  0  0  0  0  0  0  0  0  0  0  0
  1  2  1  0
  2  3  1  0
  3  4  2  0
  4  5  1  0
  5  6  1  0
  6  7  1  0
  7  8  2  0
  7  9  1  0
  9 10  1  0
 10 11  1  0
 11 12  2  0
 12 13  1  0
 13 14  2  0
 14 15  1  0
  5 16  1  0
 16 17  1  0
 17 18  1  0
 18 19  1  0
 19 20  2  0
 20 21  1  0
 21 22  2  0
 22 23  1  0
 22 24  1  0
 24 25  2  0
 16 26  2  0
 26 27  1  0
 27 28  2  0
 27  3  1  0
 15 11  1  0
 25 19  1  0
  1 29  1  0
  1 30  1  0
  1 31  1  0
  4 32  1  0
  6 33  1  0
  6 34  1  0
  9 35  1  0
 10 36  1  0
 10 37  1  0
 12 38  1  0
 13 39  1  0
 14 40  1  0
 17 41  1  0
 17 42  1  0
 20 43  1  0
 21 44  1  0
 23 45  1  0
 23 46  1  0
 23 47  1  0
 24 48  1  0
 25 49  1  0
 26 50  1  0
M  END
$$$$
