
     RDKit          3D

 38 40  0  0  0  0  0  0  0  0999 V2000
   -2.0184   -1.9515    1.9271 C   0  0  0  0  0  0  0  0  0  0  0  0
   -1.9084   -0.8134    1.0808 O   0  0  0  0  0  0  0  0  0  0  0  0
   -2.3804   -0.9486   -0.2064 C   0  0  0  0  0  0  0  0  0  0  0  0
   -2.8759   -2.1365   -0.7540 C   0  0  0  0  0  0  0  0  0  0  0  0
   -3.3308   -2.1624   -2.0735 C   0  0  0  0  0  0  0  0  0  0  0  0
   -3.2896   -1.0071   -2.8497 C   0  0  0  0  0  0  0  0  0  0  0  0
   -2.7963    0.1838   -2.3123 C   0  0  0  0  0  0  0  0  0  0  0  0
   -2.3394    0.2238   -0.9938 C   0  0  0  0  0  0  0  0  0  0  0  0
   -1.8334    1.3898   -0.3761 N   0  0  0  0  0  0  0  0  0  0  0  0
   -1.6612    2.6476   -0.9236 C   0  0  0  0  0  0  0  0  0  0  0  0
   -1.9206    2.9733   -2.0792 O   0  0  0  0  0  0  0  0  0  0  0  0
   -1.1085    3.6592    0.0706 C   0  0  0  0  0  0  0  0  0  0  0  0
    0.5859    4.1318   -0.3539 S   0  0  0  0  0  0  0  0  0  0  0  0
    1.4548    2.6717    0.0246 C   0  0  0  0  0  0  0  0  0  0  0  0
    2.7169    2.4934   -0.3148 N   0  0  0  0  0  0  0  0  0  0  0  0
    3.0042    1.2476    0.1575 C   0  0  0  0  0  0  0  0  0  0  0  0
    4.1840    0.5973    0.0523 N   0  0  0  0  0  0  0  0  0  0  0  0
    4.1956   -0.6383    0.6107 C   0  0  0  0  0  0  0  0  0  0  0  0
    5.4868   -1.4026    0.5170 C   0  0  0  0  0  0  0  0  0  0  0  0
    3.0983   -1.2303    1.2572 C   0  0  0  0  0  0  0  0  0  0  0  0
    1.8857   -0.5458    1.3650 C   0  0  0  0  0  0  0  0  0  0  0  0
    1.8970    0.7107    0.7881 C   0  0  0  0  0  0  0  0  0  0  0  0
    0.8938    1.6275    0.7229 O   0  0  0  0  0  0  0  0  0  0  0  0
   -1.4008   -2.7768    1.5578 H   0  0  0  0  0  0  0  0  0  0  0  0
   -1.6385   -1.6696    2.9138 H   0  0  0  0  0  0  0  0  0  0  0  0
   -3.0626   -2.2577    2.0478 H   0  0  0  0  0  0  0  0  0  0  0  0
   -2.9252   -3.0583   -0.1854 H   0  0  0  0  0  0  0  0  0  0  0  0
   -3.7171   -3.0859   -2.4981 H   0  0  0  0  0  0  0  0  0  0  0  0
   -3.6424   -1.0272   -3.8778 H   0  0  0  0  0  0  0  0  0  0  0  0
   -2.7815    1.0618   -2.9498 H   0  0  0  0  0  0  0  0  0  0  0  0
   -1.5153    1.2281    0.5754 H   0  0  0  0  0  0  0  0  0  0  0  0
   -1.1581    3.2883    1.0991 H   0  0  0  0  0  0  0  0  0  0  0  0
   -1.7466    4.5482    0.0252 H   0  0  0  0  0  0  0  0  0  0  0  0
    5.8654   -1.6264    1.5187 H   0  0  0  0  0  0  0  0  0  0  0  0
    6.2475   -0.8206   -0.0132 H   0  0  0  0  0  0  0  0  0  0  0  0
    5.3323   -2.3388   -0.0283 H   0  0  0  0  0  0  0  0  0  0  0  0
    3.1899   -2.2286    1.6782 H   0  0  0  0  0  0  0  0  0  0  0  0
    1.0129   -0.9574    1.8513 H   0  0  0  0  0  0  0  0  0  0  0  0
  1  2  1  0
  2  3  1  0
  3  4  2  0
  4  5  1  0
  5  6  2  0
  6  7  1  0
  7  8  2  0
  8  9  1  0
  9 10  1  0
 10 11  2  0
 10 12  1  0
 12 13  1  0
 13 14  1  0
 14 15  2  0
 15 16  1  0
 16 17  2  0
 17 18  1  0
 18 19  1  0
 18 20  2  0
 20 21  1  0
 21 22  2  0
 22 23  1  0
  8  3  1  0
 23 14  1  0
 22 16  1  0
  1 24  1  0
  1 25  1  0
  1 26  1  0
  4 27  1  0
  5 28  1  0
  6 29  1  0
  7 30  1  0
  9 31  1  0
 12 32  1  0
 12 33  1  0
 19 34  1  0
 19 35  1  0
 19 36  1  0
 20 37  1  0
 21 38  1  0
M  END
$$$$
