
     RDKit          3D

 43 44  0  0  0  0  0  0  0  0999 V2000
   -3.4504    2.3129   -0.8486 C   0  0  0  0  0  0  0  0  0  0  0  0
   -2.0975    1.9049   -0.6364 O   0  0  0  0  0  0  0  0  0  0  0  0
   -1.7463    1.8092    0.6693 C   0  0  0  0  0  0  0  0  0  0  0  0
   -2.4660    2.0449    1.6262 O   0  0  0  0  0  0  0  0  0  0  0  0
   -0.3388    1.3567    0.7613 C   0  0  0  0  0  0  0  0  0  0  0  0
    0.5129    1.8902    1.6680 C   0  0  0  0  0  0  0  0  0  0  0  0
    0.1635    3.0100    2.6163 C   0  0  0  0  0  0  0  0  0  0  0  0
    1.8180    1.4250    1.7396 N   0  0  0  0  0  0  0  0  0  0  0  0
    2.3735    0.5081    0.8614 C   0  0  0  0  0  0  0  0  0  0  0  0
    3.8502    0.2529    1.0206 C   0  0  0  0  0  0  0  0  0  0  0  0
    1.5889   -0.0686   -0.0742 C   0  0  0  0  0  0  0  0  0  0  0  0
    2.1475   -1.0157   -1.0535 C   0  0  0  0  0  0  0  0  0  0  0  0
    2.5456   -2.1354   -0.7783 O   0  0  0  0  0  0  0  0  0  0  0  0
    2.1545   -0.4214   -2.2695 O   0  0  0  0  0  0  0  0  0  0  0  0
    2.6315   -1.2615   -3.3201 C   0  0  0  0  0  0  0  0  0  0  0  0
    0.0982    0.2312   -0.1829 C   0  0  0  0  0  0  0  0  0  0  0  0
   -0.7388   -1.0337    0.0628 C   0  0  0  0  0  0  0  0  0  0  0  0
   -0.6500   -1.6822    1.3133 C   0  0  0  0  0  0  0  0  0  0  0  0
   -1.4186   -2.8137    1.6048 C   0  0  0  0  0  0  0  0  0  0  0  0
   -2.3018   -3.3287    0.6596 C   0  0  0  0  0  0  0  0  0  0  0  0
   -2.4157   -2.7159   -0.5849 C   0  0  0  0  0  0  0  0  0  0  0  0
   -1.6357   -1.5844   -0.8748 C   0  0  0  0  0  0  0  0  0  0  0  0
   -1.8021   -1.0130   -2.2012 N   0  0  0  0  0  4  0  0  0  0  0  0
   -2.9367   -0.6244   -2.5096 O   0  0  0  0  0  0  0  0  0  0  0  0
   -0.8062   -0.9850   -2.9346 O   0  0  0  0  0  1  0  0  0  0  0  0
   -4.1414    1.5769   -0.4259 H   0  0  0  0  0  0  0  0  0  0  0  0
   -3.6216    2.3710   -1.9270 H   0  0  0  0  0  0  0  0  0  0  0  0
   -3.6249    3.3030   -0.4160 H   0  0  0  0  0  0  0  0  0  0  0  0
   -0.6451    3.6457    2.2453 H   0  0  0  0  0  0  0  0  0  0  0  0
    1.0252    3.6713    2.7637 H   0  0  0  0  0  0  0  0  0  0  0  0
   -0.1225    2.6025    3.5911 H   0  0  0  0  0  0  0  0  0  0  0  0
    2.4458    1.8853    2.3950 H   0  0  0  0  0  0  0  0  0  0  0  0
    4.0440   -0.2303    1.9840 H   0  0  0  0  0  0  0  0  0  0  0  0
    4.2720   -0.3817    0.2371 H   0  0  0  0  0  0  0  0  0  0  0  0
    4.3996    1.2005    0.9958 H   0  0  0  0  0  0  0  0  0  0  0  0
    2.5408   -0.7123   -4.2612 H   0  0  0  0  0  0  0  0  0  0  0  0
    2.0284   -2.1722   -3.3914 H   0  0  0  0  0  0  0  0  0  0  0  0
    3.6861   -1.5071   -3.1611 H   0  0  0  0  0  0  0  0  0  0  0  0
   -0.0579    0.6099   -1.1986 H   0  0  0  0  0  0  0  0  0  0  0  0
    0.0237   -1.3047    2.0833 H   0  0  0  0  0  0  0  0  0  0  0  0
   -1.3267   -3.2911    2.5784 H   0  0  0  0  0  0  0  0  0  0  0  0
   -2.8986   -4.2069    0.8943 H   0  0  0  0  0  0  0  0  0  0  0  0
   -3.1064   -3.1221   -1.3213 H   0  0  0  0  0  0  0  0  0  0  0  0
  1  2  1  0
  2  3  1  0
  3  4  2  0
  3  5  1  0
  5  6  2  0
  6  7  1  0
  6  8  1  0
  8  9  1  0
  9 10  1  0
  9 11  2  0
 11 12  1  0
 12 13  2  0
 12 14  1  0
 14 15  1  0
 11 16  1  0
 16 17  1  0
 17 18  2  0
 18 19  1  0
 19 20  2  0
 20 21  1  0
 21 22  2  0
 22 23  1  0
 23 24  2  0
 23 25  1  0
 16  5  1  0
 22 17  1  0
  1 26  1  0
  1 27  1  0
  1 28  1  0
  7 29  1  0
  7 30  1  0
  7 31  1  0
  8 32  1  0
 10 33  1  0
 10 34  1  0
 10 35  1  0
 15 36  1  0
 15 37  1  0
 15 38  1  0
 16 39  1  0
 18 40  1  0
 19 41  1  0
 20 42  1  0
 21 43  1  0
M  CHG  2  23   1  25  -1
M  END
$$$$
