
     RDKit          3D

 41 43  0  0  0  0  0  0  0  0999 V2000
    7.3674    0.7330    0.3815 C   0  0  0  0  0  0  0  0  0  0  0  0
    6.6505    0.2767   -0.8799 C   0  0  0  0  0  0  0  0  0  0  0  0
    5.1540    0.2728   -0.7038 C   0  0  0  0  0  0  0  0  0  0  0  0
    4.3987    1.4136   -0.9918 C   0  0  0  0  0  0  0  0  0  0  0  0
    3.0119    1.4087   -0.8115 C   0  0  0  0  0  0  0  0  0  0  0  0
    2.3544    0.2665   -0.3384 C   0  0  0  0  0  0  0  0  0  0  0  0
    0.9549    0.3475   -0.1792 N   0  0  0  0  0  0  0  0  0  0  0  0
    0.0936   -0.6657    0.2013 C   0  0  0  0  0  0  0  0  0  0  0  0
    0.3771   -1.8388    0.4081 O   0  0  0  0  0  0  0  0  0  0  0  0
   -1.3322   -0.2538    0.3270 C   0  0  0  0  0  0  0  0  0  0  0  0
   -1.6916    0.9891    0.8620 C   0  0  0  0  0  0  0  0  0  0  0  0
   -3.0402    1.3402    0.9557 C   0  0  0  0  0  0  0  0  0  0  0  0
   -4.0339    0.4576    0.5224 C   0  0  0  0  0  0  0  0  0  0  0  0
   -3.6762   -0.8146    0.0520 C   0  0  0  0  0  0  0  0  0  0  0  0
   -2.3267   -1.1569   -0.0656 C   0  0  0  0  0  0  0  0  0  0  0  0
   -4.5569   -1.7955   -0.3298 O   0  0  0  0  0  0  0  0  0  0  0  0
   -5.7394   -1.8369    0.4704 C   0  0  0  0  0  0  0  0  0  0  0  0
   -6.7873   -0.8723   -0.0572 C   0  0  0  0  0  0  0  0  0  0  0  0
   -6.1854    0.4770   -0.4100 C   0  0  0  0  0  0  0  0  0  0  0  0
   -5.3145    0.9403    0.6231 O   0  0  0  0  0  0  0  0  0  0  0  0
    3.1094   -0.8677   -0.0417 C   0  0  0  0  0  0  0  0  0  0  0  0
    4.4977   -0.8647   -0.2216 C   0  0  0  0  0  0  0  0  0  0  0  0
    7.1428    0.0737    1.2268 H   0  0  0  0  0  0  0  0  0  0  0  0
    8.4507    0.7261    0.2246 H   0  0  0  0  0  0  0  0  0  0  0  0
    7.0715    1.7499    0.6609 H   0  0  0  0  0  0  0  0  0  0  0  0
    6.9920   -0.7280   -1.1576 H   0  0  0  0  0  0  0  0  0  0  0  0
    6.9215    0.9310   -1.7175 H   0  0  0  0  0  0  0  0  0  0  0  0
    4.8848    2.3147   -1.3586 H   0  0  0  0  0  0  0  0  0  0  0  0
    2.4574    2.3126   -1.0485 H   0  0  0  0  0  0  0  0  0  0  0  0
    0.5382    1.2316   -0.4382 H   0  0  0  0  0  0  0  0  0  0  0  0
   -0.9399    1.6823    1.2297 H   0  0  0  0  0  0  0  0  0  0  0  0
   -3.3213    2.3099    1.3599 H   0  0  0  0  0  0  0  0  0  0  0  0
   -2.0513   -2.1384   -0.4467 H   0  0  0  0  0  0  0  0  0  0  0  0
   -5.5107   -1.6542    1.5294 H   0  0  0  0  0  0  0  0  0  0  0  0
   -6.1333   -2.8583    0.4194 H   0  0  0  0  0  0  0  0  0  0  0  0
   -7.5678   -0.7551    0.7033 H   0  0  0  0  0  0  0  0  0  0  0  0
   -7.2665   -1.2842   -0.9528 H   0  0  0  0  0  0  0  0  0  0  0  0
   -6.9912    1.2129   -0.5107 H   0  0  0  0  0  0  0  0  0  0  0  0
   -5.6731    0.4565   -1.3817 H   0  0  0  0  0  0  0  0  0  0  0  0
    2.6502   -1.7752    0.3376 H   0  0  0  0  0  0  0  0  0  0  0  0
    5.0606   -1.7635    0.0213 H   0  0  0  0  0  0  0  0  0  0  0  0
  1  2  1  0
  2  3  1  0
  3  4  2  0
  4  5  1  0
  5  6  2  0
  6  7  1  0
  7  8  1  0
  8  9  2  0
  8 10  1  0
 10 11  2  0
 11 12  1  0
 12 13  2  0
 13 14  1  0
 14 15  2  0
 14 16  1  0
 16 17  1  0
 17 18  1  0
 18 19  1  0
 19 20  1  0
  6 21  1  0
 21 22  2  0
 22  3  1  0
 15 10  1  0
 20 13  1  0
  1 23  1  0
  1 24  1  0
  1 25  1  0
  2 26  1  0
  2 27  1  0
  4 28  1  0
  5 29  1  0
  7 30  1  0
 11 31  1  0
 12 32  1  0
 15 33  1  0
 17 34  1  0
 17 35  1  0
 18 36  1  0
 18 37  1  0
 19 38  1  0
 19 39  1  0
 21 40  1  0
 22 41  1  0
M  END
$$$$
