
     RDKit          3D

 41 43  0  0  0  0  0  0  0  0999 V2000
   -3.1862    4.1333    0.4126 C   0  0  0  0  0  0  0  0  0  0  0  0
   -3.3921    2.7272    0.3624 O   0  0  0  0  0  0  0  0  0  0  0  0
   -2.2811    1.9337    0.4551 C   0  0  0  0  0  0  0  0  0  0  0  0
   -0.9761    2.3722    0.6340 C   0  0  0  0  0  0  0  0  0  0  0  0
    0.0867    1.4614    0.7100 C   0  0  0  0  0  0  0  0  0  0  0  0
   -0.1772    0.0822    0.5835 C   0  0  0  0  0  0  0  0  0  0  0  0
   -1.4896   -0.3787    0.4608 C   0  0  0  0  0  0  0  0  0  0  0  0
   -2.5404    0.5620    0.3761 C   0  0  0  0  0  0  0  0  0  0  0  0
   -1.4568   -1.8032    0.4803 C   0  0  0  0  0  0  0  0  0  0  0  0
   -2.6530   -2.7064    0.3978 C   0  0  0  0  0  0  0  0  0  0  0  0
   -2.9867   -3.1059   -1.0207 C   0  0  0  0  0  0  0  0  0  0  0  0
   -2.3656   -2.8728   -2.0443 O   0  0  0  0  0  0  0  0  0  0  0  0
   -4.1298   -3.8259   -1.0817 O   0  0  0  0  0  0  0  0  0  0  0  0
   -0.1278   -2.1811    0.6089 C   0  0  0  0  0  0  0  0  0  0  0  0
    0.4493   -3.5590    0.6715 C   0  0  0  0  0  0  0  0  0  0  0  0
    0.6698   -1.0332    0.5889 N   0  0  0  0  0  0  0  0  0  0  0  0
    2.0899   -1.0106    0.5807 C   0  0  0  0  0  0  0  0  0  0  0  0
    2.6885   -1.9663    1.0734 O   0  0  0  0  0  0  0  0  0  0  0  0
    2.9180    0.0683   -0.0076 C   0  0  0  0  0  0  0  0  0  0  0  0
    2.5905    0.6240   -1.2514 C   0  0  0  0  0  0  0  0  0  0  0  0
    3.4005    1.6217   -1.8001 C   0  0  0  0  0  0  0  0  0  0  0  0
    4.5396    2.0466   -1.1156 C   0  0  0  0  0  0  0  0  0  0  0  0
    5.5325    3.2767   -1.7936 Cl  0  0  0  0  0  0  0  0  0  0  0  0
    4.8833    1.4774    0.1106 C   0  0  0  0  0  0  0  0  0  0  0  0
    4.0763    0.4802    0.6632 C   0  0  0  0  0  0  0  0  0  0  0  0
   -2.5533    4.4703   -0.4150 H   0  0  0  0  0  0  0  0  0  0  0  0
   -2.7695    4.4362    1.3789 H   0  0  0  0  0  0  0  0  0  0  0  0
   -4.1614    4.6179    0.3045 H   0  0  0  0  0  0  0  0  0  0  0  0
   -0.7391    3.4276    0.7266 H   0  0  0  0  0  0  0  0  0  0  0  0
    1.0886    1.8433    0.8784 H   0  0  0  0  0  0  0  0  0  0  0  0
   -3.5672    0.2240    0.2637 H   0  0  0  0  0  0  0  0  0  0  0  0
   -3.5263   -2.2002    0.8248 H   0  0  0  0  0  0  0  0  0  0  0  0
   -2.4797   -3.6171    0.9812 H   0  0  0  0  0  0  0  0  0  0  0  0
   -4.2283   -4.0212   -2.0377 H   0  0  0  0  0  0  0  0  0  0  0  0
   -0.3199   -4.3222    0.5198 H   0  0  0  0  0  0  0  0  0  0  0  0
    0.9032   -3.7424    1.6504 H   0  0  0  0  0  0  0  0  0  0  0  0
    1.2002   -3.7063   -0.1112 H   0  0  0  0  0  0  0  0  0  0  0  0
    1.7155    0.2865   -1.8037 H   0  0  0  0  0  0  0  0  0  0  0  0
    3.1424    2.0570   -2.7626 H   0  0  0  0  0  0  0  0  0  0  0  0
    5.7793    1.7988    0.6359 H   0  0  0  0  0  0  0  0  0  0  0  0
    4.3530    0.0239    1.6120 H   0  0  0  0  0  0  0  0  0  0  0  0
  1  2  1  0
  2  3  1  0
  3  4  2  0
  4  5  1  0
  5  6  2  0
  6  7  1  0
  7  8  2  0
  7  9  1  0
  9 10  1  0
 10 11  1  0
 11 12  2  0
 11 13  1  0
  9 14  2  0
 14 15  1  0
 14 16  1  0
 16 17  1  0
 17 18  2  0
 17 19  1  0
 19 20  2  0
 20 21  1  0
 21 22  2  0
 22 23  1  0
 22 24  1  0
 24 25  2  0
  8  3  1  0
 25 19  1  0
 16  6  1  0
  1 26  1  0
  1 27  1  0
  1 28  1  0
  4 29  1  0
  5 30  1  0
  8 31  1  0
 10 32  1  0
 10 33  1  0
 13 34  1  0
 15 35  1  0
 15 36  1  0
 15 37  1  0
 20 38  1  0
 21 39  1  0
 24 40  1  0
 25 41  1  0
M  END
$$$$
