
     RDKit          3D

 36 38  0  0  0  0  0  0  0  0999 V2000
    6.5481   -0.6418    0.5294 C   0  0  0  0  0  0  0  0  0  0  0  0
    5.9730    0.6654    1.0567 C   0  0  0  0  0  0  0  0  0  0  0  0
    4.4517    0.6264    1.1862 C   0  0  0  0  0  0  0  0  0  0  0  0
    3.7215    0.6986   -0.1470 C   0  0  0  0  0  0  0  0  0  0  0  0
    4.2878    0.9256   -1.2071 O   0  0  0  0  0  0  0  0  0  0  0  0
    2.3519    0.5095    0.0096 N   0  0  0  0  0  0  0  0  0  0  0  0
    1.3471    0.4703   -0.9216 C   0  0  0  0  0  0  0  0  0  0  0  0
    0.1256    0.2743   -0.5159 N   0  0  0  0  0  0  0  0  0  0  0  0
   -0.6368    0.2833   -1.6508 N   0  0  0  0  0  0  0  0  0  0  0  0
   -1.9782    0.1294   -1.9230 C   0  0  0  0  0  0  0  0  0  0  0  0
   -3.0612   -0.1069   -0.9623 C   0  0  0  0  0  0  0  0  0  0  0  0
   -4.3524   -0.3789   -1.4486 C   0  0  0  0  0  0  0  0  0  0  0  0
   -5.4262   -0.6120   -0.5809 C   0  0  0  0  0  0  0  0  0  0  0  0
   -5.2309   -0.5859    0.8013 C   0  0  0  0  0  0  0  0  0  0  0  0
   -6.3702   -0.8023    1.7488 C   0  0  0  0  0  0  0  0  0  0  0  0
   -3.9539   -0.2997    1.2839 C   0  0  0  0  0  0  0  0  0  0  0  0
   -3.7396   -0.2429    2.6066 F   0  0  0  0  0  0  0  0  0  0  0  0
   -2.8803   -0.0662    0.4242 C   0  0  0  0  0  0  0  0  0  0  0  0
   -2.1221    0.2241   -3.2468 N   0  0  0  0  0  0  0  0  0  0  0  0
   -0.8826    0.4437   -3.8342 N   0  0  0  0  0  0  0  0  0  0  0  0
   -0.0365    0.4706   -2.8491 C   0  0  0  0  0  0  0  0  0  0  0  0
    1.6450    0.6705   -2.6471 S   0  0  0  0  0  0  0  0  0  0  0  0
    6.1825   -0.8657   -0.4771 H   0  0  0  0  0  0  0  0  0  0  0  0
    6.2831   -1.4782    1.1842 H   0  0  0  0  0  0  0  0  0  0  0  0
    7.6401   -0.5813    0.4845 H   0  0  0  0  0  0  0  0  0  0  0  0
    6.4049    0.8580    2.0460 H   0  0  0  0  0  0  0  0  0  0  0  0
    6.2841    1.4905    0.4058 H   0  0  0  0  0  0  0  0  0  0  0  0
    4.1268    1.4915    1.7770 H   0  0  0  0  0  0  0  0  0  0  0  0
    4.1415   -0.2803    1.7186 H   0  0  0  0  0  0  0  0  0  0  0  0
    2.0123    0.3643    0.9502 H   0  0  0  0  0  0  0  0  0  0  0  0
   -4.5348   -0.4097   -2.5233 H   0  0  0  0  0  0  0  0  0  0  0  0
   -6.4110   -0.8130   -0.9976 H   0  0  0  0  0  0  0  0  0  0  0  0
   -7.1924   -1.3379    1.2625 H   0  0  0  0  0  0  0  0  0  0  0  0
   -6.7465    0.1601    2.1089 H   0  0  0  0  0  0  0  0  0  0  0  0
   -6.0521   -1.4055    2.6056 H   0  0  0  0  0  0  0  0  0  0  0  0
   -1.9194    0.1520    0.8764 H   0  0  0  0  0  0  0  0  0  0  0  0
  1  2  1  0
  2  3  1  0
  3  4  1  0
  4  5  2  0
  4  6  1  0
  6  7  1  0
  7  8  2  0
  8  9  1  0
  9 10  1  0
 10 11  1  0
 11 12  2  0
 12 13  1  0
 13 14  2  0
 14 15  1  0
 14 16  1  0
 16 17  1  0
 16 18  2  0
 10 19  2  0
 19 20  1  0
 20 21  2  0
 21 22  1  0
 22  7  1  0
 21  9  1  0
 18 11  1  0
  1 23  1  0
  1 24  1  0
  1 25  1  0
  2 26  1  0
  2 27  1  0
  3 28  1  0
  3 29  1  0
  6 30  1  0
 12 31  1  0
 13 32  1  0
 15 33  1  0
 15 34  1  0
 15 35  1  0
 18 36  1  0
M  END
$$$$
