
     RDKit          3D

 47 50  0  0  0  0  0  0  0  0999 V2000
    2.9248    0.2426   -2.3964 O   0  0  0  0  0  0  0  0  0  0  0  0
    2.7388    1.4159   -2.0866 C   0  0  0  0  0  0  0  0  0  0  0  0
    3.8895    2.4125   -2.1070 C   0  0  0  0  0  0  0  0  0  0  0  0
    4.1129    3.1928   -0.4810 S   0  0  0  0  0  0  0  0  0  0  0  0
    4.5772    1.8015    0.4623 C   0  0  0  0  0  0  0  0  0  0  0  0
    4.3572    1.7198    1.7606 N   0  0  0  0  0  0  0  0  0  0  0  0
    4.8500    0.4901    2.0877 C   0  0  0  0  0  0  0  0  0  0  0  0
    4.8558   -0.0774    3.3161 N   0  0  0  0  0  0  0  0  0  0  0  0
    5.4090   -1.3143    3.3398 C   0  0  0  0  0  0  0  0  0  0  0  0
    5.9389   -1.9957    2.2422 C   0  0  0  0  0  0  0  0  0  0  0  0
    5.9263   -1.3963    0.9813 C   0  0  0  0  0  0  0  0  0  0  0  0
    5.3620   -0.1333    0.9631 C   0  0  0  0  0  0  0  0  0  0  0  0
    5.1986    0.7106   -0.0909 O   0  0  0  0  0  0  0  0  0  0  0  0
    1.5251    1.9944   -1.7403 N   0  0  0  0  0  0  0  0  0  0  0  0
    0.2646    1.3706   -1.6539 C   0  0  0  0  0  0  0  0  0  0  0  0
   -0.8231    2.1830   -1.2998 C   0  0  0  0  0  0  0  0  0  0  0  0
   -2.1113    1.6508   -1.2035 C   0  0  0  0  0  0  0  0  0  0  0  0
   -2.3110    0.2911   -1.4461 C   0  0  0  0  0  0  0  0  0  0  0  0
   -3.9437   -0.3977   -1.3544 S   0  0  0  0  0  6  0  0  0  0  0  0
   -4.0701   -1.3689   -2.4223 O   0  0  0  0  0  0  0  0  0  0  0  0
   -4.8938    0.6875   -1.2203 O   0  0  0  0  0  0  0  0  0  0  0  0
   -3.9221   -1.2461    0.1279 N   0  0  0  0  0  0  0  0  0  0  0  0
   -3.6108   -0.4149    1.3405 C   0  0  0  0  0  0  0  0  0  0  0  0
   -4.1360   -1.0929    2.6092 C   0  0  0  0  0  0  0  0  0  0  0  0
   -5.5635   -1.2393    2.6160 O   0  0  0  0  0  0  0  0  0  0  0  0
   -6.1184   -1.4248    1.3042 C   0  0  0  0  0  0  0  0  0  0  0  0
   -5.1417   -2.1018    0.3368 C   0  0  0  0  0  0  0  0  0  0  0  0
   -1.2406   -0.5300   -1.8025 C   0  0  0  0  0  0  0  0  0  0  0  0
    0.0444    0.0129   -1.9043 C   0  0  0  0  0  0  0  0  0  0  0  0
    3.6690    3.1835   -2.8533 H   0  0  0  0  0  0  0  0  0  0  0  0
    4.8080    1.9088   -2.4178 H   0  0  0  0  0  0  0  0  0  0  0  0
    5.4200   -1.7788    4.3225 H   0  0  0  0  0  0  0  0  0  0  0  0
    6.3600   -2.9877    2.3700 H   0  0  0  0  0  0  0  0  0  0  0  0
    6.3163   -1.8704    0.0926 H   0  0  0  0  0  0  0  0  0  0  0  0
    1.5540    2.9769   -1.4862 H   0  0  0  0  0  0  0  0  0  0  0  0
   -0.6862    3.2444   -1.1045 H   0  0  0  0  0  0  0  0  0  0  0  0
   -2.9454    2.3012   -0.9452 H   0  0  0  0  0  0  0  0  0  0  0  0
   -2.5246   -0.2974    1.4171 H   0  0  0  0  0  0  0  0  0  0  0  0
   -4.0721    0.5727    1.2482 H   0  0  0  0  0  0  0  0  0  0  0  0
   -3.6930   -2.0876    2.7289 H   0  0  0  0  0  0  0  0  0  0  0  0
   -3.8623   -0.5070    3.4908 H   0  0  0  0  0  0  0  0  0  0  0  0
   -6.4249   -0.4428    0.9273 H   0  0  0  0  0  0  0  0  0  0  0  0
   -7.0230   -2.0308    1.4150 H   0  0  0  0  0  0  0  0  0  0  0  0
   -5.6413   -2.3251   -0.6126 H   0  0  0  0  0  0  0  0  0  0  0  0
   -4.7981   -3.0595    0.7494 H   0  0  0  0  0  0  0  0  0  0  0  0
   -1.3973   -1.5875   -2.0062 H   0  0  0  0  0  0  0  0  0  0  0  0
    0.8521   -0.6557   -2.1843 H   0  0  0  0  0  0  0  0  0  0  0  0
  1  2  2  0
  2  3  1  0
  3  4  1  0
  4  5  1  0
  5  6  2  0
  6  7  1  0
  7  8  2  0
  8  9  1  0
  9 10  2  0
 10 11  1  0
 11 12  2  0
 12 13  1  0
  2 14  1  0
 14 15  1  0
 15 16  2  0
 16 17  1  0
 17 18  2  0
 18 19  1  0
 19 20  2  0
 19 21  2  0
 19 22  1  0
 22 23  1  0
 23 24  1  0
 24 25  1  0
 25 26  1  0
 26 27  1  0
 18 28  1  0
 28 29  2  0
 13  5  1  0
 29 15  1  0
 12  7  1  0
 27 22  1  0
  3 30  1  0
  3 31  1  0
  9 32  1  0
 10 33  1  0
 11 34  1  0
 14 35  1  0
 16 36  1  0
 17 37  1  0
 23 38  1  0
 23 39  1  0
 24 40  1  0
 24 41  1  0
 26 42  1  0
 26 43  1  0
 27 44  1  0
 27 45  1  0
 28 46  1  0
 29 47  1  0
M  END
$$$$
