
     RDKit          3D

 30 32  0  0  0  0  0  0  0  0999 V2000
    1.8663   -2.2449    2.1590 O   0  0  0  0  0  0  0  0  0  0  0  0
    1.4171   -1.4296    1.3649 C   0  0  0  0  0  0  0  0  0  0  0  0
   -0.0440   -1.2562    1.2747 C   0  0  0  0  0  0  0  0  0  0  0  0
   -0.5573   -0.3719    0.4103 C   0  0  0  0  0  0  0  0  0  0  0  0
   -2.0127   -0.1565    0.2898 C   0  0  0  0  0  0  0  0  0  0  0  0
   -2.9156   -1.2314    0.2727 C   0  0  0  0  0  0  0  0  0  0  0  0
   -4.2891   -1.0063    0.1470 C   0  0  0  0  0  0  0  0  0  0  0  0
   -4.7674    0.2923    0.0317 C   0  0  0  0  0  0  0  0  0  0  0  0
   -6.1138    0.4650   -0.0890 O   0  0  0  0  0  0  0  0  0  0  0  0
   -3.8947    1.3738    0.0365 C   0  0  0  0  0  0  0  0  0  0  0  0
   -2.5205    1.1469    0.1620 C   0  0  0  0  0  0  0  0  0  0  0  0
    0.2052    0.4299   -0.4192 O   0  0  0  0  0  0  0  0  0  0  0  0
    1.5718    0.3032   -0.3790 C   0  0  0  0  0  0  0  0  0  0  0  0
    2.2866    1.1289   -1.2486 C   0  0  0  0  0  0  0  0  0  0  0  0
    3.6737    1.0645   -1.2709 C   0  0  0  0  0  0  0  0  0  0  0  0
    4.3297    1.8894   -2.1355 O   0  0  0  0  0  0  0  0  0  0  0  0
    4.3616    0.1876   -0.4380 C   0  0  0  0  0  0  0  0  0  0  0  0
    3.6412   -0.6379    0.4320 C   0  0  0  0  0  0  0  0  0  0  0  0
    4.3290   -1.4940    1.2440 O   0  0  0  0  0  0  0  0  0  0  0  0
    2.2398   -0.5856    0.4678 C   0  0  0  0  0  0  0  0  0  0  0  0
   -0.6401   -1.8663    1.9412 H   0  0  0  0  0  0  0  0  0  0  0  0
   -2.5624   -2.2577    0.3440 H   0  0  0  0  0  0  0  0  0  0  0  0
   -4.9815   -1.8434    0.1344 H   0  0  0  0  0  0  0  0  0  0  0  0
   -6.3001    1.4154   -0.1617 H   0  0  0  0  0  0  0  0  0  0  0  0
   -4.2577    2.3924   -0.0562 H   0  0  0  0  0  0  0  0  0  0  0  0
   -1.8456    2.0007    0.1660 H   0  0  0  0  0  0  0  0  0  0  0  0
    1.7634    1.8178   -1.9061 H   0  0  0  0  0  0  0  0  0  0  0  0
    5.2871    1.7431   -2.0594 H   0  0  0  0  0  0  0  0  0  0  0  0
    5.4452    0.1456   -0.4637 H   0  0  0  0  0  0  0  0  0  0  0  0
    5.2848   -1.4149    1.1023 H   0  0  0  0  0  0  0  0  0  0  0  0
  1  2  2  0
  2  3  1  0
  3  4  2  0
  4  5  1  0
  5  6  2  0
  6  7  1  0
  7  8  2  0
  8  9  1  0
  8 10  1  0
 10 11  2  0
  4 12  1  0
 12 13  1  0
 13 14  2  0
 14 15  1  0
 15 16  1  0
 15 17  2  0
 17 18  1  0
 18 19  1  0
 18 20  2  0
 20  2  1  0
 11  5  1  0
 20 13  1  0
  3 21  1  0
  6 22  1  0
  7 23  1  0
  9 24  1  0
 10 25  1  0
 11 26  1  0
 14 27  1  0
 16 28  1  0
 17 29  1  0
 19 30  1  0
M  END
$$$$
