
     RDKit          3D

 36 37  0  0  0  0  0  0  0  0999 V2000
   -4.8861   -0.5559    0.2387 C   0  0  0  0  0  0  0  0  0  0  0  0
   -3.3960   -0.4394   -0.1135 C   0  0  0  0  0  0  0  0  0  0  0  0
   -3.2792    0.2523   -1.4790 C   0  0  0  0  0  0  0  0  0  0  0  0
   -2.6006    0.3315    0.9744 C   0  0  0  0  0  0  0  0  0  0  0  0
   -2.5664   -0.3809    2.3326 C   0  0  0  0  0  0  0  0  0  0  0  0
   -1.6301   -0.9909    2.8249 O   0  0  0  0  0  0  0  0  0  0  0  0
   -3.7120   -0.2430    3.0317 O   0  0  0  0  0  0  0  0  0  0  0  0
   -1.1877    0.6438    0.6371 N   0  0  0  0  0  0  0  0  0  0  0  0
   -0.3534   -0.3489    0.1430 C   0  0  0  0  0  0  0  0  0  0  0  0
   -0.6709   -1.4954   -0.1412 O   0  0  0  0  0  0  0  0  0  0  0  0
    1.0350    0.1603   -0.0092 C   0  0  0  0  0  0  0  0  0  0  0  0
    2.0148   -0.6068   -0.5066 C   0  0  0  0  0  0  0  0  0  0  0  0
    3.4098   -0.2021   -0.7043 C   0  0  0  0  0  0  0  0  0  0  0  0
    4.2453    0.0781    0.3841 C   0  0  0  0  0  0  0  0  0  0  0  0
    5.5759    0.4495    0.1746 C   0  0  0  0  0  0  0  0  0  0  0  0
    6.0734    0.5337   -1.1242 C   0  0  0  0  0  0  0  0  0  0  0  0
    7.8733    1.0358   -1.4089 Br  0  0  0  0  0  0  0  0  0  0  0  0
    5.2546    0.2473   -2.2149 C   0  0  0  0  0  0  0  0  0  0  0  0
    3.9240   -0.1237   -2.0040 C   0  0  0  0  0  0  0  0  0  0  0  0
    1.1278    1.7890    0.5119 S   0  0  0  0  0  0  0  0  0  0  0  0
   -0.5695    1.8356    0.9689 C   0  0  0  0  0  0  0  0  0  0  0  0
   -1.2364    3.1866    1.6886 S   0  0  0  0  0  0  0  0  0  0  0  0
   -5.4467   -1.0105   -0.5857 H   0  0  0  0  0  0  0  0  0  0  0  0
   -5.0398   -1.1939    1.1136 H   0  0  0  0  0  0  0  0  0  0  0  0
   -5.3262    0.4259    0.4435 H   0  0  0  0  0  0  0  0  0  0  0  0
   -3.0213   -1.4639   -0.2085 H   0  0  0  0  0  0  0  0  0  0  0  0
   -2.2463    0.2727   -1.8381 H   0  0  0  0  0  0  0  0  0  0  0  0
   -3.8709   -0.2766   -2.2344 H   0  0  0  0  0  0  0  0  0  0  0  0
   -3.6417    1.2849   -1.4300 H   0  0  0  0  0  0  0  0  0  0  0  0
   -3.1195    1.2814    1.1421 H   0  0  0  0  0  0  0  0  0  0  0  0
   -3.5409   -0.7208    3.8718 H   0  0  0  0  0  0  0  0  0  0  0  0
    1.7934   -1.6267   -0.8188 H   0  0  0  0  0  0  0  0  0  0  0  0
    3.8695    0.0085    1.4027 H   0  0  0  0  0  0  0  0  0  0  0  0
    6.2118    0.6682    1.0283 H   0  0  0  0  0  0  0  0  0  0  0  0
    5.6398    0.3091   -3.2292 H   0  0  0  0  0  0  0  0  0  0  0  0
    3.2932   -0.3455   -2.8621 H   0  0  0  0  0  0  0  0  0  0  0  0
  1  2  1  0
  2  3  1  0
  2  4  1  0
  4  5  1  0
  5  6  2  0
  5  7  1  0
  4  8  1  0
  8  9  1  0
  9 10  2  0
  9 11  1  0
 11 12  2  0
 12 13  1  0
 13 14  2  0
 14 15  1  0
 15 16  2  0
 16 17  1  0
 16 18  1  0
 18 19  2  0
 11 20  1  0
 20 21  1  0
 21 22  2  0
 21  8  1  0
 19 13  1  0
  1 23  1  0
  1 24  1  0
  1 25  1  0
  2 26  1  0
  3 27  1  0
  3 28  1  0
  3 29  1  0
  4 30  1  0
  7 31  1  0
 12 32  1  0
 14 33  1  0
 15 34  1  0
 18 35  1  0
 19 36  1  0
M  END
$$$$
