
     RDKit          3D

 64 67  0  0  0  0  0  0  0  0999 V2000
    3.6662   -3.2171   -2.9392 C   0  0  0  0  0  0  0  0  0  0  0  0
    3.5529   -2.2679   -1.7748 C   0  0  0  0  0  0  0  0  0  0  0  0
    4.4034   -2.4644   -0.6691 C   0  0  0  0  0  0  0  0  0  0  0  0
    4.3309   -1.6274    0.4454 C   0  0  0  0  0  0  0  0  0  0  0  0
    3.4058   -0.5853    0.4822 C   0  0  0  0  0  0  0  0  0  0  0  0
    2.5534   -0.3746   -0.5963 C   0  0  0  0  0  0  0  0  0  0  0  0
    2.6411   -1.1953   -1.7330 C   0  0  0  0  0  0  0  0  0  0  0  0
    1.5409   -0.8295   -3.0911 S   0  0  0  0  0  6  0  0  0  0  0  0
    2.1843   -1.1670   -4.3427 O   0  0  0  0  0  0  0  0  0  0  0  0
    0.2472   -1.3776   -2.7351 O   0  0  0  0  0  0  0  0  0  0  0  0
    1.4272    0.8625   -3.0577 N   0  0  0  0  0  0  0  0  0  0  0  0
    2.6094    1.6201   -3.5037 C   0  0  0  0  0  0  0  0  0  0  0  0
    0.1457    1.4283   -3.5469 C   0  0  0  0  0  0  0  0  0  0  0  0
   -0.7860    1.5977   -2.3513 C   0  0  0  0  0  0  0  0  0  0  0  0
   -0.7410    2.5878   -1.6220 O   0  0  0  0  0  0  0  0  0  0  0  0
   -1.6395    0.5295   -2.1381 N   0  0  0  0  0  0  0  0  0  0  0  0
   -2.4307    0.4544   -0.9208 C   0  0  0  0  0  0  0  0  0  0  0  0
   -1.6023   -0.1041    0.2592 C   0  0  0  0  0  0  0  0  0  0  0  0
   -2.2913   -0.2907    1.5439 N   0  0  0  0  0  0  0  0  0  0  0  0
   -3.2985   -1.3696    1.5120 C   0  0  0  0  0  0  0  0  0  0  0  0
   -4.5796   -1.1238    2.3310 C   0  0  0  0  0  0  0  0  0  0  0  0
   -5.1304    0.2401    2.0058 C   0  0  0  0  0  0  0  0  0  0  0  0
   -6.4942    0.4885    1.8421 C   0  0  0  0  0  0  0  0  0  0  0  0
   -6.9289    1.7826    1.5506 C   0  0  0  0  0  0  0  0  0  0  0  0
   -6.0069    2.8262    1.4321 C   0  0  0  0  0  0  0  0  0  0  0  0
   -4.6447    2.5842    1.6082 C   0  0  0  0  0  0  0  0  0  0  0  0
   -4.2004    1.2883    1.8886 C   0  0  0  0  0  0  0  0  0  0  0  0
   -2.7460    0.9728    2.1449 C   0  0  0  0  0  0  0  0  0  0  0  0
    3.2354    0.2275    1.5678 O   0  0  0  0  0  0  0  0  0  0  0  0
    4.3688    0.2756    2.4359 C   0  0  0  0  0  0  0  0  0  0  0  0
    3.8943    0.8207    3.7789 C   0  0  0  0  0  0  0  0  0  0  0  0
    5.1502   -1.0348    2.6382 C   0  0  0  0  0  0  0  0  0  0  0  0
    5.7955   -1.3135    3.6449 O   0  0  0  0  0  0  0  0  0  0  0  0
    5.1539   -1.8670    1.5460 N   0  0  0  0  0  0  0  0  0  0  0  0
    4.2033   -4.1291   -2.6534 H   0  0  0  0  0  0  0  0  0  0  0  0
    4.2216   -2.7461   -3.7556 H   0  0  0  0  0  0  0  0  0  0  0  0
    2.6808   -3.5377   -3.2882 H   0  0  0  0  0  0  0  0  0  0  0  0
    5.1201   -3.2840   -0.6799 H   0  0  0  0  0  0  0  0  0  0  0  0
    1.8213    0.4286   -0.5406 H   0  0  0  0  0  0  0  0  0  0  0  0
    2.6367    1.6885   -4.5951 H   0  0  0  0  0  0  0  0  0  0  0  0
    3.5365    1.1593   -3.1538 H   0  0  0  0  0  0  0  0  0  0  0  0
    2.5727    2.6286   -3.0829 H   0  0  0  0  0  0  0  0  0  0  0  0
   -0.3121    0.7912   -4.3123 H   0  0  0  0  0  0  0  0  0  0  0  0
    0.2864    2.4143   -4.0061 H   0  0  0  0  0  0  0  0  0  0  0  0
   -1.3040   -0.3684   -2.4931 H   0  0  0  0  0  0  0  0  0  0  0  0
   -2.8139    1.4535   -0.6922 H   0  0  0  0  0  0  0  0  0  0  0  0
   -3.2802   -0.1945   -1.1538 H   0  0  0  0  0  0  0  0  0  0  0  0
   -1.1647   -1.0670   -0.0405 H   0  0  0  0  0  0  0  0  0  0  0  0
   -0.7354    0.5509    0.4227 H   0  0  0  0  0  0  0  0  0  0  0  0
   -3.6165   -1.5707    0.4801 H   0  0  0  0  0  0  0  0  0  0  0  0
   -2.8263   -2.2980    1.8595 H   0  0  0  0  0  0  0  0  0  0  0  0
   -4.3660   -1.1787    3.4059 H   0  0  0  0  0  0  0  0  0  0  0  0
   -5.3162   -1.9017    2.0950 H   0  0  0  0  0  0  0  0  0  0  0  0
   -7.2227   -0.3139    1.9369 H   0  0  0  0  0  0  0  0  0  0  0  0
   -7.9888    1.9810    1.4169 H   0  0  0  0  0  0  0  0  0  0  0  0
   -6.3514    3.8328    1.2061 H   0  0  0  0  0  0  0  0  0  0  0  0
   -3.9351    3.4055    1.5254 H   0  0  0  0  0  0  0  0  0  0  0  0
   -2.6166    0.8928    3.2336 H   0  0  0  0  0  0  0  0  0  0  0  0
   -2.1049    1.8081    1.8374 H   0  0  0  0  0  0  0  0  0  0  0  0
    5.0801    0.9980    2.0085 H   0  0  0  0  0  0  0  0  0  0  0  0
    3.3814    1.7793    3.6464 H   0  0  0  0  0  0  0  0  0  0  0  0
    3.1739    0.1330    4.2394 H   0  0  0  0  0  0  0  0  0  0  0  0
    4.7253    0.9634    4.4777 H   0  0  0  0  0  0  0  0  0  0  0  0
    5.7288   -2.6966    1.6036 H   0  0  0  0  0  0  0  0  0  0  0  0
  1  2  1  0
  2  3  2  0
  3  4  1  0
  4  5  2  0
  5  6  1  0
  6  7  2  0
  7  8  1  0
  8  9  2  0
  8 10  2  0
  8 11  1  0
 11 12  1  0
 11 13  1  0
 13 14  1  0
 14 15  2  0
 14 16  1  0
 16 17  1  0
 17 18  1  0
 18 19  1  0
 19 20  1  0
 20 21  1  0
 21 22  1  0
 22 23  2  0
 23 24  1  0
 24 25  2  0
 25 26  1  0
 26 27  2  0
 27 28  1  0
  5 29  1  0
 29 30  1  0
 30 31  1  0
 30 32  1  0
 32 33  2  0
 32 34  1  0
  7  2  1  0
 28 19  1  0
 34  4  1  0
 27 22  1  0
  1 35  1  0
  1 36  1  0
  1 37  1  0
  3 38  1  0
  6 39  1  0
 12 40  1  0
 12 41  1  0
 12 42  1  0
 13 43  1  0
 13 44  1  0
 16 45  1  0
 17 46  1  0
 17 47  1  0
 18 48  1  0
 18 49  1  0
 20 50  1  0
 20 51  1  0
 21 52  1  0
 21 53  1  0
 23 54  1  0
 24 55  1  0
 25 56  1  0
 26 57  1  0
 28 58  1  0
 28 59  1  0
 30 60  1  0
 31 61  1  0
 31 62  1  0
 31 63  1  0
 34 64  1  0
M  END
$$$$
