
     RDKit          3D

 63 66  0  0  0  0  0  0  0  0999 V2000
   -9.0914   -1.9828    1.0625 C   0  0  0  0  0  0  0  0  0  0  0  0
   -8.0129   -0.9094    1.0208 C   0  0  0  0  0  0  0  0  0  0  0  0
   -6.6784   -1.4832    0.5304 C   0  0  0  0  0  0  0  0  0  0  0  0
   -5.5789   -0.5046    0.5978 N   0  0  0  0  0  0  0  0  0  0  0  0
   -5.7190    0.5585   -0.4210 C   0  0  0  0  0  0  0  0  0  0  0  0
   -4.5529    1.5637   -0.3922 C   0  0  0  0  0  0  0  0  0  0  0  0
   -3.2379    0.9216   -0.4561 N   0  0  0  0  0  0  0  0  0  0  0  0
   -2.1728    1.7175   -0.8719 C   0  0  0  0  0  0  0  0  0  0  0  0
   -2.3502    2.8502   -1.3287 O   0  0  0  0  0  0  0  0  0  0  0  0
   -0.7696    1.1193   -0.8234 C   0  0  0  0  0  0  0  0  0  0  0  0
   -0.5816    0.1157   -1.9696 C   0  0  0  0  0  0  0  0  0  0  0  0
    0.8432   -0.4337   -1.9958 C   0  0  0  0  0  0  0  0  0  0  0  0
    1.8915    0.6760   -1.9969 C   0  0  0  0  0  0  0  0  0  0  0  0
    1.6568    1.6626   -0.9151 N   0  0  0  0  0  0  0  0  0  0  0  0
    2.3000    1.3450    0.6257 S   0  0  0  0  0  6  0  0  0  0  0  0
    1.9202   -0.0108    0.9702 O   0  0  0  0  0  0  0  0  0  0  0  0
    1.9778    2.4328    1.5207 O   0  0  0  0  0  0  0  0  0  0  0  0
    4.0522    1.3733    0.3636 C   0  0  0  0  0  0  0  0  0  0  0  0
    4.7842    0.2049    0.6447 C   0  0  0  0  0  0  0  0  0  0  0  0
    6.1766    0.1756    0.4811 C   0  0  0  0  0  0  0  0  0  0  0  0
    6.9470   -1.0286    0.7752 C   0  0  0  0  0  0  0  0  0  0  0  0
    6.3998   -2.1887    1.1733 N   0  0  0  0  0  0  0  0  0  0  0  0
    7.4952   -3.0309    1.3444 O   0  0  0  0  0  0  0  0  0  0  0  0
    8.5989   -2.2996    1.0265 C   0  0  0  0  0  0  0  0  0  0  0  0
    9.8993   -2.9785    1.1450 C   0  0  0  0  0  0  0  0  0  0  0  0
    8.3216   -1.0685    0.6679 N   0  0  0  0  0  0  0  0  0  0  0  0
    6.8225    1.3351    0.0325 C   0  0  0  0  0  0  0  0  0  0  0  0
    6.0937    2.4965   -0.2456 C   0  0  0  0  0  0  0  0  0  0  0  0
    4.7051    2.5241   -0.0809 C   0  0  0  0  0  0  0  0  0  0  0  0
    3.9116    4.0071   -0.4655 Cl  0  0  0  0  0  0  0  0  0  0  0  0
    0.2778    2.2295   -0.9480 C   0  0  0  0  0  0  0  0  0  0  0  0
   -3.0857   -0.2183    0.4553 C   0  0  0  0  0  0  0  0  0  0  0  0
   -4.2821   -1.1862    0.3976 C   0  0  0  0  0  0  0  0  0  0  0  0
   -9.2621   -2.4072    0.0667 H   0  0  0  0  0  0  0  0  0  0  0  0
   -8.8105   -2.7957    1.7392 H   0  0  0  0  0  0  0  0  0  0  0  0
  -10.0350   -1.5562    1.4176 H   0  0  0  0  0  0  0  0  0  0  0  0
   -8.3559   -0.1014    0.3664 H   0  0  0  0  0  0  0  0  0  0  0  0
   -7.8915   -0.4871    2.0254 H   0  0  0  0  0  0  0  0  0  0  0  0
   -6.4327   -2.3356    1.1768 H   0  0  0  0  0  0  0  0  0  0  0  0
   -6.7879   -1.8810   -0.4872 H   0  0  0  0  0  0  0  0  0  0  0  0
   -6.6407    1.1259   -0.2582 H   0  0  0  0  0  0  0  0  0  0  0  0
   -5.7783    0.1141   -1.4226 H   0  0  0  0  0  0  0  0  0  0  0  0
   -4.5820    2.1494    0.5352 H   0  0  0  0  0  0  0  0  0  0  0  0
   -4.6676    2.2654   -1.2257 H   0  0  0  0  0  0  0  0  0  0  0  0
   -0.6219    0.6300    0.1443 H   0  0  0  0  0  0  0  0  0  0  0  0
   -1.2902   -0.7160   -1.8879 H   0  0  0  0  0  0  0  0  0  0  0  0
   -0.7986    0.6057   -2.9279 H   0  0  0  0  0  0  0  0  0  0  0  0
    0.9778   -1.0602   -2.8851 H   0  0  0  0  0  0  0  0  0  0  0  0
    0.9884   -1.0902   -1.1314 H   0  0  0  0  0  0  0  0  0  0  0  0
    2.8941    0.2442   -1.9220 H   0  0  0  0  0  0  0  0  0  0  0  0
    1.8657    1.2120   -2.9539 H   0  0  0  0  0  0  0  0  0  0  0  0
    4.2663   -0.6853    1.0020 H   0  0  0  0  0  0  0  0  0  0  0  0
   10.6788   -2.4136    0.6263 H   0  0  0  0  0  0  0  0  0  0  0  0
    9.8571   -3.9823    0.7093 H   0  0  0  0  0  0  0  0  0  0  0  0
   10.1845   -3.0693    2.1967 H   0  0  0  0  0  0  0  0  0  0  0  0
    7.9039    1.3458   -0.0990 H   0  0  0  0  0  0  0  0  0  0  0  0
    6.6236    3.3830   -0.5894 H   0  0  0  0  0  0  0  0  0  0  0  0
    0.1651    2.7776   -1.8931 H   0  0  0  0  0  0  0  0  0  0  0  0
    0.1525    2.9797   -0.1591 H   0  0  0  0  0  0  0  0  0  0  0  0
   -2.9744    0.1911    1.4669 H   0  0  0  0  0  0  0  0  0  0  0  0
   -2.1764   -0.7796    0.2300 H   0  0  0  0  0  0  0  0  0  0  0  0
   -4.2745   -1.7027   -0.5715 H   0  0  0  0  0  0  0  0  0  0  0  0
   -4.1388   -1.9459    1.1751 H   0  0  0  0  0  0  0  0  0  0  0  0
  1  2  1  0
  2  3  1  0
  3  4  1  0
  4  5  1  0
  5  6  1  0
  6  7  1  0
  7  8  1  0
  8  9  2  0
  8 10  1  0
 10 11  1  0
 11 12  1  0
 12 13  1  0
 13 14  1  0
 14 15  1  0
 15 16  2  0
 15 17  2  0
 15 18  1  0
 18 19  2  0
 19 20  1  0
 20 21  1  0
 21 22  2  0
 22 23  1  0
 23 24  1  0
 24 25  1  0
 24 26  2  0
 20 27  2  0
 27 28  1  0
 28 29  2  0
 29 30  1  0
 14 31  1  0
  7 32  1  0
 32 33  1  0
 33  4  1  0
 31 10  1  0
 29 18  1  0
 26 21  1  0
  1 34  1  0
  1 35  1  0
  1 36  1  0
  2 37  1  0
  2 38  1  0
  3 39  1  0
  3 40  1  0
  5 41  1  0
  5 42  1  0
  6 43  1  0
  6 44  1  0
 10 45  1  0
 11 46  1  0
 11 47  1  0
 12 48  1  0
 12 49  1  0
 13 50  1  0
 13 51  1  0
 19 52  1  0
 25 53  1  0
 25 54  1  0
 25 55  1  0
 27 56  1  0
 28 57  1  0
 31 58  1  0
 31 59  1  0
 32 60  1  0
 32 61  1  0
 33 62  1  0
 33 63  1  0
M  END
$$$$
