
     RDKit          3D

 54 57  0  0  0  0  0  0  0  0999 V2000
    1.1246    0.6075    3.5274 C   0  0  0  0  0  0  0  0  0  0  0  0
    0.1236    0.1175    2.6469 O   0  0  0  0  0  0  0  0  0  0  0  0
    0.4880   -0.1757    1.3577 C   0  0  0  0  0  0  0  0  0  0  0  0
    1.7887   -0.0777    0.8602 C   0  0  0  0  0  0  0  0  0  0  0  0
    2.0825   -0.4002   -0.4900 C   0  0  0  0  0  0  0  0  0  0  0  0
    3.3623   -0.3383   -1.0802 C   0  0  0  0  0  0  0  0  0  0  0  0
    4.4729    0.0224   -0.2725 N   0  0  0  0  0  0  0  0  0  0  0  0
    5.7860    0.3501   -0.6864 C   0  0  0  0  0  0  0  0  0  0  0  0
    6.0650    1.0100   -1.8878 C   0  0  0  0  0  0  0  0  0  0  0  0
    7.3769    1.3694   -2.2194 C   0  0  0  0  0  0  0  0  0  0  0  0
    8.4200    1.0900   -1.3374 C   0  0  0  0  0  0  0  0  0  0  0  0
   10.1883    1.5799   -1.7894 Br  0  0  0  0  0  0  0  0  0  0  0  0
    8.1664    0.4630   -0.1232 C   0  0  0  0  0  0  0  0  0  0  0  0
    6.8572    0.1117    0.1910 C   0  0  0  0  0  0  0  0  0  0  0  0
    6.6128   -0.4839    1.3702 F   0  0  0  0  0  0  0  0  0  0  0  0
    3.5618   -0.6183   -2.3806 N   0  0  0  0  0  0  0  0  0  0  0  0
    2.4913   -0.9867   -3.0878 C   0  0  0  0  0  0  0  0  0  0  0  0
    1.2419   -1.0990   -2.6269 N   0  0  0  0  0  0  0  0  0  0  0  0
    1.0460   -0.8038   -1.3391 C   0  0  0  0  0  0  0  0  0  0  0  0
   -0.2427   -0.9021   -0.8299 C   0  0  0  0  0  0  0  0  0  0  0  0
   -0.5408   -0.6032    0.5034 C   0  0  0  0  0  0  0  0  0  0  0  0
   -1.7897   -0.6769    1.0637 O   0  0  0  0  0  0  0  0  0  0  0  0
   -2.8873   -1.1823    0.3014 C   0  0  0  0  0  0  0  0  0  0  0  0
   -3.5750   -0.0620   -0.5040 C   0  0  0  0  0  0  0  0  0  0  0  0
   -4.7548   -0.6163   -1.3269 C   0  0  0  0  0  0  0  0  0  0  0  0
   -6.1296   -0.2860   -0.7294 C   0  0  0  0  0  0  0  0  0  0  0  0
   -6.0776   -0.3766    0.7272 N   0  0  0  0  0  0  0  0  0  0  0  0
   -7.4102   -0.3426    1.3225 C   0  0  0  0  0  0  0  0  0  0  0  0
   -5.2123    0.6602    1.3139 C   0  0  0  0  0  0  0  0  0  0  0  0
   -4.0560    1.0830    0.3970 C   0  0  0  0  0  0  0  0  0  0  0  0
    0.6516    0.8077    4.4936 H   0  0  0  0  0  0  0  0  0  0  0  0
    1.9074   -0.1407    3.6893 H   0  0  0  0  0  0  0  0  0  0  0  0
    1.5461    1.5497    3.1620 H   0  0  0  0  0  0  0  0  0  0  0  0
    2.5956    0.2634    1.5000 H   0  0  0  0  0  0  0  0  0  0  0  0
    4.5077   -0.5843    0.5450 H   0  0  0  0  0  0  0  0  0  0  0  0
    5.2636    1.2587   -2.5790 H   0  0  0  0  0  0  0  0  0  0  0  0
    7.5677    1.8718   -3.1647 H   0  0  0  0  0  0  0  0  0  0  0  0
    8.9611    0.2463    0.5823 H   0  0  0  0  0  0  0  0  0  0  0  0
    2.6510   -1.2191   -4.1351 H   0  0  0  0  0  0  0  0  0  0  0  0
   -1.0167   -1.2150   -1.5230 H   0  0  0  0  0  0  0  0  0  0  0  0
   -3.5877   -1.6118    1.0263 H   0  0  0  0  0  0  0  0  0  0  0  0
   -2.5856   -2.0248   -0.3319 H   0  0  0  0  0  0  0  0  0  0  0  0
   -2.8369    0.3570   -1.1985 H   0  0  0  0  0  0  0  0  0  0  0  0
   -4.6558   -1.7021   -1.4495 H   0  0  0  0  0  0  0  0  0  0  0  0
   -4.7156   -0.1931   -2.3387 H   0  0  0  0  0  0  0  0  0  0  0  0
   -6.8545   -1.0000   -1.1395 H   0  0  0  0  0  0  0  0  0  0  0  0
   -6.4556    0.7126   -1.0492 H   0  0  0  0  0  0  0  0  0  0  0  0
   -8.0161   -1.1791    0.9572 H   0  0  0  0  0  0  0  0  0  0  0  0
   -7.9395    0.5900    1.0964 H   0  0  0  0  0  0  0  0  0  0  0  0
   -7.3484   -0.4512    2.4111 H   0  0  0  0  0  0  0  0  0  0  0  0
   -4.8055    0.2725    2.2555 H   0  0  0  0  0  0  0  0  0  0  0  0
   -5.7831    1.5640    1.5646 H   0  0  0  0  0  0  0  0  0  0  0  0
   -4.3966    1.9068   -0.2450 H   0  0  0  0  0  0  0  0  0  0  0  0
   -3.2342    1.4876    0.9988 H   0  0  0  0  0  0  0  0  0  0  0  0
  1  2  1  0
  2  3  1  0
  3  4  2  0
  4  5  1  0
  5  6  2  0
  6  7  1  0
  7  8  1  0
  8  9  2  0
  9 10  1  0
 10 11  2  0
 11 12  1  0
 11 13  1  0
 13 14  2  0
 14 15  1  0
  6 16  1  0
 16 17  2  0
 17 18  1  0
 18 19  2  0
 19 20  1  0
 20 21  2  0
 21 22  1  0
 22 23  1  0
 23 24  1  0
 24 25  1  0
 25 26  1  0
 26 27  1  0
 27 28  1  0
 27 29  1  0
 29 30  1  0
 21  3  1  0
 30 24  1  0
 19  5  1  0
 14  8  1  0
  1 31  1  0
  1 32  1  0
  1 33  1  0
  4 34  1  0
  7 35  1  0
  9 36  1  0
 10 37  1  0
 13 38  1  0
 17 39  1  0
 20 40  1  0
 23 41  1  0
 23 42  1  0
 24 43  1  0
 25 44  1  0
 25 45  1  0
 26 46  1  0
 26 47  1  0
 28 48  1  0
 28 49  1  0
 28 50  1  0
 29 51  1  0
 29 52  1  0
 30 53  1  0
 30 54  1  0
M  END
$$$$
