
     RDKit          3D

 53 54  0  0  0  0  0  0  0  0999 V2000
   -4.1503    4.4293   -0.9298 C   0  0  0  0  0  0  0  0  0  0  0  0
   -3.7934    2.9650   -1.1111 C   0  0  0  0  0  0  0  0  0  0  0  0
   -3.1567    2.5156    0.0924 O   0  0  0  0  0  0  0  0  0  0  0  0
   -2.2906    1.4883   -0.1688 C   0  0  0  0  0  0  0  0  0  0  0  0
   -0.9295    1.7705   -0.0986 C   0  0  0  0  0  0  0  0  0  0  0  0
   -0.0006    0.7560   -0.3423 C   0  0  0  0  0  0  0  0  0  0  0  0
    1.4438    1.1001   -0.2811 C   0  0  0  0  0  0  0  0  0  0  0  0
    1.7994    2.1740   -0.7495 O   0  0  0  0  0  0  0  0  0  0  0  0
    2.2438    0.1542    0.3409 N   0  0  0  0  0  0  0  0  0  0  0  0
    3.6176    0.1708    0.5273 C   0  0  0  0  0  0  0  0  0  0  0  0
    4.3879    1.1539    0.0445 C   0  0  0  0  0  0  0  0  0  0  0  0
    5.8391    1.1537    0.2523 C   0  0  0  0  0  0  0  0  0  0  0  0
    6.5148    2.0452   -0.2580 O   0  0  0  0  0  0  0  0  0  0  0  0
    6.3431    0.1280    1.0179 N   0  0  0  0  0  0  0  0  0  0  0  0
    7.7746    0.0969    1.2520 C   0  0  0  0  0  0  0  0  0  0  0  0
    5.5857   -0.9361    1.4788 C   0  0  0  0  0  0  0  0  0  0  0  0
    6.1040   -1.8844    2.0733 O   0  0  0  0  0  0  0  0  0  0  0  0
    4.2091   -0.8788    1.2276 N   0  0  0  0  0  0  0  0  0  0  0  0
    3.4091   -1.9886    1.7407 C   0  0  0  0  0  0  0  0  0  0  0  0
   -0.4310   -0.5376   -0.6746 C   0  0  0  0  0  0  0  0  0  0  0  0
   -1.7994   -0.8198   -0.7380 C   0  0  0  0  0  0  0  0  0  0  0  0
   -2.3013   -2.0628   -1.0211 O   0  0  0  0  0  0  0  0  0  0  0  0
   -1.5781   -2.8062   -2.0047 C   0  0  0  0  0  0  0  0  0  0  0  0
   -2.4808   -3.9164   -2.5068 C   0  0  0  0  0  0  0  0  0  0  0  0
   -2.7286    0.1894   -0.4456 C   0  0  0  0  0  0  0  0  0  0  0  0
   -4.0712   -0.0884   -0.5115 O   0  0  0  0  0  0  0  0  0  0  0  0
   -4.5741   -0.3812    0.7968 C   0  0  0  0  0  0  0  0  0  0  0  0
   -6.0453   -0.7256    0.6655 C   0  0  0  0  0  0  0  0  0  0  0  0
   -4.6025    4.8403   -1.8380 H   0  0  0  0  0  0  0  0  0  0  0  0
   -4.8568    4.5534   -0.1030 H   0  0  0  0  0  0  0  0  0  0  0  0
   -3.2550    5.0094   -0.6806 H   0  0  0  0  0  0  0  0  0  0  0  0
   -3.1304    2.8646   -1.9802 H   0  0  0  0  0  0  0  0  0  0  0  0
   -4.7071    2.3860   -1.2865 H   0  0  0  0  0  0  0  0  0  0  0  0
   -0.5979    2.7797    0.1351 H   0  0  0  0  0  0  0  0  0  0  0  0
    1.7480   -0.6103    0.7734 H   0  0  0  0  0  0  0  0  0  0  0  0
    4.0250    2.0017   -0.5218 H   0  0  0  0  0  0  0  0  0  0  0  0
    7.9999   -0.3469    2.2254 H   0  0  0  0  0  0  0  0  0  0  0  0
    8.2353   -0.5151    0.4704 H   0  0  0  0  0  0  0  0  0  0  0  0
    8.2063    1.1018    1.2183 H   0  0  0  0  0  0  0  0  0  0  0  0
    2.8667   -2.4582    0.9117 H   0  0  0  0  0  0  0  0  0  0  0  0
    2.7048   -1.6070    2.4875 H   0  0  0  0  0  0  0  0  0  0  0  0
    4.0131   -2.7654    2.2204 H   0  0  0  0  0  0  0  0  0  0  0  0
    0.2996   -1.3076   -0.8937 H   0  0  0  0  0  0  0  0  0  0  0  0
   -1.2872   -2.1682   -2.8489 H   0  0  0  0  0  0  0  0  0  0  0  0
   -0.6856   -3.2484   -1.5497 H   0  0  0  0  0  0  0  0  0  0  0  0
   -2.7947   -4.5613   -1.6818 H   0  0  0  0  0  0  0  0  0  0  0  0
   -1.9661   -4.5268   -3.2547 H   0  0  0  0  0  0  0  0  0  0  0  0
   -3.3922   -3.5029   -2.9524 H   0  0  0  0  0  0  0  0  0  0  0  0
   -4.4640    0.4884    1.4557 H   0  0  0  0  0  0  0  0  0  0  0  0
   -4.0388   -1.2334    1.2313 H   0  0  0  0  0  0  0  0  0  0  0  0
   -6.5935    0.0965    0.1932 H   0  0  0  0  0  0  0  0  0  0  0  0
   -6.1797   -1.6061    0.0278 H   0  0  0  0  0  0  0  0  0  0  0  0
   -6.4882   -0.9290    1.6451 H   0  0  0  0  0  0  0  0  0  0  0  0
  1  2  1  0
  2  3  1  0
  3  4  1  0
  4  5  2  0
  5  6  1  0
  6  7  1  0
  7  8  2  0
  7  9  1  0
  9 10  1  0
 10 11  2  0
 11 12  1  0
 12 13  2  0
 12 14  1  0
 14 15  1  0
 14 16  1  0
 16 17  2  0
 16 18  1  0
 18 19  1  0
  6 20  2  0
 20 21  1  0
 21 22  1  0
 22 23  1  0
 23 24  1  0
 21 25  2  0
 25 26  1  0
 26 27  1  0
 27 28  1  0
 25  4  1  0
 18 10  1  0
  1 29  1  0
  1 30  1  0
  1 31  1  0
  2 32  1  0
  2 33  1  0
  5 34  1  0
  9 35  1  0
 11 36  1  0
 15 37  1  0
 15 38  1  0
 15 39  1  0
 19 40  1  0
 19 41  1  0
 19 42  1  0
 20 43  1  0
 23 44  1  0
 23 45  1  0
 24 46  1  0
 24 47  1  0
 24 48  1  0
 27 49  1  0
 27 50  1  0
 28 51  1  0
 28 52  1  0
 28 53  1  0
M  END
$$$$
