
     RDKit          3D

 48 50  0  0  0  0  0  0  0  0999 V2000
   -4.5739   -2.6391    1.8046 C   0  0  0  0  0  0  0  0  0  0  0  0
   -3.8712   -1.5126    1.1109 C   0  0  0  0  0  0  0  0  0  0  0  0
   -4.4461   -0.8992    0.0216 C   0  0  0  0  0  0  0  0  0  0  0  0
   -3.7463    0.1395   -0.5589 C   0  0  0  0  0  0  0  0  0  0  0  0
   -4.2993    0.8132   -1.6730 N   0  0  0  0  0  0  0  0  0  0  0  0
   -4.4971   -0.0680   -2.8242 C   0  0  0  0  0  0  0  0  0  0  0  0
   -3.5985    2.0592   -1.9873 C   0  0  0  0  0  0  0  0  0  0  0  0
   -2.5642    0.5364   -0.0537 N   0  0  0  0  0  0  0  0  0  0  0  0
   -2.0538   -0.1012    1.0107 C   0  0  0  0  0  0  0  0  0  0  0  0
   -0.8435    0.3251    1.5371 N   0  0  0  0  0  0  0  0  0  0  0  0
    0.0179    1.1738    0.7068 C   0  0  0  0  0  0  0  0  0  0  0  0
    1.3020    0.4220    0.3176 C   0  0  0  0  0  0  0  0  0  0  0  0
    2.1008   -0.0116    1.5198 N   0  0  0  0  0  0  0  0  0  0  0  0
    3.5274    0.8755    1.8088 S   0  0  0  0  0  6  0  0  0  0  0  0
    4.1719    0.3287    2.9828 O   0  0  0  0  0  0  0  0  0  0  0  0
    3.1840    2.2790    1.7165 O   0  0  0  0  0  0  0  0  0  0  0  0
    4.5367    0.4468    0.4114 C   0  0  0  0  0  0  0  0  0  0  0  0
    4.9745    1.4385   -0.4706 C   0  0  0  0  0  0  0  0  0  0  0  0
    5.7638    1.0820   -1.5661 C   0  0  0  0  0  0  0  0  0  0  0  0
    6.1095   -0.2567   -1.7671 C   0  0  0  0  0  0  0  0  0  0  0  0
    7.2833   -0.7827   -3.4007 I   0  0  0  0  0  0  0  0  0  0  0  0
    5.6759   -1.2450   -0.8802 C   0  0  0  0  0  0  0  0  0  0  0  0
    4.8869   -0.8931    0.2162 C   0  0  0  0  0  0  0  0  0  0  0  0
    1.2562   -0.1664    2.7577 C   0  0  0  0  0  0  0  0  0  0  0  0
   -0.1694   -0.6342    2.4220 C   0  0  0  0  0  0  0  0  0  0  0  0
   -2.6806   -1.1288    1.6035 N   0  0  0  0  0  0  0  0  0  0  0  0
   -4.7557   -3.4608    1.1049 H   0  0  0  0  0  0  0  0  0  0  0  0
   -3.9698   -3.0250    2.6322 H   0  0  0  0  0  0  0  0  0  0  0  0
   -5.5297   -2.2951    2.2119 H   0  0  0  0  0  0  0  0  0  0  0  0
   -5.4188   -1.2001   -0.3428 H   0  0  0  0  0  0  0  0  0  0  0  0
   -3.5516   -0.5174   -3.1504 H   0  0  0  0  0  0  0  0  0  0  0  0
   -5.2154   -0.8665   -2.6111 H   0  0  0  0  0  0  0  0  0  0  0  0
   -4.9074    0.5008   -3.6664 H   0  0  0  0  0  0  0  0  0  0  0  0
   -2.5765    1.8759   -2.3399 H   0  0  0  0  0  0  0  0  0  0  0  0
   -3.5701    2.7300   -1.1205 H   0  0  0  0  0  0  0  0  0  0  0  0
   -4.1335    2.5948   -2.7798 H   0  0  0  0  0  0  0  0  0  0  0  0
    0.2791    2.0658    1.2896 H   0  0  0  0  0  0  0  0  0  0  0  0
   -0.4659    1.5397   -0.2051 H   0  0  0  0  0  0  0  0  0  0  0  0
    1.9008    1.0507   -0.3486 H   0  0  0  0  0  0  0  0  0  0  0  0
    1.0540   -0.4836   -0.2498 H   0  0  0  0  0  0  0  0  0  0  0  0
    4.7116    2.4823   -0.3123 H   0  0  0  0  0  0  0  0  0  0  0  0
    6.1040    1.8560   -2.2502 H   0  0  0  0  0  0  0  0  0  0  0  0
    5.9465   -2.2877   -1.0278 H   0  0  0  0  0  0  0  0  0  0  0  0
    4.5507   -1.6578    0.9135 H   0  0  0  0  0  0  0  0  0  0  0  0
    1.7310   -0.9083    3.4091 H   0  0  0  0  0  0  0  0  0  0  0  0
    1.2077    0.7884    3.2956 H   0  0  0  0  0  0  0  0  0  0  0  0
   -0.7329   -0.7438    3.3564 H   0  0  0  0  0  0  0  0  0  0  0  0
   -0.1050   -1.6193    1.9401 H   0  0  0  0  0  0  0  0  0  0  0  0
  1  2  1  0
  2  3  2  0
  3  4  1  0
  4  5  1  0
  5  6  1  0
  5  7  1  0
  4  8  2  0
  8  9  1  0
  9 10  1  0
 10 11  1  0
 11 12  1  0
 12 13  1  0
 13 14  1  0
 14 15  2  0
 14 16  2  0
 14 17  1  0
 17 18  2  0
 18 19  1  0
 19 20  2  0
 20 21  1  0
 20 22  1  0
 22 23  2  0
 13 24  1  0
 24 25  1  0
  9 26  2  0
 26  2  1  0
 25 10  1  0
 23 17  1  0
  1 27  1  0
  1 28  1  0
  1 29  1  0
  3 30  1  0
  6 31  1  0
  6 32  1  0
  6 33  1  0
  7 34  1  0
  7 35  1  0
  7 36  1  0
 11 37  1  0
 11 38  1  0
 12 39  1  0
 12 40  1  0
 18 41  1  0
 19 42  1  0
 22 43  1  0
 23 44  1  0
 24 45  1  0
 24 46  1  0
 25 47  1  0
 25 48  1  0
M  END
$$$$
