
     RDKit          3D

 52 55  0  0  0  0  0  0  0  0999 V2000
   -8.2583    1.9215   -1.4679 C   0  0  0  0  0  0  0  0  0  0  0  0
   -7.7005    0.7138   -0.9704 O   0  0  0  0  0  0  0  0  0  0  0  0
   -6.3375    0.6611   -0.8171 C   0  0  0  0  0  0  0  0  0  0  0  0
   -5.4769    1.7430   -1.0156 C   0  0  0  0  0  0  0  0  0  0  0  0
   -4.0976    1.5984   -0.8311 C   0  0  0  0  0  0  0  0  0  0  0  0
   -3.5574    0.3705   -0.4540 C   0  0  0  0  0  0  0  0  0  0  0  0
   -2.1786    0.1582   -0.2338 N   0  0  0  0  0  0  0  0  0  0  0  0
   -1.1399    0.9872   -0.5954 C   0  0  0  0  0  0  0  0  0  0  0  0
   -1.2613    1.9686   -1.3245 O   0  0  0  0  0  0  0  0  0  0  0  0
    0.1006    0.6286   -0.0691 N   0  0  0  0  0  0  0  0  0  0  0  0
    0.3506   -0.4954    0.8560 C   0  0  0  0  0  0  0  0  0  0  0  0
    1.5213   -0.2238    1.8179 C   0  0  0  0  0  0  0  0  0  0  0  0
    2.6895    0.2360    1.0741 N   0  0  0  0  0  0  0  0  0  0  0  0
    3.7671   -0.6409    0.9044 C   0  0  0  0  0  0  0  0  0  0  0  0
    3.8754   -1.6395    1.6201 O   0  0  0  0  0  0  0  0  0  0  0  0
    4.7837   -0.3632   -0.1327 C   0  0  0  0  0  0  0  0  0  0  0  0
    4.4188    0.0724   -1.3461 N   0  0  0  0  0  0  0  0  0  0  0  0
    5.7529    0.2474   -2.2967 S   0  0  0  0  0  0  0  0  0  0  0  0
    6.8936   -0.2979   -1.1398 C   0  0  0  0  0  0  0  0  0  0  0  0
    8.2871   -0.4341   -1.2605 C   0  0  0  0  0  0  0  0  0  0  0  0
    9.0046   -0.9187   -0.1644 C   0  0  0  0  0  0  0  0  0  0  0  0
    8.3533   -1.2573    1.0151 C   0  0  0  0  0  0  0  0  0  0  0  0
    6.9658   -1.1124    1.1251 C   0  0  0  0  0  0  0  0  0  0  0  0
    6.2061   -0.6221    0.0322 C   0  0  0  0  0  0  0  0  0  0  0  0
    2.4278    1.4602    0.3118 C   0  0  0  0  0  0  0  0  0  0  0  0
    1.2985    1.2215   -0.6986 C   0  0  0  0  0  0  0  0  0  0  0  0
   -4.4202   -0.7140   -0.2410 C   0  0  0  0  0  0  0  0  0  0  0  0
   -5.8043   -0.5795   -0.4195 C   0  0  0  0  0  0  0  0  0  0  0  0
   -6.7134   -1.5930   -0.2370 O   0  0  0  0  0  0  0  0  0  0  0  0
   -6.2287   -2.8441    0.2281 C   0  0  0  0  0  0  0  0  0  0  0  0
   -8.1058    2.7460   -0.7640 H   0  0  0  0  0  0  0  0  0  0  0  0
   -7.8583    2.1662   -2.4573 H   0  0  0  0  0  0  0  0  0  0  0  0
   -9.3371    1.7720   -1.5740 H   0  0  0  0  0  0  0  0  0  0  0  0
   -5.8432    2.7216   -1.3077 H   0  0  0  0  0  0  0  0  0  0  0  0
   -3.4705    2.4725   -0.9814 H   0  0  0  0  0  0  0  0  0  0  0  0
   -1.9184   -0.7837    0.0075 H   0  0  0  0  0  0  0  0  0  0  0  0
    0.5665   -1.3716    0.2331 H   0  0  0  0  0  0  0  0  0  0  0  0
   -0.5412   -0.7098    1.4519 H   0  0  0  0  0  0  0  0  0  0  0  0
    1.2495    0.5701    2.5244 H   0  0  0  0  0  0  0  0  0  0  0  0
    1.7367   -1.1242    2.4013 H   0  0  0  0  0  0  0  0  0  0  0  0
    8.7960   -0.1749   -2.1846 H   0  0  0  0  0  0  0  0  0  0  0  0
   10.0839   -1.0375   -0.2382 H   0  0  0  0  0  0  0  0  0  0  0  0
    8.9222   -1.6415    1.8598 H   0  0  0  0  0  0  0  0  0  0  0  0
    6.4719   -1.3880    2.0555 H   0  0  0  0  0  0  0  0  0  0  0  0
    2.1107    2.2210    1.0369 H   0  0  0  0  0  0  0  0  0  0  0  0
    3.3257    1.8536   -0.1666 H   0  0  0  0  0  0  0  0  0  0  0  0
    1.6192    0.5131   -1.4711 H   0  0  0  0  0  0  0  0  0  0  0  0
    1.0546    2.1641   -1.1983 H   0  0  0  0  0  0  0  0  0  0  0  0
   -3.9973   -1.6651    0.0588 H   0  0  0  0  0  0  0  0  0  0  0  0
   -7.0870   -3.5126    0.3470 H   0  0  0  0  0  0  0  0  0  0  0  0
   -5.7486   -2.7437    1.2071 H   0  0  0  0  0  0  0  0  0  0  0  0
   -5.5511   -3.3001   -0.5009 H   0  0  0  0  0  0  0  0  0  0  0  0
  1  2  1  0
  2  3  1  0
  3  4  2  0
  4  5  1  0
  5  6  2  0
  6  7  1  0
  7  8  1  0
  8  9  2  0
  8 10  1  0
 10 11  1  0
 11 12  1  0
 12 13  1  0
 13 14  1  0
 14 15  2  0
 14 16  1  0
 16 17  2  0
 17 18  1  0
 18 19  1  0
 19 20  2  0
 20 21  1  0
 21 22  2  0
 22 23  1  0
 23 24  2  0
 13 25  1  0
 25 26  1  0
  6 27  1  0
 27 28  2  0
 28 29  1  0
 29 30  1  0
 28  3  1  0
 26 10  1  0
 24 16  1  0
 24 19  1  0
  1 31  1  0
  1 32  1  0
  1 33  1  0
  4 34  1  0
  5 35  1  0
  7 36  1  0
 11 37  1  0
 11 38  1  0
 12 39  1  0
 12 40  1  0
 20 41  1  0
 21 42  1  0
 22 43  1  0
 23 44  1  0
 25 45  1  0
 25 46  1  0
 26 47  1  0
 26 48  1  0
 27 49  1  0
 30 50  1  0
 30 51  1  0
 30 52  1  0
M  END
$$$$
