
     RDKit          3D

 51 53  0  0  0  0  0  0  0  0999 V2000
   -3.3367    3.2217    0.1166 C   0  0  0  0  0  0  0  0  0  0  0  0
   -3.2375    2.0622    0.9349 O   0  0  0  0  0  0  0  0  0  0  0  0
   -3.5165    0.8644    0.3381 C   0  0  0  0  0  0  0  0  0  0  0  0
   -4.1483    0.6925   -0.8945 C   0  0  0  0  0  0  0  0  0  0  0  0
   -4.3604   -0.5928   -1.4039 C   0  0  0  0  0  0  0  0  0  0  0  0
   -3.9274   -1.7122   -0.6920 C   0  0  0  0  0  0  0  0  0  0  0  0
   -3.2844   -1.5434    0.5373 C   0  0  0  0  0  0  0  0  0  0  0  0
   -2.7744   -2.6913    1.3222 C   0  0  0  0  0  0  0  0  0  0  0  0
   -2.8814   -2.6958    2.5465 O   0  0  0  0  0  0  0  0  0  0  0  0
   -2.1526   -3.8652    0.6547 C   0  0  0  0  0  0  0  0  0  0  0  0
   -1.3863   -3.9067   -0.4443 C   0  0  0  0  0  0  0  0  0  0  0  0
   -0.9087   -2.9430   -1.2981 N   0  0  0  0  0  0  0  0  0  0  0  0
   -0.3607   -1.6847   -0.9708 C   0  0  0  0  0  0  0  0  0  0  0  0
   -0.3677   -0.6853   -1.9570 C   0  0  0  0  0  0  0  0  0  0  0  0
    0.0672    0.6109   -1.6730 C   0  0  0  0  0  0  0  0  0  0  0  0
    0.5352    0.9106   -0.3925 C   0  0  0  0  0  0  0  0  0  0  0  0
    1.0342    2.5749   -0.0171 S   0  0  0  0  0  6  0  0  0  0  0  0
    0.1699    3.4589   -0.7734 O   0  0  0  0  0  0  0  0  0  0  0  0
    1.1636    2.7026    1.4185 O   0  0  0  0  0  0  0  0  0  0  0  0
    2.5709    2.7281   -0.7084 N   0  0  0  0  0  0  0  0  0  0  0  0
    3.4344    1.5715   -0.5557 C   0  0  0  0  0  0  0  0  0  0  0  0
    3.7103    0.7124   -1.5709 O   0  0  0  0  0  0  0  0  0  0  0  0
    4.5532   -0.2832   -1.1199 N   0  0  0  0  0  0  0  0  0  0  0  0
    4.7991    0.0061    0.1635 C   0  0  0  0  0  0  0  0  0  0  0  0
    5.6919   -0.8658    0.9630 C   0  0  0  0  0  0  0  0  0  0  0  0
    4.1281    1.1932    0.5717 C   0  0  0  0  0  0  0  0  0  0  0  0
    4.1756    1.8493    1.8982 C   0  0  0  0  0  0  0  0  0  0  0  0
    0.5620   -0.0691    0.6010 C   0  0  0  0  0  0  0  0  0  0  0  0
    0.1195   -1.3621    0.3054 C   0  0  0  0  0  0  0  0  0  0  0  0
   -3.1166   -0.2576    1.0653 C   0  0  0  0  0  0  0  0  0  0  0  0
   -4.3831    3.4441   -0.1152 H   0  0  0  0  0  0  0  0  0  0  0  0
   -2.7442    3.1190   -0.7986 H   0  0  0  0  0  0  0  0  0  0  0  0
   -2.9328    4.0663    0.6826 H   0  0  0  0  0  0  0  0  0  0  0  0
   -4.4949    1.5395   -1.4775 H   0  0  0  0  0  0  0  0  0  0  0  0
   -4.8592   -0.7194   -2.3615 H   0  0  0  0  0  0  0  0  0  0  0  0
   -4.0913   -2.7032   -1.1043 H   0  0  0  0  0  0  0  0  0  0  0  0
   -2.3435   -4.7912    1.1914 H   0  0  0  0  0  0  0  0  0  0  0  0
   -1.0811   -4.8950   -0.7889 H   0  0  0  0  0  0  0  0  0  0  0  0
   -0.5351   -3.2954   -2.1777 H   0  0  0  0  0  0  0  0  0  0  0  0
   -0.7614   -0.9038   -2.9471 H   0  0  0  0  0  0  0  0  0  0  0  0
    0.0149    1.3757   -2.4435 H   0  0  0  0  0  0  0  0  0  0  0  0
    2.4831    3.0555   -1.6695 H   0  0  0  0  0  0  0  0  0  0  0  0
    5.2716   -1.0394    1.9589 H   0  0  0  0  0  0  0  0  0  0  0  0
    5.8340   -1.8409    0.4858 H   0  0  0  0  0  0  0  0  0  0  0  0
    6.6738   -0.3961    1.0799 H   0  0  0  0  0  0  0  0  0  0  0  0
    3.4312    1.4080    2.5681 H   0  0  0  0  0  0  0  0  0  0  0  0
    3.9821    2.9237    1.8205 H   0  0  0  0  0  0  0  0  0  0  0  0
    5.1617    1.7276    2.3582 H   0  0  0  0  0  0  0  0  0  0  0  0
    0.9056    0.1613    1.6068 H   0  0  0  0  0  0  0  0  0  0  0  0
    0.1461   -2.1117    1.0925 H   0  0  0  0  0  0  0  0  0  0  0  0
   -2.6331   -0.1257    2.0311 H   0  0  0  0  0  0  0  0  0  0  0  0
  1  2  1  0
  2  3  1  0
  3  4  2  0
  4  5  1  0
  5  6  2  0
  6  7  1  0
  7  8  1  0
  8  9  2  0
  8 10  1  0
 10 11  2  0
 11 12  1  0
 12 13  1  0
 13 14  2  0
 14 15  1  0
 15 16  2  0
 16 17  1  0
 17 18  2  0
 17 19  2  0
 17 20  1  0
 20 21  1  0
 21 22  1  0
 22 23  1  0
 23 24  2  0
 24 25  1  0
 24 26  1  0
 26 27  1  0
 16 28  1  0
 28 29  2  0
  7 30  2  0
 30  3  1  0
 29 13  1  0
 26 21  2  0
  1 31  1  0
  1 32  1  0
  1 33  1  0
  4 34  1  0
  5 35  1  0
  6 36  1  0
 10 37  1  0
 11 38  1  0
 12 39  1  0
 14 40  1  0
 15 41  1  0
 20 42  1  0
 25 43  1  0
 25 44  1  0
 25 45  1  0
 27 46  1  0
 27 47  1  0
 27 48  1  0
 28 49  1  0
 29 50  1  0
 30 51  1  0
M  END
$$$$
