
     RDKit          3D

 38 40  0  0  0  0  0  0  0  0999 V2000
   -2.5553    2.6413    1.2171 C   0  0  0  0  0  0  0  0  0  0  0  0
   -2.5634    1.8078   -0.0096 C   0  0  0  0  0  0  0  0  0  0  0  0
   -3.1301    2.2784   -1.1239 N   0  0  0  0  0  0  0  0  0  0  0  0
   -2.9844    1.2867   -2.0650 O   0  0  0  0  0  0  0  0  0  0  0  0
   -2.3362    0.2227   -1.5209 C   0  0  0  0  0  0  0  0  0  0  0  0
   -2.1309   -0.9068   -2.4479 C   0  0  0  0  0  0  0  0  0  0  0  0
   -2.0225    0.4961   -0.2005 C   0  0  0  0  0  0  0  0  0  0  0  0
   -1.3159   -0.3168    0.8461 C   0  0  0  0  0  0  0  0  0  0  0  0
   -1.8239   -1.7564    0.9737 C   0  0  0  0  0  0  0  0  0  0  0  0
   -0.6599   -2.6482    0.5539 C   0  0  0  0  0  0  0  0  0  0  0  0
    0.3638   -1.7145   -0.0662 C   0  0  0  0  0  0  0  0  0  0  0  0
    0.1323   -0.4625    0.6415 N   0  0  0  0  0  0  0  0  0  0  0  0
    0.8445    0.6923    0.1026 C   0  0  0  0  0  0  0  0  0  0  0  0
    2.3412    0.5816    0.2525 C   0  0  0  0  0  0  0  0  0  0  0  0
    3.1952    0.6232   -0.8533 C   0  0  0  0  0  0  0  0  0  0  0  0
    4.5719    0.5346   -0.6662 C   0  0  0  0  0  0  0  0  0  0  0  0
    5.0528    0.4104    0.6267 C   0  0  0  0  0  0  0  0  0  0  0  0
    4.2633    0.3689    1.7203 N   0  0  0  0  0  0  0  0  0  0  0  0
    2.9293    0.4538    1.5081 C   0  0  0  0  0  0  0  0  0  0  0  0
   -3.0048    3.6242    1.0412 H   0  0  0  0  0  0  0  0  0  0  0  0
   -1.5305    2.7994    1.5671 H   0  0  0  0  0  0  0  0  0  0  0  0
   -3.1219    2.1499    2.0144 H   0  0  0  0  0  0  0  0  0  0  0  0
   -2.8962   -0.9134   -3.2312 H   0  0  0  0  0  0  0  0  0  0  0  0
   -2.1857   -1.8685   -1.9335 H   0  0  0  0  0  0  0  0  0  0  0  0
   -1.1546   -0.8249   -2.9347 H   0  0  0  0  0  0  0  0  0  0  0  0
   -1.4631    0.1744    1.8162 H   0  0  0  0  0  0  0  0  0  0  0  0
   -2.7129   -1.9584    0.3674 H   0  0  0  0  0  0  0  0  0  0  0  0
   -2.0908   -1.9814    2.0137 H   0  0  0  0  0  0  0  0  0  0  0  0
   -0.2378   -3.1395    1.4393 H   0  0  0  0  0  0  0  0  0  0  0  0
   -0.9751   -3.4315   -0.1424 H   0  0  0  0  0  0  0  0  0  0  0  0
    1.3765   -2.1022    0.0851 H   0  0  0  0  0  0  0  0  0  0  0  0
    0.1968   -1.6163   -1.1426 H   0  0  0  0  0  0  0  0  0  0  0  0
    0.5463    1.6016    0.6403 H   0  0  0  0  0  0  0  0  0  0  0  0
    0.5927    0.8544   -0.9530 H   0  0  0  0  0  0  0  0  0  0  0  0
    2.7961    0.7252   -1.8590 H   0  0  0  0  0  0  0  0  0  0  0  0
    5.2540    0.5642   -1.5082 H   0  0  0  0  0  0  0  0  0  0  0  0
    6.1186    0.3394    0.8229 H   0  0  0  0  0  0  0  0  0  0  0  0
    2.3208    0.4109    2.4080 H   0  0  0  0  0  0  0  0  0  0  0  0
  1  2  1  0
  2  3  2  0
  3  4  1  0
  4  5  1  0
  5  6  1  0
  5  7  2  0
  7  8  1  0
  8  9  1  0
  9 10  1  0
 10 11  1  0
 11 12  1  0
 12 13  1  0
 13 14  1  0
 14 15  2  0
 15 16  1  0
 16 17  2  0
 17 18  1  0
 18 19  2  0
  7  2  1  0
 12  8  1  0
 19 14  1  0
  1 20  1  0
  1 21  1  0
  1 22  1  0
  6 23  1  0
  6 24  1  0
  6 25  1  0
  8 26  1  0
  9 27  1  0
  9 28  1  0
 10 29  1  0
 10 30  1  0
 11 31  1  0
 11 32  1  0
 13 33  1  0
 13 34  1  0
 15 35  1  0
 16 36  1  0
 17 37  1  0
 19 38  1  0
M  END
$$$$
