
     RDKit          3D

 65 67  0  0  0  0  0  0  0  0999 V2000
    7.4918   -0.4906    1.0553 C   0  0  0  0  0  0  0  0  0  0  0  0
    6.0179   -0.1194    1.0120 C   0  0  0  0  0  0  0  0  0  0  0  0
    5.3576   -0.8542   -0.0648 N   0  0  0  0  0  0  0  0  0  0  0  0
    3.9900   -0.7356   -0.3068 C   0  0  0  0  0  0  0  0  0  0  0  0
    3.2337    0.3300    0.1839 C   0  0  0  0  0  0  0  0  0  0  0  0
    1.8811    0.4835   -0.1299 C   0  0  0  0  0  0  0  0  0  0  0  0
    1.2480    1.6244    0.4160 O   0  0  0  0  0  3  0  0  0  0  0  0
   -0.1470    1.7436    0.2169 C   0  0  0  0  0  0  0  0  0  0  0  0
   -0.7656    2.8129    0.8690 C   0  0  0  0  0  0  0  0  0  0  0  0
   -2.1324    3.0659    0.7408 C   0  0  0  0  0  0  0  0  0  0  0  0
   -2.7438    4.1749    1.3230 N   0  0  0  0  0  0  0  0  0  0  0  0
   -2.1113    4.9284    2.4034 C   0  0  0  0  0  0  0  0  0  0  0  0
   -3.0366    6.0468    2.8565 C   0  0  0  0  0  0  0  0  0  0  0  0
   -2.8635    2.2374   -0.1343 C   0  0  0  0  0  0  0  0  0  0  0  0
   -4.3330    2.4718   -0.3950 C   0  0  0  0  0  0  0  0  0  0  0  0
   -2.2346    1.1553   -0.7842 C   0  0  0  0  0  0  0  0  0  0  0  0
   -0.8580    0.8790   -0.6189 C   0  0  0  0  0  0  0  0  0  0  0  0
   -0.1718   -0.2099   -1.2206 C   0  0  0  0  0  0  0  0  0  0  0  0
   -0.9258   -1.2036   -2.0239 C   0  0  0  0  0  0  0  0  0  0  0  0
   -1.0000   -1.0211   -3.4194 C   0  0  0  0  0  0  0  0  0  0  0  0
   -1.6939   -1.9232   -4.2253 C   0  0  0  0  0  0  0  0  0  0  0  0
   -2.3254   -3.0226   -3.6546 C   0  0  0  0  0  0  0  0  0  0  0  0
   -2.2683   -3.2248   -2.2748 C   0  0  0  0  0  0  0  0  0  0  0  0
   -1.5762   -2.3254   -1.4443 C   0  0  0  0  0  0  0  0  0  0  0  0
   -1.5273   -2.5562    0.0382 C   0  0  0  0  0  0  0  0  0  0  0  0
   -0.8338   -1.9065    0.8068 O   0  0  0  0  0  0  0  0  0  0  0  0
   -2.3722   -3.5535    0.3922 O   0  0  0  0  0  0  0  0  0  0  0  0
   -2.4365   -3.8697    1.7925 C   0  0  0  0  0  0  0  0  0  0  0  0
   -3.4432   -2.9696    2.4838 C   0  0  0  0  0  0  0  0  0  0  0  0
    1.2135   -0.4084   -0.9726 C   0  0  0  0  0  0  0  0  0  0  0  0
    1.9847   -1.4686   -1.5020 C   0  0  0  0  0  0  0  0  0  0  0  0
    3.3524   -1.6249   -1.1952 C   0  0  0  0  0  0  0  0  0  0  0  0
    4.1017   -2.7711   -1.8333 C   0  0  0  0  0  0  0  0  0  0  0  0
    0.0000    0.0000    0.0000 Cl  0  0  0  0  0 15  0  0  0  0  0  0
    8.0017    0.0642    1.8489 H   0  0  0  0  0  0  0  0  0  0  0  0
    7.9827   -0.2593    0.1040 H   0  0  0  0  0  0  0  0  0  0  0  0
    7.6226   -1.5608    1.2481 H   0  0  0  0  0  0  0  0  0  0  0  0
    5.5548   -0.3617    1.9753 H   0  0  0  0  0  0  0  0  0  0  0  0
    5.9365    0.9601    0.8439 H   0  0  0  0  0  0  0  0  0  0  0  0
    5.7040   -1.8089   -0.1502 H   0  0  0  0  0  0  0  0  0  0  0  0
    3.6693    1.0881    0.8251 H   0  0  0  0  0  0  0  0  0  0  0  0
   -0.1257    3.4431    1.4763 H   0  0  0  0  0  0  0  0  0  0  0  0
   -3.7460    4.0588    1.4671 H   0  0  0  0  0  0  0  0  0  0  0  0
   -1.1711    5.3733    2.0596 H   0  0  0  0  0  0  0  0  0  0  0  0
   -1.8988    4.2678    3.2517 H   0  0  0  0  0  0  0  0  0  0  0  0
   -2.5680    6.6291    3.6558 H   0  0  0  0  0  0  0  0  0  0  0  0
   -3.9827    5.6456    3.2354 H   0  0  0  0  0  0  0  0  0  0  0  0
   -3.2681    6.7243    2.0278 H   0  0  0  0  0  0  0  0  0  0  0  0
   -4.9098    2.2982    0.5190 H   0  0  0  0  0  0  0  0  0  0  0  0
   -4.7195    1.7964   -1.1657 H   0  0  0  0  0  0  0  0  0  0  0  0
   -4.4999    3.4947   -0.7479 H   0  0  0  0  0  0  0  0  0  0  0  0
   -2.8445    0.5283   -1.4364 H   0  0  0  0  0  0  0  0  0  0  0  0
   -0.5147   -0.1695   -3.8953 H   0  0  0  0  0  0  0  0  0  0  0  0
   -1.7422   -1.7695   -5.3021 H   0  0  0  0  0  0  0  0  0  0  0  0
   -2.8657   -3.7272   -4.2849 H   0  0  0  0  0  0  0  0  0  0  0  0
   -2.7725   -4.0980   -1.8639 H   0  0  0  0  0  0  0  0  0  0  0  0
   -2.7582   -4.9132    1.8707 H   0  0  0  0  0  0  0  0  0  0  0  0
   -1.4476   -3.7993    2.2597 H   0  0  0  0  0  0  0  0  0  0  0  0
   -3.1426   -1.9192    2.4168 H   0  0  0  0  0  0  0  0  0  0  0  0
   -3.5426   -3.2377    3.5394 H   0  0  0  0  0  0  0  0  0  0  0  0
   -4.4242   -3.0509    2.0044 H   0  0  0  0  0  0  0  0  0  0  0  0
    1.5271   -2.1954   -2.1747 H   0  0  0  0  0  0  0  0  0  0  0  0
    4.4097   -3.4915   -1.0688 H   0  0  0  0  0  0  0  0  0  0  0  0
    4.9827   -2.4010   -2.3677 H   0  0  0  0  0  0  0  0  0  0  0  0
    3.4813   -3.3038   -2.5618 H   0  0  0  0  0  0  0  0  0  0  0  0
  1  2  1  0
  2  3  1  0
  3  4  1  0
  4  5  2  0
  5  6  1  0
  6  7  2  0
  7  8  1  0
  8  9  2  0
  9 10  1  0
 10 11  1  0
 11 12  1  0
 12 13  1  0
 10 14  2  0
 14 15  1  0
 14 16  1  0
 16 17  2  0
 17 18  1  0
 18 19  1  0
 19 20  2  0
 20 21  1  0
 21 22  2  0
 22 23  1  0
 23 24  2  0
 24 25  1  0
 25 26  2  0
 25 27  1  0
 27 28  1  0
 28 29  1  0
 18 30  2  0
 30 31  1  0
 31 32  2  0
 32 33  1  0
 32  4  1  0
 30  6  1  0
 17  8  1  0
 24 19  1  0
  1 35  1  0
  1 36  1  0
  1 37  1  0
  2 38  1  0
  2 39  1  0
  3 40  1  0
  5 41  1  0
  9 42  1  0
 11 43  1  0
 12 44  1  0
 12 45  1  0
 13 46  1  0
 13 47  1  0
 13 48  1  0
 15 49  1  0
 15 50  1  0
 15 51  1  0
 16 52  1  0
 20 53  1  0
 21 54  1  0
 22 55  1  0
 23 56  1  0
 28 57  1  0
 28 58  1  0
 29 59  1  0
 29 60  1  0
 29 61  1  0
 31 62  1  0
 33 63  1  0
 33 64  1  0
 33 65  1  0
M  CHG  2   7   1  34  -1
M  END
$$$$
