
     RDKit          3D

 38 40  0  0  0  0  0  0  0  0999 V2000
    7.0391    1.8217    0.1126 C   0  0  0  0  0  0  0  0  0  0  0  0
    5.6613    1.3408    0.3070 C   0  0  0  0  0  0  0  0  0  0  0  0
    4.7119    0.7879   -0.5153 C   0  0  0  0  0  0  0  0  0  0  0  0
    3.6003    0.5584    0.3259 C   0  0  0  0  0  0  0  0  0  0  0  0
    2.3700    0.0190    0.0230 N   0  0  0  0  0  0  0  0  0  0  0  0
    1.9707   -0.4187   -1.2131 C   0  0  0  0  0  0  0  0  0  0  0  0
    2.6673   -0.3905   -2.2266 O   0  0  0  0  0  0  0  0  0  0  0  0
    0.5731   -0.9603   -1.2701 C   0  0  0  0  0  0  0  0  0  0  0  0
    0.1174   -1.3984   -2.4585 C   0  0  0  0  0  0  0  0  0  0  0  0
   -1.2126   -1.9290   -2.6079 C   0  0  0  0  0  0  0  0  0  0  0  0
   -2.0260   -1.9996   -1.5502 C   0  0  0  0  0  0  0  0  0  0  0  0
   -1.6120   -1.5724   -0.3004 N   0  0  0  0  0  0  0  0  0  0  0  0
   -2.5464   -1.6449    0.8237 C   0  0  0  0  0  0  0  0  0  0  0  0
   -3.4952   -0.4683    0.8593 C   0  0  0  0  0  0  0  0  0  0  0  0
   -3.0781    0.7683    1.3790 C   0  0  0  0  0  0  0  0  0  0  0  0
   -3.9453    1.8642    1.3983 C   0  0  0  0  0  0  0  0  0  0  0  0
   -5.2381    1.7365    0.8952 C   0  0  0  0  0  0  0  0  0  0  0  0
   -5.6517    0.5154    0.3776 C   0  0  0  0  0  0  0  0  0  0  0  0
   -6.8937    0.3916   -0.1089 F   0  0  0  0  0  0  0  0  0  0  0  0
   -4.7974   -0.5830    0.3537 C   0  0  0  0  0  0  0  0  0  0  0  0
   -0.3395   -1.0380   -0.0828 C   0  0  0  0  0  0  0  0  0  0  0  0
    0.0505   -0.6418    1.0164 O   0  0  0  0  0  0  0  0  0  0  0  0
    3.8643    0.9494    1.5781 N   0  0  0  0  0  0  0  0  0  0  0  0
    5.1565    1.4393    1.5640 O   0  0  0  0  0  0  0  0  0  0  0  0
    7.3543    1.7007   -0.9284 H   0  0  0  0  0  0  0  0  0  0  0  0
    7.1154    2.8825    0.3700 H   0  0  0  0  0  0  0  0  0  0  0  0
    7.7341    1.2616    0.7456 H   0  0  0  0  0  0  0  0  0  0  0  0
    4.8130    0.5823   -1.5700 H   0  0  0  0  0  0  0  0  0  0  0  0
    1.7332   -0.0407    0.8165 H   0  0  0  0  0  0  0  0  0  0  0  0
    0.7362   -1.3639   -3.3521 H   0  0  0  0  0  0  0  0  0  0  0  0
   -1.5342   -2.2603   -3.5904 H   0  0  0  0  0  0  0  0  0  0  0  0
   -3.0354   -2.3907   -1.6402 H   0  0  0  0  0  0  0  0  0  0  0  0
   -1.9958   -1.6907    1.7714 H   0  0  0  0  0  0  0  0  0  0  0  0
   -3.1049   -2.5879    0.7591 H   0  0  0  0  0  0  0  0  0  0  0  0
   -2.0691    0.8843    1.7737 H   0  0  0  0  0  0  0  0  0  0  0  0
   -3.6093    2.8151    1.8043 H   0  0  0  0  0  0  0  0  0  0  0  0
   -5.9227    2.5783    0.9024 H   0  0  0  0  0  0  0  0  0  0  0  0
   -5.1612   -1.5179   -0.0613 H   0  0  0  0  0  0  0  0  0  0  0  0
  1  2  1  0
  2  3  2  0
  3  4  1  0
  4  5  1  0
  5  6  1  0
  6  7  2  0
  6  8  1  0
  8  9  2  0
  9 10  1  0
 10 11  2  0
 11 12  1  0
 12 13  1  0
 13 14  1  0
 14 15  2  0
 15 16  1  0
 16 17  2  0
 17 18  1  0
 18 19  1  0
 18 20  2  0
 12 21  1  0
 21 22  2  0
  4 23  2  0
 23 24  1  0
 24  2  1  0
 21  8  1  0
 20 14  1  0
  1 25  1  0
  1 26  1  0
  1 27  1  0
  3 28  1  0
  5 29  1  0
  9 30  1  0
 10 31  1  0
 11 32  1  0
 13 33  1  0
 13 34  1  0
 15 35  1  0
 16 36  1  0
 17 37  1  0
 20 38  1  0
M  END
$$$$
