
     RDKit          3D

 48 50  0  0  0  0  0  0  0  0999 V2000
   -4.7453    2.0621    0.7512 C   0  0  0  0  0  0  0  0  0  0  0  0
   -3.4611    2.0280    0.1288 O   0  0  0  0  0  0  0  0  0  0  0  0
   -3.2006    0.8659   -0.5213 C   0  0  0  0  0  0  0  0  0  0  0  0
   -3.9415   -0.0994   -0.6070 O   0  0  0  0  0  0  0  0  0  0  0  0
   -1.8273    0.8935   -1.0605 C   0  0  0  0  0  0  0  0  0  0  0  0
   -1.3983    1.8274   -1.9400 C   0  0  0  0  0  0  0  0  0  0  0  0
   -2.2544    2.9348   -2.4985 C   0  0  0  0  0  0  0  0  0  0  0  0
   -0.0954    1.7683   -2.4192 N   0  0  0  0  0  0  0  0  0  0  0  0
    0.7633    0.7009   -2.1944 C   0  0  0  0  0  0  0  0  0  0  0  0
    2.0511    0.7085   -2.9761 C   0  0  0  0  0  0  0  0  0  0  0  0
    0.3978   -0.2711   -1.3312 C   0  0  0  0  0  0  0  0  0  0  0  0
    1.2325   -1.4648   -1.1257 C   0  0  0  0  0  0  0  0  0  0  0  0
    1.1370   -2.4838   -1.7883 O   0  0  0  0  0  0  0  0  0  0  0  0
    2.0920   -1.2249   -0.1063 O   0  0  0  0  0  0  0  0  0  0  0  0
    2.9498   -2.3198    0.2609 C   0  0  0  0  0  0  0  0  0  0  0  0
    3.3159   -2.1295    1.7276 C   0  0  0  0  0  0  0  0  0  0  0  0
    4.1965   -2.3020   -0.6155 C   0  0  0  0  0  0  0  0  0  0  0  0
   -0.9239   -0.2378   -0.5822 C   0  0  0  0  0  0  0  0  0  0  0  0
   -0.6933   -0.1614    0.9195 C   0  0  0  0  0  0  0  0  0  0  0  0
   -0.1936    1.0069    1.5610 C   0  0  0  0  0  0  0  0  0  0  0  0
    0.0539    1.1056    2.9559 C   0  0  0  0  0  0  0  0  0  0  0  0
   -0.1638    0.0438    3.8485 C   0  0  0  0  0  0  0  0  0  0  0  0
   -0.6441   -1.1323    3.2470 C   0  0  0  0  0  0  0  0  0  0  0  0
   -0.9356   -2.3088    3.8144 N   0  0  0  0  0  0  0  0  0  0  0  0
   -1.3593   -3.1292    2.7839 O   0  0  0  0  0  0  0  0  0  0  0  0
   -1.3340   -2.4785    1.5641 N   0  0  0  0  0  0  0  0  0  0  0  0
   -0.9028   -1.2359    1.8155 C   0  0  0  0  0  0  0  0  0  0  0  0
   -4.8535    1.2371    1.4627 H   0  0  0  0  0  0  0  0  0  0  0  0
   -5.5352    2.0281   -0.0054 H   0  0  0  0  0  0  0  0  0  0  0  0
   -4.8294    3.0031    1.3009 H   0  0  0  0  0  0  0  0  0  0  0  0
   -2.1086    3.0168   -3.5815 H   0  0  0  0  0  0  0  0  0  0  0  0
   -3.3246    2.7733   -2.3425 H   0  0  0  0  0  0  0  0  0  0  0  0
   -1.9767    3.8906   -2.0431 H   0  0  0  0  0  0  0  0  0  0  0  0
    0.1523    2.4086   -3.1707 H   0  0  0  0  0  0  0  0  0  0  0  0
    2.6315    1.6048   -2.7321 H   0  0  0  0  0  0  0  0  0  0  0  0
    2.6869   -0.1584   -2.7763 H   0  0  0  0  0  0  0  0  0  0  0  0
    1.8377    0.7171   -4.0502 H   0  0  0  0  0  0  0  0  0  0  0  0
    2.4225   -3.2756    0.1555 H   0  0  0  0  0  0  0  0  0  0  0  0
    2.4138   -2.1272    2.3491 H   0  0  0  0  0  0  0  0  0  0  0  0
    3.8090   -1.1639    1.8874 H   0  0  0  0  0  0  0  0  0  0  0  0
    3.9787   -2.9258    2.0794 H   0  0  0  0  0  0  0  0  0  0  0  0
    4.8918   -3.0974   -0.3304 H   0  0  0  0  0  0  0  0  0  0  0  0
    4.7132   -1.3388   -0.5401 H   0  0  0  0  0  0  0  0  0  0  0  0
    3.9335   -2.4354   -1.6702 H   0  0  0  0  0  0  0  0  0  0  0  0
   -1.4438   -1.1780   -0.8154 H   0  0  0  0  0  0  0  0  0  0  0  0
    0.0216    1.8879    0.9513 H   0  0  0  0  0  0  0  0  0  0  0  0
    0.4351    2.0488    3.3491 H   0  0  0  0  0  0  0  0  0  0  0  0
    0.0286    0.1180    4.9104 H   0  0  0  0  0  0  0  0  0  0  0  0
  1  2  1  0
  2  3  1  0
  3  4  2  0
  3  5  1  0
  5  6  2  0
  6  7  1  0
  6  8  1  0
  8  9  1  0
  9 10  1  0
  9 11  2  0
 11 12  1  0
 12 13  2  0
 12 14  1  0
 14 15  1  0
 15 16  1  0
 15 17  1  0
 11 18  1  0
 18 19  1  0
 19 20  2  0
 20 21  1  0
 21 22  2  0
 22 23  1  0
 23 24  2  0
 24 25  1  0
 25 26  1  0
 26 27  2  0
 18  5  1  0
 27 19  1  0
 27 23  1  0
  1 28  1  0
  1 29  1  0
  1 30  1  0
  7 31  1  0
  7 32  1  0
  7 33  1  0
  8 34  1  0
 10 35  1  0
 10 36  1  0
 10 37  1  0
 15 38  1  0
 16 39  1  0
 16 40  1  0
 16 41  1  0
 17 42  1  0
 17 43  1  0
 17 44  1  0
 18 45  1  0
 20 46  1  0
 21 47  1  0
 22 48  1  0
M  END
$$$$
