
     RDKit          3D

 47 49  0  0  0  0  0  0  0  0999 V2000
   -5.7874    0.2427   -2.1458 C   0  0  0  0  0  0  0  0  0  0  0  0
   -4.9546   -0.5367   -1.1329 C   0  0  0  0  0  0  0  0  0  0  0  0
   -3.5132   -0.2893   -1.2623 N   0  0  0  0  0  0  0  0  0  0  0  0
   -2.7250   -1.1869   -0.3900 C   0  0  0  0  0  0  0  0  0  0  0  0
   -2.1904   -0.5117    0.8913 C   0  0  0  0  0  0  0  0  0  0  0  0
   -1.2744    0.6103    0.6032 N   0  0  0  0  0  0  0  0  0  0  0  0
   -1.1301    1.4798    1.7863 C   0  0  0  0  0  0  0  0  0  0  0  0
    0.1105    2.3950    1.7252 C   0  0  0  0  0  0  0  0  0  0  0  0
    1.3267    1.6497    1.4588 N   0  0  0  0  0  0  0  0  0  0  0  0
    1.9611    0.9336    2.4405 C   0  0  0  0  0  0  0  0  0  0  0  0
    1.6784    1.0499    3.6307 O   0  0  0  0  0  0  0  0  0  0  0  0
    3.0124   -0.0161    1.9749 C   0  0  0  0  0  0  0  0  0  0  0  0
    3.6835   -0.7152    2.9055 C   0  0  0  0  0  0  0  0  0  0  0  0
    4.6744   -1.6330    2.6609 N   0  0  0  0  0  0  0  0  0  0  0  0
    4.9578   -1.8184    1.4185 C   0  0  0  0  0  0  0  0  0  0  0  0
    6.1822   -2.9399    0.8595 S   0  0  0  0  0  0  0  0  0  0  0  0
    5.8453   -2.5200   -0.7904 C   0  0  0  0  0  0  0  0  0  0  0  0
    4.8766   -1.5958   -0.8928 C   0  0  0  0  0  0  0  0  0  0  0  0
    4.3771   -1.0470   -2.1881 C   0  0  0  0  0  0  0  0  0  0  0  0
    4.3684   -1.1899    0.3400 N   0  0  0  0  0  0  0  0  0  0  0  0
    3.3688   -0.2561    0.5487 C   0  0  0  0  0  0  0  0  0  0  0  0
    2.7851    0.3575   -0.3452 O   0  0  0  0  0  0  0  0  0  0  0  0
   -1.6839    1.3354   -0.6171 C   0  0  0  0  0  0  0  0  0  0  0  0
   -3.1621    1.1262   -1.0231 C   0  0  0  0  0  0  0  0  0  0  0  0
   -5.7454    1.3211   -1.9645 H   0  0  0  0  0  0  0  0  0  0  0  0
   -6.8372   -0.0617   -2.0778 H   0  0  0  0  0  0  0  0  0  0  0  0
   -5.4477    0.0486   -3.1686 H   0  0  0  0  0  0  0  0  0  0  0  0
   -5.3033   -0.3103   -0.1176 H   0  0  0  0  0  0  0  0  0  0  0  0
   -5.1520   -1.6014   -1.3104 H   0  0  0  0  0  0  0  0  0  0  0  0
   -3.2925   -2.0856   -0.1177 H   0  0  0  0  0  0  0  0  0  0  0  0
   -1.8699   -1.5485   -0.9761 H   0  0  0  0  0  0  0  0  0  0  0  0
   -1.6529   -1.2582    1.4879 H   0  0  0  0  0  0  0  0  0  0  0  0
   -3.0475   -0.1743    1.4903 H   0  0  0  0  0  0  0  0  0  0  0  0
   -1.0203    0.8466    2.6768 H   0  0  0  0  0  0  0  0  0  0  0  0
   -2.0314    2.0868    1.9384 H   0  0  0  0  0  0  0  0  0  0  0  0
    0.0143    3.1453    0.9348 H   0  0  0  0  0  0  0  0  0  0  0  0
    0.2188    2.9254    2.6779 H   0  0  0  0  0  0  0  0  0  0  0  0
    1.4809    1.3679    0.4905 H   0  0  0  0  0  0  0  0  0  0  0  0
    3.4565   -0.5769    3.9625 H   0  0  0  0  0  0  0  0  0  0  0  0
    6.3740   -2.9725   -1.6192 H   0  0  0  0  0  0  0  0  0  0  0  0
    3.3109   -1.2589   -2.3164 H   0  0  0  0  0  0  0  0  0  0  0  0
    4.9007   -1.4966   -3.0393 H   0  0  0  0  0  0  0  0  0  0  0  0
    4.5400    0.0340   -2.2428 H   0  0  0  0  0  0  0  0  0  0  0  0
   -1.0465    0.9801   -1.4373 H   0  0  0  0  0  0  0  0  0  0  0  0
   -1.4909    2.4110   -0.5390 H   0  0  0  0  0  0  0  0  0  0  0  0
   -3.7931    1.5558   -0.2330 H   0  0  0  0  0  0  0  0  0  0  0  0
   -3.3528    1.6983   -1.9385 H   0  0  0  0  0  0  0  0  0  0  0  0
  1  2  1  0
  2  3  1  0
  3  4  1  0
  4  5  1  0
  5  6  1  0
  6  7  1  0
  7  8  1  0
  8  9  1  0
  9 10  1  0
 10 11  2  0
 10 12  1  0
 12 13  2  0
 13 14  1  0
 14 15  2  0
 15 16  1  0
 16 17  1  0
 17 18  2  0
 18 19  1  0
 18 20  1  0
 20 21  1  0
 21 22  2  0
  6 23  1  0
 23 24  1  0
 24  3  1  0
 21 12  1  0
 20 15  1  0
  1 25  1  0
  1 26  1  0
  1 27  1  0
  2 28  1  0
  2 29  1  0
  4 30  1  0
  4 31  1  0
  5 32  1  0
  5 33  1  0
  7 34  1  0
  7 35  1  0
  8 36  1  0
  8 37  1  0
  9 38  1  0
 13 39  1  0
 17 40  1  0
 19 41  1  0
 19 42  1  0
 19 43  1  0
 23 44  1  0
 23 45  1  0
 24 46  1  0
 24 47  1  0
M  END
$$$$
