
     RDKit          3D

 58 61  0  0  0  0  0  0  0  0999 V2000
    5.8675   -2.1635   -1.2413 C   0  0  0  0  0  0  0  0  0  0  0  0
    6.8172   -1.0051   -1.0888 C   0  0  0  0  0  0  0  0  0  0  0  0
    8.1953   -1.2545   -1.2239 C   0  0  0  0  0  0  0  0  0  0  0  0
    9.1242   -0.2252   -1.0931 C   0  0  0  0  0  0  0  0  0  0  0  0
    8.6868    1.0657   -0.8267 C   0  0  0  0  0  0  0  0  0  0  0  0
    7.3213    1.3299   -0.6896 C   0  0  0  0  0  0  0  0  0  0  0  0
    6.3728    0.3082   -0.8149 C   0  0  0  0  0  0  0  0  0  0  0  0
    4.9847    0.5436   -0.6871 N   0  0  0  0  0  0  0  0  0  0  0  0
    4.3393    1.7251   -0.3520 C   0  0  0  0  0  0  0  0  0  0  0  0
    4.8675    2.8001   -0.0829 O   0  0  0  0  0  0  0  0  0  0  0  0
    2.8246    1.5900   -0.3756 C   0  0  0  0  0  0  0  0  0  0  0  0
    2.2803    0.4576    0.9402 S   0  0  0  0  0  0  0  0  0  0  0  0
    0.5488    0.6100    0.7536 C   0  0  0  0  0  0  0  0  0  0  0  0
    0.0558    0.8704   -0.4069 N   0  0  0  0  0  0  0  0  0  0  0  0
   -1.3106    0.9841   -0.5369 C   0  0  0  0  0  0  0  0  0  0  0  0
   -1.8152    1.1956   -1.6373 O   0  0  0  0  0  0  0  0  0  0  0  0
   -2.1107    0.8467    0.6116 N   0  0  0  0  0  0  0  0  0  0  0  0
   -3.5611    0.9727    0.4544 C   0  0  0  0  0  0  0  0  0  0  0  0
   -4.2006   -0.3344   -0.0579 C   0  0  0  0  0  0  0  0  0  0  0  0
   -5.6680   -0.2531   -0.1606 N   0  0  0  0  0  0  0  0  0  0  0  0
   -6.2555   -1.6110   -0.2251 C   0  0  0  0  0  0  0  0  0  0  0  0
   -7.6684   -1.5921   -0.8255 C   0  0  0  0  0  0  0  0  0  0  0  0
   -7.6826   -1.1599   -2.1926 O   0  0  0  0  0  0  0  0  0  0  0  0
   -6.5943   -0.2842   -2.5164 C   0  0  0  0  0  0  0  0  0  0  0  0
   -6.1178    0.5558   -1.3192 C   0  0  0  0  0  0  0  0  0  0  0  0
   -1.5451    0.5412    1.8243 C   0  0  0  0  0  0  0  0  0  0  0  0
   -0.2293    0.4063    1.9691 C   0  0  0  0  0  0  0  0  0  0  0  0
    0.1745    0.0886    3.3585 C   0  0  0  0  0  0  0  0  0  0  0  0
   -1.1707   -0.2705    4.0033 C   0  0  0  0  0  0  0  0  0  0  0  0
   -2.2664    0.3313    3.1121 C   0  0  0  0  0  0  0  0  0  0  0  0
    5.1806   -1.9847   -2.0748 H   0  0  0  0  0  0  0  0  0  0  0  0
    6.3990   -3.0981   -1.4506 H   0  0  0  0  0  0  0  0  0  0  0  0
    5.2973   -2.3113   -0.3185 H   0  0  0  0  0  0  0  0  0  0  0  0
    8.5554   -2.2596   -1.4336 H   0  0  0  0  0  0  0  0  0  0  0  0
   10.1860   -0.4303   -1.1999 H   0  0  0  0  0  0  0  0  0  0  0  0
    9.4045    1.8758   -0.7248 H   0  0  0  0  0  0  0  0  0  0  0  0
    7.0320    2.3561   -0.4871 H   0  0  0  0  0  0  0  0  0  0  0  0
    4.3804   -0.2617   -0.7879 H   0  0  0  0  0  0  0  0  0  0  0  0
    2.3819    2.5795   -0.2212 H   0  0  0  0  0  0  0  0  0  0  0  0
    2.5220    1.2196   -1.3606 H   0  0  0  0  0  0  0  0  0  0  0  0
   -4.0130    1.2735    1.4067 H   0  0  0  0  0  0  0  0  0  0  0  0
   -3.7530    1.7943   -0.2450 H   0  0  0  0  0  0  0  0  0  0  0  0
   -3.9367   -1.1235    0.6592 H   0  0  0  0  0  0  0  0  0  0  0  0
   -3.7598   -0.6336   -1.0175 H   0  0  0  0  0  0  0  0  0  0  0  0
   -5.6291   -2.2694   -0.8418 H   0  0  0  0  0  0  0  0  0  0  0  0
   -6.2921   -2.0309    0.7861 H   0  0  0  0  0  0  0  0  0  0  0  0
   -8.1040   -2.5960   -0.7957 H   0  0  0  0  0  0  0  0  0  0  0  0
   -8.3296   -0.9334   -0.2502 H   0  0  0  0  0  0  0  0  0  0  0  0
   -6.9341    0.3729   -3.3235 H   0  0  0  0  0  0  0  0  0  0  0  0
   -5.7732   -0.8908   -2.9159 H   0  0  0  0  0  0  0  0  0  0  0  0
   -5.3522    1.2628   -1.6547 H   0  0  0  0  0  0  0  0  0  0  0  0
   -6.9634    1.1607   -0.9684 H   0  0  0  0  0  0  0  0  0  0  0  0
    0.6223    0.9624    3.8432 H   0  0  0  0  0  0  0  0  0  0  0  0
    0.8681   -0.7547    3.4229 H   0  0  0  0  0  0  0  0  0  0  0  0
   -1.2392    0.0890    5.0353 H   0  0  0  0  0  0  0  0  0  0  0  0
   -1.2826   -1.3624    4.0353 H   0  0  0  0  0  0  0  0  0  0  0  0
   -3.1095   -0.3603    3.0232 H   0  0  0  0  0  0  0  0  0  0  0  0
   -2.6223    1.2847    3.5166 H   0  0  0  0  0  0  0  0  0  0  0  0
  1  2  1  0
  2  3  2  0
  3  4  1  0
  4  5  2  0
  5  6  1  0
  6  7  2  0
  7  8  1  0
  8  9  1  0
  9 10  2  0
  9 11  1  0
 11 12  1  0
 12 13  1  0
 13 14  2  0
 14 15  1  0
 15 16  2  0
 15 17  1  0
 17 18  1  0
 18 19  1  0
 19 20  1  0
 20 21  1  0
 21 22  1  0
 22 23  1  0
 23 24  1  0
 24 25  1  0
 17 26  1  0
 26 27  2  0
 27 28  1  0
 28 29  1  0
 29 30  1  0
  7  2  1  0
 27 13  1  0
 25 20  1  0
 30 26  1  0
  1 31  1  0
  1 32  1  0
  1 33  1  0
  3 34  1  0
  4 35  1  0
  5 36  1  0
  6 37  1  0
  8 38  1  0
 11 39  1  0
 11 40  1  0
 18 41  1  0
 18 42  1  0
 19 43  1  0
 19 44  1  0
 21 45  1  0
 21 46  1  0
 22 47  1  0
 22 48  1  0
 24 49  1  0
 24 50  1  0
 25 51  1  0
 25 52  1  0
 28 53  1  0
 28 54  1  0
 29 55  1  0
 29 56  1  0
 30 57  1  0
 30 58  1  0
M  END
$$$$
