
     RDKit          3D

 33 35  0  0  0  0  0  0  0  0999 V2000
   -5.9647    0.6655    0.7228 C   0  0  0  0  0  0  0  0  0  0  0  0
   -4.4797    0.4852    0.6006 C   0  0  0  0  0  0  0  0  0  0  0  0
   -3.6592    0.5895    1.7300 C   0  0  0  0  0  0  0  0  0  0  0  0
   -2.2805    0.3924    1.6230 C   0  0  0  0  0  0  0  0  0  0  0  0
   -1.7083    0.0678    0.3876 C   0  0  0  0  0  0  0  0  0  0  0  0
   -0.2314   -0.1342    0.3170 C   0  0  0  0  0  0  0  0  0  0  0  0
    0.4796    0.4613    1.1165 O   0  0  0  0  0  0  0  0  0  0  0  0
    0.1819   -1.0369   -0.6316 N   0  0  0  0  0  0  0  0  0  0  0  0
    1.4747   -1.4232   -0.8958 C   0  0  0  0  0  0  0  0  0  0  0  0
    1.7218   -2.5408   -1.5510 N   0  0  0  0  0  0  0  0  0  0  0  0
    3.0792   -2.7084   -1.6370 N   0  0  0  0  0  0  0  0  0  0  0  0
    3.6370   -1.6675   -1.0709 C   0  0  0  0  0  0  0  0  0  0  0  0
    2.6733   -0.8016   -0.6251 N   0  0  0  0  0  0  0  0  0  0  0  0
    2.9230    0.5197   -0.0997 C   0  0  0  0  0  0  0  0  0  0  0  0
    4.2810    1.1041   -0.4802 C   0  0  0  0  0  0  0  0  0  0  0  0
    5.4100    0.1766   -0.0634 C   0  0  0  0  0  0  0  0  0  0  0  0
    5.3369   -1.3830   -0.9745 S   0  0  0  0  0  0  0  0  0  0  0  0
   -2.5250   -0.0363   -0.7458 C   0  0  0  0  0  0  0  0  0  0  0  0
   -3.9043    0.1627   -0.6347 C   0  0  0  0  0  0  0  0  0  0  0  0
   -6.2077    1.3743    1.5214 H   0  0  0  0  0  0  0  0  0  0  0  0
   -6.4407   -0.2946    0.9444 H   0  0  0  0  0  0  0  0  0  0  0  0
   -6.3873    1.0649   -0.2051 H   0  0  0  0  0  0  0  0  0  0  0  0
   -4.0876    0.8286    2.7013 H   0  0  0  0  0  0  0  0  0  0  0  0
   -1.6557    0.4864    2.5092 H   0  0  0  0  0  0  0  0  0  0  0  0
   -0.4997   -1.6733   -1.0269 H   0  0  0  0  0  0  0  0  0  0  0  0
    2.8556    0.4465    0.9907 H   0  0  0  0  0  0  0  0  0  0  0  0
    2.1474    1.1900   -0.4825 H   0  0  0  0  0  0  0  0  0  0  0  0
    4.3239    1.3020   -1.5591 H   0  0  0  0  0  0  0  0  0  0  0  0
    4.4032    2.0712    0.0218 H   0  0  0  0  0  0  0  0  0  0  0  0
    6.3771    0.6478   -0.2652 H   0  0  0  0  0  0  0  0  0  0  0  0
    5.3630   -0.0337    1.0105 H   0  0  0  0  0  0  0  0  0  0  0  0
   -2.1080   -0.2483   -1.7267 H   0  0  0  0  0  0  0  0  0  0  0  0
   -4.5286    0.0734   -1.5219 H   0  0  0  0  0  0  0  0  0  0  0  0
  1  2  1  0
  2  3  2  0
  3  4  1  0
  4  5  2  0
  5  6  1  0
  6  7  2  0
  6  8  1  0
  8  9  1  0
  9 10  2  0
 10 11  1  0
 11 12  2  0
 12 13  1  0
 13 14  1  0
 14 15  1  0
 15 16  1  0
 16 17  1  0
  5 18  1  0
 18 19  2  0
 19  2  1  0
 13  9  1  0
 17 12  1  0
  1 20  1  0
  1 21  1  0
  1 22  1  0
  3 23  1  0
  4 24  1  0
  8 25  1  0
 14 26  1  0
 14 27  1  0
 15 28  1  0
 15 29  1  0
 16 30  1  0
 16 31  1  0
 18 32  1  0
 19 33  1  0
M  END
$$$$
