
     RDKit          3D

 47 49  0  0  0  0  0  0  0  0999 V2000
   -7.0405   -1.1141   -1.8242 C   0  0  0  0  0  0  0  0  0  0  0  0
   -6.3424    0.0890   -1.5367 O   0  0  0  0  0  0  0  0  0  0  0  0
   -5.0953   -0.0184   -0.9743 C   0  0  0  0  0  0  0  0  0  0  0  0
   -4.4702   -1.2272   -0.6601 C   0  0  0  0  0  0  0  0  0  0  0  0
   -3.1935   -1.2413   -0.0866 C   0  0  0  0  0  0  0  0  0  0  0  0
   -2.5232   -0.0497    0.1802 C   0  0  0  0  0  0  0  0  0  0  0  0
   -1.2392    0.0164    0.7632 N   0  0  0  0  0  0  0  0  0  0  0  0
   -0.4106   -1.0396    1.0896 C   0  0  0  0  0  0  0  0  0  0  0  0
   -0.6075   -2.2302    0.8788 O   0  0  0  0  0  0  0  0  0  0  0  0
    0.8695   -0.5917    1.7229 C   0  0  0  0  0  0  0  0  0  0  0  0
    0.9218    0.3980    2.7771 C   0  0  0  0  0  0  0  0  0  0  0  0
    2.0976    0.7682    3.3020 C   0  0  0  0  0  0  0  0  0  0  0  0
    3.3693    0.1630    2.8155 C   0  0  0  0  0  0  0  0  0  0  0  0
    4.4320    0.5448    3.2965 O   0  0  0  0  0  0  0  0  0  0  0  0
    3.2392   -0.8168    1.8326 N   0  0  0  0  0  0  0  0  0  0  0  0
    4.4490   -1.4512    1.3113 C   0  0  0  0  0  0  0  0  0  0  0  0
    4.8837   -0.8568   -0.0095 C   0  0  0  0  0  0  0  0  0  0  0  0
    4.6433   -1.5334   -1.2166 C   0  0  0  0  0  0  0  0  0  0  0  0
    5.0311   -0.9724   -2.4367 C   0  0  0  0  0  0  0  0  0  0  0  0
    5.6600    0.2707   -2.4624 C   0  0  0  0  0  0  0  0  0  0  0  0
    5.8962    0.9430   -1.2694 C   0  0  0  0  0  0  0  0  0  0  0  0
    6.4977    2.1396   -1.2963 F   0  0  0  0  0  0  0  0  0  0  0  0
    5.5158    0.3945   -0.0491 C   0  0  0  0  0  0  0  0  0  0  0  0
    2.0037   -1.1764    1.3072 C   0  0  0  0  0  0  0  0  0  0  0  0
   -3.1496    1.1656   -0.1315 C   0  0  0  0  0  0  0  0  0  0  0  0
   -4.4272    1.1916   -0.7081 C   0  0  0  0  0  0  0  0  0  0  0  0
   -5.1054    2.3384   -1.0420 O   0  0  0  0  0  0  0  0  0  0  0  0
   -4.4491    3.5817   -0.8450 C   0  0  0  0  0  0  0  0  0  0  0  0
   -7.2429   -1.6817   -0.9100 H   0  0  0  0  0  0  0  0  0  0  0  0
   -6.4976   -1.7211   -2.5562 H   0  0  0  0  0  0  0  0  0  0  0  0
   -8.0041   -0.8439   -2.2669 H   0  0  0  0  0  0  0  0  0  0  0  0
   -4.9467   -2.1841   -0.8460 H   0  0  0  0  0  0  0  0  0  0  0  0
   -2.7560   -2.2081    0.1428 H   0  0  0  0  0  0  0  0  0  0  0  0
   -0.8686    0.9469    0.9082 H   0  0  0  0  0  0  0  0  0  0  0  0
   -0.0044    0.8127    3.1613 H   0  0  0  0  0  0  0  0  0  0  0  0
    2.1843    1.4954    4.0993 H   0  0  0  0  0  0  0  0  0  0  0  0
    5.2702   -1.3569    2.0324 H   0  0  0  0  0  0  0  0  0  0  0  0
    4.2625   -2.5281    1.2089 H   0  0  0  0  0  0  0  0  0  0  0  0
    4.1507   -2.5039   -1.2156 H   0  0  0  0  0  0  0  0  0  0  0  0
    4.8416   -1.5048   -3.3655 H   0  0  0  0  0  0  0  0  0  0  0  0
    5.9668    0.7196   -3.4015 H   0  0  0  0  0  0  0  0  0  0  0  0
    5.7152    0.9495    0.8644 H   0  0  0  0  0  0  0  0  0  0  0  0
    2.0003   -1.9419    0.5347 H   0  0  0  0  0  0  0  0  0  0  0  0
   -2.6278    2.0918    0.0805 H   0  0  0  0  0  0  0  0  0  0  0  0
   -4.2470    3.7566    0.2167 H   0  0  0  0  0  0  0  0  0  0  0  0
   -3.5312    3.6434   -1.4389 H   0  0  0  0  0  0  0  0  0  0  0  0
   -5.1212    4.3735   -1.1896 H   0  0  0  0  0  0  0  0  0  0  0  0
  1  2  1  0
  2  3  1  0
  3  4  2  0
  4  5  1  0
  5  6  2  0
  6  7  1  0
  7  8  1  0
  8  9  2  0
  8 10  1  0
 10 11  1  0
 11 12  2  0
 12 13  1  0
 13 14  2  0
 13 15  1  0
 15 16  1  0
 16 17  1  0
 17 18  2  0
 18 19  1  0
 19 20  2  0
 20 21  1  0
 21 22  1  0
 21 23  2  0
 15 24  1  0
  6 25  1  0
 25 26  2  0
 26 27  1  0
 27 28  1  0
 26  3  1  0
 24 10  2  0
 23 17  1  0
  1 29  1  0
  1 30  1  0
  1 31  1  0
  4 32  1  0
  5 33  1  0
  7 34  1  0
 11 35  1  0
 12 36  1  0
 16 37  1  0
 16 38  1  0
 18 39  1  0
 19 40  1  0
 20 41  1  0
 23 42  1  0
 24 43  1  0
 25 44  1  0
 28 45  1  0
 28 46  1  0
 28 47  1  0
M  END
$$$$
