
     RDKit          3D

 48 50  0  0  0  0  0  0  0  0999 V2000
   -2.7682   -2.3242    1.8243 O   0  0  0  0  0  0  0  0  0  0  0  0
   -1.6147   -2.5105    1.0154 C   0  0  0  0  0  0  0  0  0  0  0  0
   -1.8010   -1.8149   -0.3339 C   0  0  0  0  0  0  0  0  0  0  0  0
   -1.8969   -0.3330   -0.1454 N   0  0  0  0  0  4  0  0  0  0  0  0
   -3.1343    0.2728   -0.0312 C   0  0  0  0  0  0  0  0  0  0  0  0
   -4.3618   -0.4211   -0.0005 C   0  0  0  0  0  0  0  0  0  0  0  0
   -5.5797    0.2580    0.0950 C   0  0  0  0  0  0  0  0  0  0  0  0
   -5.5939    1.6420    0.1649 C   0  0  0  0  0  0  0  0  0  0  0  0
   -4.3903    2.3426    0.1489 C   0  0  0  0  0  0  0  0  0  0  0  0
   -3.1707    1.6886    0.0579 C   0  0  0  0  0  0  0  0  0  0  0  0
   -2.0692    2.4365    0.0585 N   0  0  0  0  0  0  0  0  0  0  0  0
   -0.8856    1.8319   -0.0109 C   0  0  0  0  0  0  0  0  0  0  0  0
    0.2461    2.6216    0.0266 C   0  0  0  0  0  0  0  0  0  0  0  0
    1.5260    2.0643   -0.0318 C   0  0  0  0  0  0  0  0  0  0  0  0
    1.7194    0.6868   -0.1409 C   0  0  0  0  0  0  0  0  0  0  0  0
    2.9784    0.1201   -0.1806 N   0  0  0  0  0  0  0  0  0  0  0  0
    3.2519   -1.1314   -0.9188 C   0  0  0  0  0  0  0  0  0  0  0  0
    4.6558   -1.0999   -1.5459 C   0  0  0  0  0  0  0  0  0  0  0  0
    5.7033   -0.9313   -0.5861 O   0  0  0  0  0  0  0  0  0  0  0  0
    5.3387   -0.0979    0.5223 C   0  0  0  0  0  0  0  0  0  0  0  0
    4.1850    0.8752    0.2249 C   0  0  0  0  0  0  0  0  0  0  0  0
    0.5602   -0.1082   -0.1759 C   0  0  0  0  0  0  0  0  0  0  0  0
   -0.7463    0.4302   -0.1158 C   0  0  0  0  0  0  0  0  0  0  0  0
    1.4105   -0.2546   -0.2195 O   0  0  0  0  0  1  0  0  0  0  0  0
    0.0000    0.0000   -0.0000 Cl  0  0  0  0  0  4  0  0  0  0  0  0
   -0.2199    1.4279    0.1236 O   0  0  0  0  0  1  0  0  0  0  0  0
   -0.7637   -0.5113   -1.1215 O   0  0  0  0  0  1  0  0  0  0  0  0
   -0.4269   -0.6619    1.2174 O   0  0  0  0  0  1  0  0  0  0  0  0
   -2.6389   -2.8259    2.6539 H   0  0  0  0  0  0  0  0  0  0  0  0
   -0.7506   -2.1164    1.5574 H   0  0  0  0  0  0  0  0  0  0  0  0
   -1.4742   -3.5846    0.8605 H   0  0  0  0  0  0  0  0  0  0  0  0
   -0.9782   -2.0292   -1.0216 H   0  0  0  0  0  0  0  0  0  0  0  0
   -2.6953   -2.1666   -0.8530 H   0  0  0  0  0  0  0  0  0  0  0  0
   -4.4245   -1.5045   -0.0184 H   0  0  0  0  0  0  0  0  0  0  0  0
   -6.5172   -0.2961    0.1243 H   0  0  0  0  0  0  0  0  0  0  0  0
   -6.5375    2.1801    0.2418 H   0  0  0  0  0  0  0  0  0  0  0  0
   -4.4091    3.4302    0.2136 H   0  0  0  0  0  0  0  0  0  0  0  0
    0.1424    3.7034    0.1057 H   0  0  0  0  0  0  0  0  0  0  0  0
    2.3716    2.7494   -0.0075 H   0  0  0  0  0  0  0  0  0  0  0  0
    3.1786   -1.9692   -0.2159 H   0  0  0  0  0  0  0  0  0  0  0  0
    2.5237   -1.2848   -1.7237 H   0  0  0  0  0  0  0  0  0  0  0  0
    4.8477   -2.0347   -2.0823 H   0  0  0  0  0  0  0  0  0  0  0  0
    4.7314   -0.2846   -2.2751 H   0  0  0  0  0  0  0  0  0  0  0  0
    6.2321    0.4572    0.8258 H   0  0  0  0  0  0  0  0  0  0  0  0
    5.0671   -0.7600    1.3529 H   0  0  0  0  0  0  0  0  0  0  0  0
    3.9894    1.4601    1.1310 H   0  0  0  0  0  0  0  0  0  0  0  0
    4.4723    1.5578   -0.5838 H   0  0  0  0  0  0  0  0  0  0  0  0
    0.7169   -1.1799   -0.2065 H   0  0  0  0  0  0  0  0  0  0  0  0
  1  2  1  0
  2  3  1  0
  3  4  1  0
  4  5  2  0
  5  6  1  0
  6  7  2  0
  7  8  1  0
  8  9  2  0
  9 10  1  0
 10 11  2  0
 11 12  1  0
 12 13  2  0
 13 14  1  0
 14 15  2  0
 15 16  1  0
 16 17  1  0
 17 18  1  0
 18 19  1  0
 19 20  1  0
 20 21  1  0
 15 22  1  0
 22 23  2  0
 24 25  1  0
 25 26  1  0
 25 27  1  0
 25 28  1  0
 23  4  1  0
 10  5  1  0
 23 12  1  0
 21 16  1  0
  1 29  1  0
  2 30  1  0
  2 31  1  0
  3 32  1  0
  3 33  1  0
  6 34  1  0
  7 35  1  0
  8 36  1  0
  9 37  1  0
 13 38  1  0
 14 39  1  0
 17 40  1  0
 17 41  1  0
 18 42  1  0
 18 43  1  0
 20 44  1  0
 20 45  1  0
 21 46  1  0
 21 47  1  0
 22 48  1  0
M  CHG  6   4   1  24  -1  25   3  26  -1  27  -1  28  -1
M  END
$$$$
