
     RDKit          3D

 46 48  0  0  0  0  0  0  0  0999 V2000
    0.9139   -1.0217   -1.4062 O   0  0  0  0  0  0  0  0  0  0  0  0
    1.2870    0.0341   -0.9072 C   0  0  0  0  0  0  0  0  0  0  0  0
    2.5159    0.2701   -0.3111 N   0  0  0  0  0  0  0  0  0  0  0  0
    3.5740   -0.6457   -0.1325 C   0  0  0  0  0  0  0  0  0  0  0  0
    3.5264   -1.9836   -0.5240 C   0  0  0  0  0  0  0  0  0  0  0  0
    4.6199   -2.8273   -0.3071 C   0  0  0  0  0  0  0  0  0  0  0  0
    5.7739   -2.3417    0.3045 C   0  0  0  0  0  0  0  0  0  0  0  0
    5.8461   -1.0025    0.7054 C   0  0  0  0  0  0  0  0  0  0  0  0
    7.0794   -0.4514    1.3750 C   0  0  0  0  0  0  0  0  0  0  0  0
    8.1165   -1.3319    1.4289 F   0  0  0  0  0  0  0  0  0  0  0  0
    7.5615    0.6552    0.7429 F   0  0  0  0  0  0  0  0  0  0  0  0
    6.8434   -0.0700    2.6608 F   0  0  0  0  0  0  0  0  0  0  0  0
    4.7374   -0.1646    0.4836 C   0  0  0  0  0  0  0  0  0  0  0  0
    0.3834    1.2727   -0.8866 C   0  0  0  0  0  0  0  0  0  0  0  0
    0.0022    1.6167    0.5623 C   0  0  0  0  0  0  0  0  0  0  0  0
   -1.3813    2.2449    0.6546 C   0  0  0  0  0  0  0  0  0  0  0  0
   -2.4357    1.3297    0.1344 N   0  0  0  0  0  0  0  0  0  0  0  0
   -3.3918    0.6009    1.3542 S   0  0  0  0  0  6  0  0  0  0  0  0
   -2.6224   -0.4927    1.9077 O   0  0  0  0  0  0  0  0  0  0  0  0
   -3.9057    1.6543    2.2044 O   0  0  0  0  0  0  0  0  0  0  0  0
   -4.7525   -0.0553    0.4596 C   0  0  0  0  0  0  0  0  0  0  0  0
   -5.7111    0.7902   -0.0965 C   0  0  0  0  0  0  0  0  0  0  0  0
   -6.7788    0.2270   -0.7884 C   0  0  0  0  0  0  0  0  0  0  0  0
   -6.8406   -1.1554   -0.8893 C   0  0  0  0  0  0  0  0  0  0  0  0
   -5.9238   -1.9922   -0.3508 N   0  0  0  0  0  0  0  0  0  0  0  0
   -4.8962   -1.4233    0.3254 C   0  0  0  0  0  0  0  0  0  0  0  0
   -1.9845    0.4196   -0.9595 C   0  0  0  0  0  0  0  0  0  0  0  0
   -0.8631    1.0697   -1.7621 C   0  0  0  0  0  0  0  0  0  0  0  0
    2.6845    1.2082    0.0289 H   0  0  0  0  0  0  0  0  0  0  0  0
    2.6491   -2.4103   -1.0005 H   0  0  0  0  0  0  0  0  0  0  0  0
    4.5642   -3.8686   -0.6174 H   0  0  0  0  0  0  0  0  0  0  0  0
    6.6147   -3.0148    0.4664 H   0  0  0  0  0  0  0  0  0  0  0  0
    4.8001    0.8751    0.8016 H   0  0  0  0  0  0  0  0  0  0  0  0
    0.9612    2.0980   -1.3242 H   0  0  0  0  0  0  0  0  0  0  0  0
    0.0314    0.7180    1.1927 H   0  0  0  0  0  0  0  0  0  0  0  0
    0.7450    2.3074    0.9797 H   0  0  0  0  0  0  0  0  0  0  0  0
   -1.5787    2.5325    1.6926 H   0  0  0  0  0  0  0  0  0  0  0  0
   -1.4218    3.1740    0.0731 H   0  0  0  0  0  0  0  0  0  0  0  0
   -5.6295    1.8689    0.0102 H   0  0  0  0  0  0  0  0  0  0  0  0
   -7.5469    0.8486   -1.2358 H   0  0  0  0  0  0  0  0  0  0  0  0
   -7.6552   -1.6421   -1.4189 H   0  0  0  0  0  0  0  0  0  0  0  0
   -4.1858   -2.1259    0.7532 H   0  0  0  0  0  0  0  0  0  0  0  0
   -1.6540   -0.5425   -0.5541 H   0  0  0  0  0  0  0  0  0  0  0  0
   -2.8313    0.2368   -1.6295 H   0  0  0  0  0  0  0  0  0  0  0  0
   -0.6363    0.4661   -2.6484 H   0  0  0  0  0  0  0  0  0  0  0  0
   -1.2038    2.0448   -2.1351 H   0  0  0  0  0  0  0  0  0  0  0  0
  1  2  2  0
  2  3  1  0
  3  4  1  0
  4  5  2  0
  5  6  1  0
  6  7  2  0
  7  8  1  0
  8  9  1  0
  9 10  1  0
  9 11  1  0
  9 12  1  0
  8 13  2  0
  2 14  1  0
 14 15  1  0
 15 16  1  0
 16 17  1  0
 17 18  1  0
 18 19  2  0
 18 20  2  0
 18 21  1  0
 21 22  2  0
 22 23  1  0
 23 24  2  0
 24 25  1  0
 25 26  2  0
 17 27  1  0
 27 28  1  0
 13  4  1  0
 28 14  1  0
 26 21  1  0
  3 29  1  0
  5 30  1  0
  6 31  1  0
  7 32  1  0
 13 33  1  0
 14 34  1  0
 15 35  1  0
 15 36  1  0
 16 37  1  0
 16 38  1  0
 22 39  1  0
 23 40  1  0
 24 41  1  0
 26 42  1  0
 27 43  1  0
 27 44  1  0
 28 45  1  0
 28 46  1  0
M  END
$$$$
