
     RDKit          3D

 40 42  0  0  0  0  0  0  0  0999 V2000
   -0.9374    1.9476    3.4387 O   0  0  0  0  0  0  0  0  0  0  0  0
   -1.0902    1.4992    2.3115 C   0  0  0  0  0  0  0  0  0  0  0  0
   -0.3824    0.2914    1.8622 C   0  0  0  0  0  0  0  0  0  0  0  0
   -0.6534   -0.3127    0.6945 C   0  0  0  0  0  0  0  0  0  0  0  0
    0.1269   -1.3839    0.2429 N   0  0  0  0  0  0  0  0  0  0  0  0
   -0.0509   -2.7381    0.8078 C   0  0  0  0  0  0  0  0  0  0  0  0
    1.1147   -3.1546    1.7173 C   0  0  0  0  0  0  0  0  0  0  0  0
    1.0346   -2.5131    2.9870 O   0  0  0  0  0  0  0  0  0  0  0  0
    1.0103   -1.2833   -0.9343 C   0  0  0  0  0  0  0  0  0  0  0  0
    1.7947    0.0099   -0.9565 C   0  0  0  0  0  0  0  0  0  0  0  0
    2.8301    0.2305   -0.0358 C   0  0  0  0  0  0  0  0  0  0  0  0
    3.5391    1.4323   -0.0411 C   0  0  0  0  0  0  0  0  0  0  0  0
    3.2204    2.4260   -0.9645 C   0  0  0  0  0  0  0  0  0  0  0  0
    2.1911    2.2210   -1.8814 C   0  0  0  0  0  0  0  0  0  0  0  0
    1.4803    1.0199   -1.8778 C   0  0  0  0  0  0  0  0  0  0  0  0
   -1.7710    0.1811   -0.1551 C   0  0  0  0  0  0  0  0  0  0  0  0
   -2.2545   -0.5606   -1.2471 C   0  0  0  0  0  0  0  0  0  0  0  0
   -3.2817   -0.0739   -2.0632 C   0  0  0  0  0  0  0  0  0  0  0  0
   -3.8585    1.1635   -1.7976 C   0  0  0  0  0  0  0  0  0  0  0  0
   -3.4220    1.9040   -0.7032 C   0  0  0  0  0  0  0  0  0  0  0  0
   -2.3971    1.4065    0.1168 C   0  0  0  0  0  0  0  0  0  0  0  0
   -2.0034    2.1787    1.3085 C   0  0  0  0  0  0  0  0  0  0  0  0
   -2.4089    3.3170    1.4987 O   0  0  0  0  0  0  0  0  0  0  0  0
    0.4117   -0.0531    2.5126 H   0  0  0  0  0  0  0  0  0  0  0  0
   -0.1359   -3.4526   -0.0198 H   0  0  0  0  0  0  0  0  0  0  0  0
   -0.9909   -2.7856    1.3716 H   0  0  0  0  0  0  0  0  0  0  0  0
    2.0833   -2.9170    1.2677 H   0  0  0  0  0  0  0  0  0  0  0  0
    1.0678   -4.2339    1.8941 H   0  0  0  0  0  0  0  0  0  0  0  0
    1.8183   -2.7800    3.4969 H   0  0  0  0  0  0  0  0  0  0  0  0
    1.7300   -2.1118   -0.9481 H   0  0  0  0  0  0  0  0  0  0  0  0
    0.4253   -1.3906   -1.8546 H   0  0  0  0  0  0  0  0  0  0  0  0
    3.0729   -0.5286    0.7039 H   0  0  0  0  0  0  0  0  0  0  0  0
    4.3332    1.5981    0.6823 H   0  0  0  0  0  0  0  0  0  0  0  0
    3.7683    3.3647   -0.9633 H   0  0  0  0  0  0  0  0  0  0  0  0
    1.9366    3.0011   -2.5943 H   0  0  0  0  0  0  0  0  0  0  0  0
    0.6700    0.8827   -2.5903 H   0  0  0  0  0  0  0  0  0  0  0  0
   -1.8434   -1.5409   -1.4728 H   0  0  0  0  0  0  0  0  0  0  0  0
   -3.6326   -0.6671   -2.9045 H   0  0  0  0  0  0  0  0  0  0  0  0
   -4.6568    1.5441   -2.4301 H   0  0  0  0  0  0  0  0  0  0  0  0
   -3.8887    2.8619   -0.4795 H   0  0  0  0  0  0  0  0  0  0  0  0
  1  2  2  0
  2  3  1  0
  3  4  2  0
  4  5  1  0
  5  6  1  0
  6  7  1  0
  7  8  1  0
  5  9  1  0
  9 10  1  0
 10 11  2  0
 11 12  1  0
 12 13  2  0
 13 14  1  0
 14 15  2  0
  4 16  1  0
 16 17  2  0
 17 18  1  0
 18 19  2  0
 19 20  1  0
 20 21  2  0
 21 22  1  0
 22 23  2  0
 22  2  1  0
 15 10  1  0
 21 16  1  0
  3 24  1  0
  6 25  1  0
  6 26  1  0
  7 27  1  0
  7 28  1  0
  8 29  1  0
  9 30  1  0
  9 31  1  0
 11 32  1  0
 12 33  1  0
 13 34  1  0
 14 35  1  0
 15 36  1  0
 17 37  1  0
 18 38  1  0
 19 39  1  0
 20 40  1  0
M  END
$$$$
