
     RDKit          3D

 51 54  0  0  0  0  0  0  0  0999 V2000
    8.7312   -0.6299    1.0903 C   0  0  0  0  0  0  0  0  0  0  0  0
    8.1212   -1.7433   -0.2018 S   0  0  0  0  0  0  0  0  0  0  0  0
    6.5260   -0.9318   -0.5590 C   0  0  0  0  0  0  0  0  0  0  0  0
    5.4735   -1.2881    0.4954 C   0  0  0  0  0  0  0  0  0  0  0  0
    4.1133   -0.5976    0.2840 C   0  0  2  0  0  0  0  0  0  0  0  0
    3.5491   -0.9133   -1.0107 N   0  0  0  0  0  0  0  0  0  0  0  0
    2.2359   -0.7737   -1.3512 C   0  0  0  0  0  0  0  0  0  0  0  0
    1.8127   -1.4361   -2.2950 O   0  0  0  0  0  0  0  0  0  0  0  0
    1.3429    0.1588   -0.6180 C   0  0  0  0  0  0  0  0  0  0  0  0
   -0.0422   -0.0917   -0.7664 C   0  0  0  0  0  0  0  0  0  0  0  0
   -1.0023    0.7900   -0.2696 C   0  0  0  0  0  0  0  0  0  0  0  0
   -2.3940    0.5944   -0.3730 N   0  0  0  0  0  0  0  0  0  0  0  0
   -3.0528   -0.4948   -0.9091 C   0  0  0  0  0  0  0  0  0  0  0  0
   -2.5589   -1.4962   -1.4075 O   0  0  0  0  0  0  0  0  0  0  0  0
   -4.5325   -0.3363   -0.8569 C   0  0  0  0  0  0  0  0  0  0  0  0
   -5.1380   -0.3038   -2.0543 C   0  0  0  0  0  0  0  0  0  0  0  0
   -6.5927   -0.0733   -2.1643 C   0  0  0  0  0  0  0  0  0  0  0  0
   -7.1426   -0.0336   -3.2587 O   0  0  0  0  0  0  0  0  0  0  0  0
   -7.2785    0.1172   -0.9978 N   0  0  0  0  0  0  0  0  0  0  0  0
   -6.6892    0.0584    0.2707 C   0  0  0  0  0  0  0  0  0  0  0  0
   -7.4864    0.2253    1.4038 C   0  0  0  0  0  0  0  0  0  0  0  0
   -6.9109    0.1333    2.6701 C   0  0  0  0  0  0  0  0  0  0  0  0
   -5.5486   -0.1335    2.7994 C   0  0  0  0  0  0  0  0  0  0  0  0
   -4.7519   -0.2971    1.6624 C   0  0  0  0  0  0  0  0  0  0  0  0
   -5.3114   -0.1850    0.3829 C   0  0  0  0  0  0  0  0  0  0  0  0
   -0.5709    1.9560    0.3599 C   0  0  0  0  0  0  0  0  0  0  0  0
    0.7936    2.2130    0.5173 C   0  0  0  0  0  0  0  0  0  0  0  0
    1.7666    1.3075    0.0629 C   0  0  0  0  0  0  0  0  0  0  0  0
    3.0895    1.6839    0.3464 N   0  0  0  0  0  0  0  0  0  0  0  0
    4.2096    0.9167    0.4849 C   0  0  0  0  0  0  0  0  0  0  0  0
    5.2267    1.4673    0.9153 O   0  0  0  0  0  0  0  0  0  0  0  0
    8.7782    0.3971    0.7192 H   0  0  0  0  0  0  0  0  0  0  0  0
    9.7396   -0.9389    1.3788 H   0  0  0  0  0  0  0  0  0  0  0  0
    8.0932   -0.6745    1.9759 H   0  0  0  0  0  0  0  0  0  0  0  0
    6.2065   -1.2885   -1.5432 H   0  0  0  0  0  0  0  0  0  0  0  0
    6.6893    0.1454   -0.6468 H   0  0  0  0  0  0  0  0  0  0  0  0
    5.8385   -1.0347    1.4982 H   0  0  0  0  0  0  0  0  0  0  0  0
    5.3135   -2.3748    0.4840 H   0  0  0  0  0  0  0  0  0  0  0  0
    3.4241   -0.9763    1.0505 H   0  0  0  0  0  0  0  0  0  0  0  0
    3.9614   -1.6765   -1.5372 H   0  0  0  0  0  0  0  0  0  0  0  0
   -0.3446   -0.9850   -1.3097 H   0  0  0  0  0  0  0  0  0  0  0  0
   -2.9782    1.3414   -0.0158 H   0  0  0  0  0  0  0  0  0  0  0  0
   -4.6038   -0.4205   -2.9910 H   0  0  0  0  0  0  0  0  0  0  0  0
   -8.2738    0.2702   -1.0946 H   0  0  0  0  0  0  0  0  0  0  0  0
   -8.5524    0.4155    1.3147 H   0  0  0  0  0  0  0  0  0  0  0  0
   -7.5276    0.2546    3.5578 H   0  0  0  0  0  0  0  0  0  0  0  0
   -5.1065   -0.2257    3.7892 H   0  0  0  0  0  0  0  0  0  0  0  0
   -3.6984   -0.5310    1.8002 H   0  0  0  0  0  0  0  0  0  0  0  0
   -1.2840    2.6806    0.7460 H   0  0  0  0  0  0  0  0  0  0  0  0
    1.0842    3.1288    1.0296 H   0  0  0  0  0  0  0  0  0  0  0  0
    3.2526    2.6299    0.6732 H   0  0  0  0  0  0  0  0  0  0  0  0
  1  2  1  0
  2  3  1  0
  3  4  1  0
  4  5  1  0
  5  6  1  0
  6  7  1  0
  7  8  2  0
  7  9  1  0
  9 10  2  0
 10 11  1  0
 11 12  1  0
 12 13  1  0
 13 14  2  0
 13 15  1  0
 15 16  2  0
 16 17  1  0
 17 18  2  0
 17 19  1  0
 19 20  1  0
 20 21  2  0
 21 22  1  0
 22 23  2  0
 23 24  1  0
 24 25  2  0
 11 26  2  0
 26 27  1  0
 27 28  2  0
 28 29  1  0
 29 30  1  0
 30 31  2  0
 30  5  1  0
 28  9  1  0
 25 15  1  0
 25 20  1  0
  1 32  1  0
  1 33  1  0
  1 34  1  0
  3 35  1  0
  3 36  1  0
  4 37  1  0
  4 38  1  0
  5 39  1  1
  6 40  1  0
 10 41  1  0
 12 42  1  0
 16 43  1  0
 19 44  1  0
 21 45  1  0
 22 46  1  0
 23 47  1  0
 24 48  1  0
 26 49  1  0
 27 50  1  0
 29 51  1  0
M  END
$$$$
