
     RDKit          3D

 30 32  0  0  0  0  0  0  0  0999 V2000
    6.5304    0.7122    0.7439 O   0  0  0  0  0  0  0  0  0  0  0  0
    5.3881    1.0777    0.5371 C   0  0  0  0  0  0  0  0  0  0  0  0
    5.0997    2.3685    0.2985 O   0  0  0  0  0  0  0  0  0  0  0  0
    4.1888    0.2056    0.5152 C   0  0  0  0  0  0  0  0  0  0  0  0
    4.3641   -1.1631    0.7511 C   0  0  0  0  0  0  0  0  0  0  0  0
    3.2656   -2.0211    0.7402 C   0  0  0  0  0  0  0  0  0  0  0  0
    1.9880   -1.5136    0.4936 C   0  0  0  0  0  0  0  0  0  0  0  0
    1.7919   -0.1441    0.2549 C   0  0  0  0  0  0  0  0  0  0  0  0
    0.4495    0.3696   -0.0012 C   0  0  0  0  0  0  0  0  0  0  0  0
    0.1727    1.6616   -0.2385 N   0  0  0  0  0  0  0  0  0  0  0  0
   -1.2081    1.6765   -0.4221 O   0  0  0  0  0  0  0  0  0  0  0  0
   -1.6391    0.3898   -0.2786 C   0  0  0  0  0  0  0  0  0  0  0  0
   -3.0634    0.1269   -0.4247 C   0  0  0  0  0  0  0  0  0  0  0  0
   -3.5380   -1.1889   -0.2825 C   0  0  0  0  0  0  0  0  0  0  0  0
   -4.8991   -1.4821   -0.4156 C   0  0  0  0  0  0  0  0  0  0  0  0
   -5.8081   -0.4638   -0.6933 C   0  0  0  0  0  0  0  0  0  0  0  0
   -5.3551    0.8454   -0.8374 C   0  0  0  0  0  0  0  0  0  0  0  0
   -3.9959    1.1316   -0.7034 C   0  0  0  0  0  0  0  0  0  0  0  0
   -3.6117    2.4080   -0.8514 F   0  0  0  0  0  0  0  0  0  0  0  0
   -0.6594   -0.4499   -0.0194 N   0  0  0  0  0  0  0  0  0  0  0  0
    2.9048    0.7118    0.2679 C   0  0  0  0  0  0  0  0  0  0  0  0
    5.9687    2.8195    0.3425 H   0  0  0  0  0  0  0  0  0  0  0  0
    5.3576   -1.5643    0.9439 H   0  0  0  0  0  0  0  0  0  0  0  0
    3.4029   -3.0841    0.9236 H   0  0  0  0  0  0  0  0  0  0  0  0
    1.1412   -2.1983    0.4889 H   0  0  0  0  0  0  0  0  0  0  0  0
   -2.8426   -1.9992   -0.0652 H   0  0  0  0  0  0  0  0  0  0  0  0
   -5.2468   -2.5066   -0.3019 H   0  0  0  0  0  0  0  0  0  0  0  0
   -6.8667   -0.6896   -0.7972 H   0  0  0  0  0  0  0  0  0  0  0  0
   -6.0510    1.6506   -1.0539 H   0  0  0  0  0  0  0  0  0  0  0  0
    2.7711    1.7766    0.0848 H   0  0  0  0  0  0  0  0  0  0  0  0
  1  2  2  0
  2  3  1  0
  2  4  1  0
  4  5  2  0
  5  6  1  0
  6  7  2  0
  7  8  1  0
  8  9  1  0
  9 10  2  0
 10 11  1  0
 11 12  1  0
 12 13  1  0
 13 14  2  0
 14 15  1  0
 15 16  2  0
 16 17  1  0
 17 18  2  0
 18 19  1  0
 12 20  2  0
  8 21  2  0
 21  4  1  0
 20  9  1  0
 18 13  1  0
  3 22  1  0
  5 23  1  0
  6 24  1  0
  7 25  1  0
 14 26  1  0
 15 27  1  0
 16 28  1  0
 17 29  1  0
 21 30  1  0
M  END
$$$$
