
     RDKit          3D

 60 62  0  0  0  0  0  0  0  0999 V2000
    0.6843    0.0000    0.0000 Cl  0  0  0  0  0  0  0  0  0  0  0  0
    0.4795   -2.3048    1.3068 N   0  0  0  0  0  0  0  0  0  0  0  0
    1.4550   -1.2839    1.1712 C   0  0  1  0  0  0  0  0  0  0  0  0
    2.6331   -1.8685    0.4049 C   0  0  0  0  0  0  0  0  0  0  0  0
    3.7043   -0.8465    0.2271 C   0  0  0  0  0  0  0  0  0  0  0  0
    4.7002   -0.6435    1.1565 C   0  0  0  0  0  0  0  0  0  0  0  0
    5.6527    0.3175    0.8950 C   0  0  0  0  0  0  0  0  0  0  0  0
    5.6360    1.0778   -0.2649 C   0  0  0  0  0  0  0  0  0  0  0  0
    4.6473    0.8755   -1.1867 C   0  0  0  0  0  0  0  0  0  0  0  0
    3.7017   -0.0863   -0.9162 C   0  0  0  0  0  0  0  0  0  0  0  0
    0.9231   -0.0896    0.5278 C   0  0  0  0  0  0  0  0  0  0  0  0
    1.6510    0.9791    0.6194 O   0  0  0  0  0  0  0  0  0  0  0  0
   -0.2726    0.0261   -0.1694 N   0  0  0  0  0  0  0  0  0  0  0  0
   -1.2139   -1.0245   -0.4512 C   0  0  0  0  0  0  0  0  0  0  0  0
   -2.4729   -0.7735    0.3207 C   0  0  0  0  0  0  0  0  0  0  0  0
   -3.2461   -1.7802    0.6076 C   0  0  0  0  0  0  0  0  0  0  0  0
   -3.0368   -3.1671    0.2587 C   0  0  0  0  0  0  0  0  0  0  0  0
   -2.6973   -3.6094   -0.9988 C   0  0  0  0  0  0  0  0  0  0  0  0
   -2.4840   -4.9692   -1.2385 C   0  0  0  0  0  0  0  0  0  0  0  0
   -2.6015   -5.9135   -0.2453 C   0  0  0  0  0  0  0  0  0  0  0  0
   -2.3300   -7.6206   -0.5575 Cl  0  0  0  0  0  0  0  0  0  0  0  0
   -2.9429   -5.4592    1.0103 C   0  0  0  0  0  0  0  0  0  0  0  0
   -3.1066   -6.6103    2.3165 Cl  0  0  0  0  0  0  0  0  0  0  0  0
   -3.1550   -4.1156    1.2525 C   0  0  0  0  0  0  0  0  0  0  0  0
   -2.7344    0.6214    0.6952 C   0  0  0  0  0  0  0  0  0  0  0  0
   -3.6550    0.8382    1.5429 O   0  0  0  0  0  0  0  0  0  0  0  0
   -1.9399    1.6824    0.0899 C   0  0  0  0  0  0  0  0  0  0  0  0
   -2.3084    2.9375    0.2633 C   0  0  0  0  0  0  0  0  0  0  0  0
   -1.5980    4.0801   -0.2898 C   0  0  0  0  0  0  0  0  0  0  0  0
   -1.1317    4.1414   -1.5796 C   0  0  0  0  0  0  0  0  0  0  0  0
   -0.4442    5.2915   -1.9902 C   0  0  0  0  0  0  0  0  0  0  0  0
   -0.2192    6.3617   -1.1520 C   0  0  0  0  0  0  0  0  0  0  0  0
    0.6457    7.8001   -1.6837 Cl  0  0  0  0  0  0  0  0  0  0  0  0
   -0.6980    6.2827    0.1455 C   0  0  0  0  0  0  0  0  0  0  0  0
   -0.4051    7.6549    1.2083 Cl  0  0  0  0  0  0  0  0  0  0  0  0
   -1.3729    5.1566    0.5540 C   0  0  0  0  0  0  0  0  0  0  0  0
   -0.7261    1.3570   -0.6891 C   0  0  0  0  0  0  0  0  0  0  0  0
   -0.6843    0.0000    0.0000 H   0  0  0  0  0  0  0  0  0  0  0  0
    0.8750   -3.2712    1.3821 H   0  0  0  0  0  0  0  0  0  0  0  0
   -0.2361   -2.1176    2.0490 H   0  0  0  0  0  0  0  0  0  0  0  0
    1.8692   -0.9584    2.1637 H   0  0  0  0  0  0  0  0  0  0  0  0
    3.0745   -2.7175    0.9520 H   0  0  0  0  0  0  0  0  0  0  0  0
    2.3369   -2.2072   -0.5918 H   0  0  0  0  0  0  0  0  0  0  0  0
    4.7259   -1.2329    2.0806 H   0  0  0  0  0  0  0  0  0  0  0  0
    6.4462    0.4757    1.6434 H   0  0  0  0  0  0  0  0  0  0  0  0
    6.3977    1.8366   -0.4597 H   0  0  0  0  0  0  0  0  0  0  0  0
    4.5946    1.4441   -2.1115 H   0  0  0  0  0  0  0  0  0  0  0  0
    2.9271   -0.2332   -1.6580 H   0  0  0  0  0  0  0  0  0  0  0  0
   -1.5248   -0.8349   -1.5385 H   0  0  0  0  0  0  0  0  0  0  0  0
   -0.8701   -2.0387   -0.4225 H   0  0  0  0  0  0  0  0  0  0  0  0
   -4.1635   -1.5695    1.1775 H   0  0  0  0  0  0  0  0  0  0  0  0
   -2.6046   -2.9124   -1.7942 H   0  0  0  0  0  0  0  0  0  0  0  0
   -2.2140   -5.3062   -2.2393 H   0  0  0  0  0  0  0  0  0  0  0  0
   -3.4247   -3.7850    2.2525 H   0  0  0  0  0  0  0  0  0  0  0  0
   -3.2220    3.0890    0.8707 H   0  0  0  0  0  0  0  0  0  0  0  0
   -1.2842    3.3436   -2.2916 H   0  0  0  0  0  0  0  0  0  0  0  0
   -0.0806    5.3344   -3.0014 H   0  0  0  0  0  0  0  0  0  0  0  0
   -1.7288    5.1381    1.5789 H   0  0  0  0  0  0  0  0  0  0  0  0
    0.0696    2.0909   -0.5844 H   0  0  0  0  0  0  0  0  0  0  0  0
   -1.0001    1.1171   -1.7365 H   0  0  0  0  0  0  0  0  0  0  0  0
  2  3  1  0
  3  4  1  0
  4  5  1  0
  5  6  2  0
  6  7  1  0
  7  8  2  0
  8  9  1  0
  9 10  2  0
  3 11  1  0
 11 12  2  0
 11 13  1  0
 13 14  1  0
 14 15  1  0
 15 16  2  0
 16 17  1  0
 17 18  2  0
 18 19  1  0
 19 20  2  0
 20 21  1  0
 20 22  1  0
 22 23  1  0
 22 24  2  0
 15 25  1  0
 25 26  2  0
 25 27  1  0
 27 28  2  0
 28 29  1  0
 29 30  2  0
 30 31  1  0
 31 32  2  0
 32 33  1  0
 32 34  1  0
 34 35  1  0
 34 36  2  0
 27 37  1  0
 10  5  1  0
 37 13  1  0
 24 17  1  0
 36 29  1  0
  1 38  1  0
  2 39  1  0
  2 40  1  0
  3 41  1  1
  4 42  1  0
  4 43  1  0
  6 44  1  0
  7 45  1  0
  8 46  1  0
  9 47  1  0
 10 48  1  0
 14 49  1  0
 14 50  1  0
 16 51  1  0
 18 52  1  0
 19 53  1  0
 24 54  1  0
 28 55  1  0
 30 56  1  0
 31 57  1  0
 36 58  1  0
 37 59  1  0
 37 60  1  0
M  END
$$$$
