
     RDKit          3D

 33 34  0  0  0  0  0  0  0  0999 V2000
   -5.5270   -1.5656    0.1606 C   0  0  0  0  0  0  0  0  0  0  0  0
   -5.2764   -0.4804    1.1983 C   0  0  0  0  0  0  0  0  0  0  0  0
   -4.1183    0.4376    0.8120 C   0  0  0  0  0  0  0  0  0  0  0  0
   -2.9165   -0.3293    0.7699 O   0  0  0  0  0  0  0  0  0  0  0  0
   -1.7626    0.3231    0.4248 C   0  0  0  0  0  0  0  0  0  0  0  0
   -1.6513    1.6880    0.1369 C   0  0  0  0  0  0  0  0  0  0  0  0
   -0.4205    2.2677   -0.2077 C   0  0  0  0  0  0  0  0  0  0  0  0
    0.6830    1.4159   -0.2477 C   0  0  0  0  0  0  0  0  0  0  0  0
    2.0071    1.6226   -0.5366 N   0  0  0  0  0  0  0  0  0  0  0  0
    2.6717    0.4258   -0.4263 C   0  0  0  0  0  0  0  0  0  0  0  0
    4.0165    0.3526   -0.6642 N   0  0  0  0  0  0  0  0  0  0  0  0
    4.7291   -0.8073   -0.5702 C   0  0  0  0  0  0  0  0  0  0  0  0
    4.3450   -1.9278   -0.2784 O   0  0  0  0  0  0  0  0  0  0  0  0
    6.0274   -0.5128   -0.8714 O   0  0  0  0  0  0  0  0  0  0  0  0
    6.9042   -1.6399   -0.8147 C   0  0  0  0  0  0  0  0  0  0  0  0
    1.8424   -0.5303   -0.0831 N   0  0  0  0  0  0  0  0  0  0  0  0
    0.6081    0.0585    0.0329 C   0  0  0  0  0  0  0  0  0  0  0  0
   -0.6298   -0.5017    0.3751 C   0  0  0  0  0  0  0  0  0  0  0  0
   -4.6579   -2.2220    0.0522 H   0  0  0  0  0  0  0  0  0  0  0  0
   -5.7515   -1.1276   -0.8171 H   0  0  0  0  0  0  0  0  0  0  0  0
   -6.3798   -2.1833    0.4596 H   0  0  0  0  0  0  0  0  0  0  0  0
   -6.1865    0.1166    1.3229 H   0  0  0  0  0  0  0  0  0  0  0  0
   -5.0583   -0.9621    2.1586 H   0  0  0  0  0  0  0  0  0  0  0  0
   -4.0300    1.2251    1.5699 H   0  0  0  0  0  0  0  0  0  0  0  0
   -4.3197    0.8871   -0.1679 H   0  0  0  0  0  0  0  0  0  0  0  0
   -2.5169    2.3428    0.1728 H   0  0  0  0  0  0  0  0  0  0  0  0
   -0.3416    3.3263   -0.4295 H   0  0  0  0  0  0  0  0  0  0  0  0
    2.4228    2.5050   -0.7876 H   0  0  0  0  0  0  0  0  0  0  0  0
    4.5460    1.1678   -0.9234 H   0  0  0  0  0  0  0  0  0  0  0  0
    7.9108   -1.2976   -1.0706 H   0  0  0  0  0  0  0  0  0  0  0  0
    6.6021   -2.3988   -1.5433 H   0  0  0  0  0  0  0  0  0  0  0  0
    6.9283   -2.0575    0.1968 H   0  0  0  0  0  0  0  0  0  0  0  0
   -0.6997   -1.5611    0.5964 H   0  0  0  0  0  0  0  0  0  0  0  0
  1  2  1  0
  2  3  1  0
  3  4  1  0
  4  5  1  0
  5  6  2  0
  6  7  1  0
  7  8  2  0
  8  9  1  0
  9 10  1  0
 10 11  1  0
 11 12  1  0
 12 13  2  0
 12 14  1  0
 14 15  1  0
 10 16  2  0
 16 17  1  0
 17 18  2  0
 18  5  1  0
 17  8  1  0
  1 19  1  0
  1 20  1  0
  1 21  1  0
  2 22  1  0
  2 23  1  0
  3 24  1  0
  3 25  1  0
  6 26  1  0
  7 27  1  0
  9 28  1  0
 11 29  1  0
 15 30  1  0
 15 31  1  0
 15 32  1  0
 18 33  1  0
M  END
$$$$
