
     RDKit          3D

 50 52  0  0  0  0  0  0  0  0999 V2000
    7.6236    0.4050    0.5534 C   0  0  0  0  0  0  0  0  0  0  0  0
    6.5965    0.5884   -0.5557 C   0  0  0  0  0  0  0  0  0  0  0  0
    5.4061    1.4418   -0.1221 C   0  0  0  0  0  0  0  0  0  0  0  0
    4.5478    0.7412    0.8094 N   0  0  0  0  0  0  0  0  0  0  0  0
    4.4974    1.0356    2.1492 C   0  0  0  0  0  0  0  0  0  0  0  0
    5.2488    1.8630    2.6708 O   0  0  0  0  0  0  0  0  0  0  0  0
    3.4650    0.3011    2.9981 C   0  0  0  0  0  0  0  0  0  0  0  0
    2.5648   -1.0507    2.1766 S   0  0  0  0  0  0  0  0  0  0  0  0
    1.3635   -0.1652    1.3042 C   0  0  0  0  0  0  0  0  0  0  0  0
    1.4742    1.0845    0.9272 N   0  0  0  0  0  0  0  0  0  0  0  0
    0.3550    1.4004    0.2028 N   0  0  0  0  0  0  0  0  0  0  0  0
   -0.4331    0.3423    0.1645 C   0  0  0  0  0  0  0  0  0  0  0  0
   -1.7088    0.2797   -0.5382 C   0  0  0  0  0  0  0  0  0  0  0  0
   -1.7447    0.4797   -1.9241 C   0  0  0  0  0  0  0  0  0  0  0  0
   -2.9586    0.4330   -2.6141 C   0  0  0  0  0  0  0  0  0  0  0  0
   -4.1515    0.1997   -1.9265 C   0  0  0  0  0  0  0  0  0  0  0  0
   -4.1317    0.0748   -0.5301 C   0  0  0  0  0  0  0  0  0  0  0  0
   -2.9103    0.0861    0.1532 C   0  0  0  0  0  0  0  0  0  0  0  0
   -5.2389   -0.0584    0.2705 O   0  0  0  0  0  0  0  0  0  0  0  0
   -6.3575    0.7076   -0.1845 C   0  0  0  0  0  0  0  0  0  0  0  0
   -7.1672   -0.0683   -1.2102 C   0  0  0  0  0  0  0  0  0  0  0  0
   -6.2768   -0.7487   -2.2372 C   0  0  0  0  0  0  0  0  0  0  0  0
   -5.2708    0.1429   -2.7196 O   0  0  0  0  0  0  0  0  0  0  0  0
    0.1811   -0.6870    0.8525 N   0  0  0  0  0  0  0  0  0  0  0  0
   -0.2884   -2.0519    0.9744 C   0  0  0  0  0  0  0  0  0  0  0  0
   -0.9422   -2.3396    2.3153 C   0  0  0  0  0  0  0  0  0  0  0  0
    7.9825    1.3726    0.9220 H   0  0  0  0  0  0  0  0  0  0  0  0
    8.4878   -0.1541    0.1808 H   0  0  0  0  0  0  0  0  0  0  0  0
    7.2039   -0.1510    1.3973 H   0  0  0  0  0  0  0  0  0  0  0  0
    7.0853    1.0720   -1.4094 H   0  0  0  0  0  0  0  0  0  0  0  0
    6.2558   -0.3982   -0.8926 H   0  0  0  0  0  0  0  0  0  0  0  0
    5.7434    2.3926    0.3071 H   0  0  0  0  0  0  0  0  0  0  0  0
    4.7870    1.6712   -0.9976 H   0  0  0  0  0  0  0  0  0  0  0  0
    3.8061    0.1668    0.4269 H   0  0  0  0  0  0  0  0  0  0  0  0
    4.0051   -0.1458    3.8407 H   0  0  0  0  0  0  0  0  0  0  0  0
    2.7576    1.0348    3.4034 H   0  0  0  0  0  0  0  0  0  0  0  0
   -0.8251    0.6774   -2.4738 H   0  0  0  0  0  0  0  0  0  0  0  0
   -2.9736    0.5802   -3.6919 H   0  0  0  0  0  0  0  0  0  0  0  0
   -2.9140   -0.0022    1.2365 H   0  0  0  0  0  0  0  0  0  0  0  0
   -6.9884    0.9176    0.6875 H   0  0  0  0  0  0  0  0  0  0  0  0
   -6.0391    1.6870   -0.5671 H   0  0  0  0  0  0  0  0  0  0  0  0
   -7.8591    0.6246   -1.7046 H   0  0  0  0  0  0  0  0  0  0  0  0
   -7.7755   -0.8339   -0.7149 H   0  0  0  0  0  0  0  0  0  0  0  0
   -5.8339   -1.6772   -1.8515 H   0  0  0  0  0  0  0  0  0  0  0  0
   -6.8894   -1.0435   -3.0977 H   0  0  0  0  0  0  0  0  0  0  0  0
   -0.9938   -2.2510    0.1624 H   0  0  0  0  0  0  0  0  0  0  0  0
    0.5628   -2.7211    0.8104 H   0  0  0  0  0  0  0  0  0  0  0  0
   -0.2265   -2.2363    3.1390 H   0  0  0  0  0  0  0  0  0  0  0  0
   -1.3305   -3.3638    2.3337 H   0  0  0  0  0  0  0  0  0  0  0  0
   -1.7722   -1.6556    2.5145 H   0  0  0  0  0  0  0  0  0  0  0  0
  1  2  1  0
  2  3  1  0
  3  4  1  0
  4  5  1  0
  5  6  2  0
  5  7  1  0
  7  8  1  0
  8  9  1  0
  9 10  2  0
 10 11  1  0
 11 12  2  0
 12 13  1  0
 13 14  2  0
 14 15  1  0
 15 16  2  0
 16 17  1  0
 17 18  2  0
 17 19  1  0
 19 20  1  0
 20 21  1  0
 21 22  1  0
 22 23  1  0
 12 24  1  0
 24 25  1  0
 25 26  1  0
 24  9  1  0
 18 13  1  0
 23 16  1  0
  1 27  1  0
  1 28  1  0
  1 29  1  0
  2 30  1  0
  2 31  1  0
  3 32  1  0
  3 33  1  0
  4 34  1  0
  7 35  1  0
  7 36  1  0
 14 37  1  0
 15 38  1  0
 18 39  1  0
 20 40  1  0
 20 41  1  0
 21 42  1  0
 21 43  1  0
 22 44  1  0
 22 45  1  0
 25 46  1  0
 25 47  1  0
 26 48  1  0
 26 49  1  0
 26 50  1  0
M  END
$$$$
