
     RDKit          3D

 53 55  0  0  0  0  0  0  0  0999 V2000
   -8.0113    0.2754    1.9134 C   0  0  0  0  0  0  0  0  0  0  0  0
   -6.8008    0.2451    2.6572 O   0  0  0  0  0  0  0  0  0  0  0  0
   -5.6573   -0.0597    1.9709 C   0  0  0  0  0  0  0  0  0  0  0  0
   -4.5423   -0.2915    2.7781 C   0  0  0  0  0  0  0  0  0  0  0  0
   -3.3081   -0.6237    2.2152 C   0  0  0  0  0  0  0  0  0  0  0  0
   -3.1759   -0.7109    0.8294 C   0  0  0  0  0  0  0  0  0  0  0  0
   -1.9678   -1.0423    0.1829 N   0  0  0  0  0  0  0  0  0  0  0  0
   -0.7720   -1.4501    0.7447 C   0  0  0  0  0  0  0  0  0  0  0  0
   -0.5382   -1.6141    1.9384 O   0  0  0  0  0  0  0  0  0  0  0  0
    0.2896   -1.7451   -0.3134 C   0  0  0  0  0  0  0  0  0  0  0  0
    0.5280   -0.6206   -1.1473 O   0  0  0  0  0  0  0  0  0  0  0  0
    1.5717    0.2139   -0.8044 C   0  0  0  0  0  0  0  0  0  0  0  0
    2.1290    0.2919    0.4758 C   0  0  0  0  0  0  0  0  0  0  0  0
    3.2164    1.1450    0.6981 C   0  0  0  0  0  0  0  0  0  0  0  0
    3.8569    1.2604    2.0665 C   0  0  0  0  0  0  0  0  0  0  0  0
    4.4812   -0.3033    2.7541 S   0  0  0  0  0  0  0  0  0  0  0  0
    5.6345   -0.6976    1.4731 C   0  0  0  0  0  0  0  0  0  0  0  0
    5.3082   -1.7108    0.6483 N   0  0  0  0  0  0  0  0  0  0  0  0
    6.1991   -1.9917   -0.3187 C   0  0  0  0  0  0  0  0  0  0  0  0
    7.3890   -1.3191   -0.4787 C   0  0  0  0  0  0  0  0  0  0  0  0
    7.6266   -0.3089    0.4282 C   0  0  0  0  0  0  0  0  0  0  0  0
    6.7715    0.0198    1.4141 N   0  0  0  0  0  0  0  0  0  0  0  0
    3.7334    1.9287   -0.2812 N   0  0  0  0  0  0  0  0  0  0  0  0
    3.1510    1.8584   -1.5045 C   0  0  0  0  0  0  0  0  0  0  0  0
    2.0721    1.0344   -1.8258 C   0  0  0  0  0  0  0  0  0  0  0  0
    1.4522    0.9556   -3.0508 O   0  0  0  0  0  0  0  0  0  0  0  0
    2.0053    1.7375   -4.1027 C   0  0  0  0  0  0  0  0  0  0  0  0
   -4.2947   -0.4564    0.0023 C   0  0  0  0  0  0  0  0  0  0  0  0
   -4.0623   -0.5686   -1.3559 O   0  0  0  0  0  0  0  0  0  0  0  0
   -5.1493   -0.2890   -2.2334 C   0  0  0  0  0  0  0  0  0  0  0  0
   -5.5320   -0.1373    0.5776 C   0  0  0  0  0  0  0  0  0  0  0  0
   -8.0143    1.1068    1.2016 H   0  0  0  0  0  0  0  0  0  0  0  0
   -8.1888   -0.6802    1.4044 H   0  0  0  0  0  0  0  0  0  0  0  0
   -8.8342    0.4366    2.6180 H   0  0  0  0  0  0  0  0  0  0  0  0
   -4.6313   -0.2202    3.8643 H   0  0  0  0  0  0  0  0  0  0  0  0
   -2.4680   -0.8011    2.8870 H   0  0  0  0  0  0  0  0  0  0  0  0
   -2.0120   -0.9819   -0.8361 H   0  0  0  0  0  0  0  0  0  0  0  0
   -0.0962   -2.5468   -0.9535 H   0  0  0  0  0  0  0  0  0  0  0  0
    1.2000   -2.1390    0.1486 H   0  0  0  0  0  0  0  0  0  0  0  0
    1.7398   -0.2864    1.3066 H   0  0  0  0  0  0  0  0  0  0  0  0
    3.1096    1.6572    2.7614 H   0  0  0  0  0  0  0  0  0  0  0  0
    4.6793    1.9870    2.0391 H   0  0  0  0  0  0  0  0  0  0  0  0
    5.9194   -2.8053   -0.9829 H   0  0  0  0  0  0  0  0  0  0  0  0
    8.0889   -1.5677   -1.2629 H   0  0  0  0  0  0  0  0  0  0  0  0
    8.5404    0.2786    0.3937 H   0  0  0  0  0  0  0  0  0  0  0  0
    3.6125    2.5230   -2.2296 H   0  0  0  0  0  0  0  0  0  0  0  0
    1.3621    1.6217   -4.9841 H   0  0  0  0  0  0  0  0  0  0  0  0
    2.0214    2.8054   -3.8449 H   0  0  0  0  0  0  0  0  0  0  0  0
    3.0079    1.3735   -4.3675 H   0  0  0  0  0  0  0  0  0  0  0  0
   -5.9547   -1.0191   -2.1046 H   0  0  0  0  0  0  0  0  0  0  0  0
   -5.5147    0.7391   -2.0998 H   0  0  0  0  0  0  0  0  0  0  0  0
   -4.7806   -0.3767   -3.2603 H   0  0  0  0  0  0  0  0  0  0  0  0
   -6.3902    0.0492   -0.0498 H   0  0  0  0  0  0  0  0  0  0  0  0
  1  2  1  0
  2  3  1  0
  3  4  2  0
  4  5  1  0
  5  6  2  0
  6  7  1  0
  7  8  1  0
  8  9  2  0
  8 10  1  0
 10 11  1  0
 11 12  1  0
 12 13  2  0
 13 14  1  0
 14 15  1  0
 15 16  1  0
 16 17  1  0
 17 18  2  0
 18 19  1  0
 19 20  2  0
 20 21  1  0
 21 22  2  0
 14 23  2  0
 23 24  1  0
 24 25  2  0
 25 26  1  0
 26 27  1  0
  6 28  1  0
 28 29  1  0
 29 30  1  0
 28 31  2  0
 31  3  1  0
 25 12  1  0
 22 17  1  0
  1 32  1  0
  1 33  1  0
  1 34  1  0
  4 35  1  0
  5 36  1  0
  7 37  1  0
 10 38  1  0
 10 39  1  0
 13 40  1  0
 15 41  1  0
 15 42  1  0
 19 43  1  0
 20 44  1  0
 21 45  1  0
 24 46  1  0
 27 47  1  0
 27 48  1  0
 27 49  1  0
 30 50  1  0
 30 51  1  0
 30 52  1  0
 31 53  1  0
M  END
$$$$
