
     RDKit          3D

 46 49  0  0  0  0  0  0  0  0999 V2000
    7.1834    0.7818    1.9628 C   0  0  0  0  0  0  0  0  0  0  0  0
    6.6532    0.0869    0.7415 C   0  0  0  0  0  0  0  0  0  0  0  0
    7.5301   -0.5484   -0.1477 C   0  0  0  0  0  0  0  0  0  0  0  0
    7.0374   -1.1623   -1.2969 C   0  0  0  0  0  0  0  0  0  0  0  0
    5.6713   -1.1312   -1.5557 C   0  0  0  0  0  0  0  0  0  0  0  0
    5.2080   -1.7238   -2.6689 F   0  0  0  0  0  0  0  0  0  0  0  0
    4.7719   -0.4963   -0.6904 C   0  0  0  0  0  0  0  0  0  0  0  0
    3.4082   -0.5154   -1.0589 N   0  0  0  0  0  0  0  0  0  0  0  0
    2.3227   -0.0630   -0.3268 C   0  0  0  0  0  0  0  0  0  0  0  0
    2.3866    0.3823    0.8112 O   0  0  0  0  0  0  0  0  0  0  0  0
    1.1578   -0.1871   -1.0705 N   0  0  0  0  0  0  0  0  0  0  0  0
   -0.1621    0.0939   -0.6611 C   0  0  0  0  0  0  0  0  0  0  0  0
   -0.5215    0.4415    0.6408 C   0  0  0  0  0  0  0  0  0  0  0  0
   -1.8604    0.6961    0.9659 C   0  0  0  0  0  0  0  0  0  0  0  0
   -2.8696    0.6015   -0.0009 C   0  0  0  0  0  0  0  0  0  0  0  0
   -4.2662    0.8665    0.3437 C   0  0  0  0  0  0  0  0  0  0  0  0
   -4.7110    2.1784    0.6098 C   0  0  0  0  0  0  0  0  0  0  0  0
   -6.0418    2.4471    0.9284 C   0  0  0  0  0  0  0  0  0  0  0  0
   -6.9840    1.4204    0.9963 C   0  0  0  0  0  0  0  0  0  0  0  0
   -6.5338    0.1218    0.7383 C   0  0  0  0  0  0  0  0  0  0  0  0
   -7.1987   -1.0743    0.7296 N   0  0  0  0  0  0  0  0  0  0  0  0
   -6.4282   -2.1349    0.4543 N   0  0  0  0  0  0  0  0  0  0  0  0
   -5.2225   -1.6080    0.2612 C   0  0  0  0  0  0  0  0  0  0  0  0
   -4.1556   -2.3705   -0.0284 N   0  0  0  0  0  0  0  0  0  0  0  0
   -5.2121   -0.1885    0.4189 C   0  0  0  0  0  0  0  0  0  0  0  0
   -2.5025    0.2522   -1.3066 C   0  0  0  0  0  0  0  0  0  0  0  0
   -1.1657   -0.0023   -1.6320 C   0  0  0  0  0  0  0  0  0  0  0  0
    5.2760    0.1209    0.4556 C   0  0  0  0  0  0  0  0  0  0  0  0
    7.3947    1.8307    1.7335 H   0  0  0  0  0  0  0  0  0  0  0  0
    6.4591    0.7359    2.7829 H   0  0  0  0  0  0  0  0  0  0  0  0
    8.1035    0.3046    2.3160 H   0  0  0  0  0  0  0  0  0  0  0  0
    8.5993   -0.5662    0.0522 H   0  0  0  0  0  0  0  0  0  0  0  0
    7.7064   -1.6601   -1.9910 H   0  0  0  0  0  0  0  0  0  0  0  0
    3.2134   -1.0232   -1.9109 H   0  0  0  0  0  0  0  0  0  0  0  0
    1.2766   -0.4094   -2.0465 H   0  0  0  0  0  0  0  0  0  0  0  0
    0.2141    0.5208    1.4352 H   0  0  0  0  0  0  0  0  0  0  0  0
   -2.1097    0.9638    1.9913 H   0  0  0  0  0  0  0  0  0  0  0  0
   -4.0034    3.0047    0.5582 H   0  0  0  0  0  0  0  0  0  0  0  0
   -6.3493    3.4723    1.1236 H   0  0  0  0  0  0  0  0  0  0  0  0
   -8.0203    1.6284    1.2423 H   0  0  0  0  0  0  0  0  0  0  0  0
   -8.1822   -1.2333    0.9122 H   0  0  0  0  0  0  0  0  0  0  0  0
   -3.2301   -2.0282    0.2062 H   0  0  0  0  0  0  0  0  0  0  0  0
   -4.2691   -3.3605    0.1576 H   0  0  0  0  0  0  0  0  0  0  0  0
   -3.2640    0.1675   -2.0804 H   0  0  0  0  0  0  0  0  0  0  0  0
   -0.9286   -0.2753   -2.6569 H   0  0  0  0  0  0  0  0  0  0  0  0
    4.6185    0.6420    1.1457 H   0  0  0  0  0  0  0  0  0  0  0  0
  1  2  1  0
  2  3  2  0
  3  4  1  0
  4  5  2  0
  5  6  1  0
  5  7  1  0
  7  8  1  0
  8  9  1  0
  9 10  2  0
  9 11  1  0
 11 12  1  0
 12 13  2  0
 13 14  1  0
 14 15  2  0
 15 16  1  0
 16 17  2  0
 17 18  1  0
 18 19  2  0
 19 20  1  0
 20 21  1  0
 21 22  1  0
 22 23  2  0
 23 24  1  0
 23 25  1  0
 15 26  1  0
 26 27  2  0
  7 28  2  0
 28  2  1  0
 27 12  1  0
 25 16  1  0
 25 20  2  0
  1 29  1  0
  1 30  1  0
  1 31  1  0
  3 32  1  0
  4 33  1  0
  8 34  1  0
 11 35  1  0
 13 36  1  0
 14 37  1  0
 17 38  1  0
 18 39  1  0
 19 40  1  0
 21 41  1  0
 24 42  1  0
 24 43  1  0
 26 44  1  0
 27 45  1  0
 28 46  1  0
M  END
$$$$
