
     RDKit          3D

 21 22  0  0  0  0  0  0  0  0999 V2000
    3.1488   -0.7343    0.1680 C   0  0  0  0  0  0  0  0  0  0  0  0
    2.1150    0.2603   -0.0762 N   0  0  0  0  0  0  0  0  0  0  0  0
    2.5488    1.5585   -0.1423 N   0  0  0  0  0  0  0  0  0  0  0  0
    1.6456    2.4846   -0.2635 C   0  0  0  0  0  0  0  0  0  0  0  0
    0.2912    2.2890   -0.3259 N   0  0  0  0  0  0  0  0  0  0  0  0
   -0.1531    1.0725   -0.2253 C   0  0  0  0  0  0  0  0  0  0  0  0
   -1.6240    0.7953   -0.2890 C   0  0  0  0  0  0  0  0  0  0  0  0
   -2.4192    1.7192   -0.3931 O   0  0  0  0  0  0  0  0  0  0  0  0
   -1.9475   -0.5421   -0.1961 N   0  0  0  0  0  0  0  0  0  0  0  0
   -3.3527   -0.8996   -0.2108 C   0  0  0  0  0  0  0  0  0  0  0  0
   -1.0332   -1.5379    0.1298 C   0  0  0  0  0  0  0  0  0  0  0  0
   -1.4232   -2.6603    0.4425 O   0  0  0  0  0  0  0  0  0  0  0  0
    0.3087   -1.2711    0.1106 N   0  0  0  0  0  0  0  0  0  0  0  0
    0.7780   -0.0795   -0.0497 C   0  0  0  0  0  0  0  0  0  0  0  0
    4.1404   -0.3492   -0.0943 H   0  0  0  0  0  0  0  0  0  0  0  0
    2.9759   -1.6320   -0.4348 H   0  0  0  0  0  0  0  0  0  0  0  0
    3.1597   -1.0162    1.2257 H   0  0  0  0  0  0  0  0  0  0  0  0
    1.9871    3.5320   -0.3223 H   0  0  0  0  0  0  0  0  0  0  0  0
   -3.9466   -0.1597   -0.7550 H   0  0  0  0  0  0  0  0  0  0  0  0
   -3.7082   -0.9511    0.8234 H   0  0  0  0  0  0  0  0  0  0  0  0
   -3.4916   -1.8781   -0.6812 H   0  0  0  0  0  0  0  0  0  0  0  0
  1  2  1  0
  2  3  1  0
  3  4  2  0
  4  5  1  0
  5  6  2  0
  6  7  1  0
  7  8  2  0
  7  9  1  0
  9 10  1  0
  9 11  1  0
 11 12  2  0
 11 13  1  0
 13 14  2  0
 14  2  1  0
 14  6  1  0
  1 15  1  0
  1 16  1  0
  1 17  1  0
  4 18  1  0
 10 19  1  0
 10 20  1  0
 10 21  1  0
M  END
$$$$
