
     RDKit          3D

 46 49  0  0  0  0  0  0  0  0999 V2000
   -5.7475    1.9732   -2.7909 C   0  0  0  0  0  0  0  0  0  0  0  0
   -5.5590    1.3607   -1.5003 N   0  0  0  0  0  0  0  0  0  0  0  0
   -5.0625    0.0771   -1.3838 C   0  0  0  0  0  0  0  0  0  0  0  0
   -4.8552   -0.6720   -2.3339 O   0  0  0  0  0  0  0  0  0  0  0  0
   -4.8160   -0.4024   -0.0004 C   0  0  0  0  0  0  0  0  0  0  0  0
   -5.3453   -1.6623    0.3218 C   0  0  0  0  0  0  0  0  0  0  0  0
   -5.1698   -2.1968    1.5989 C   0  0  0  0  0  0  0  0  0  0  0  0
   -4.4584   -1.4807    2.5578 C   0  0  0  0  0  0  0  0  0  0  0  0
   -3.9116   -0.2363    2.2377 C   0  0  0  0  0  0  0  0  0  0  0  0
   -4.0732    0.3144    0.9540 C   0  0  0  0  0  0  0  0  0  0  0  0
   -3.2705    1.8833    0.6222 S   0  0  0  0  0  0  0  0  0  0  0  0
   -1.5920    1.3278    0.3487 C   0  0  0  0  0  0  0  0  0  0  0  0
   -0.5910    1.7240    1.2443 C   0  0  0  0  0  0  0  0  0  0  0  0
    0.7354    1.2997    1.0795 C   0  0  0  0  0  0  0  0  0  0  0  0
    1.0575    0.4597   -0.0046 C   0  0  0  0  0  0  0  0  0  0  0  0
    2.2331   -0.1811   -0.5039 C   0  0  0  0  0  0  0  0  0  0  0  0
    3.5318   -0.0846    0.0964 C   0  0  0  0  0  0  0  0  0  0  0  0
    4.6438   -0.6682   -0.3845 C   0  0  0  0  0  0  0  0  0  0  0  0
    5.9639   -0.5599    0.2408 C   0  0  0  0  0  0  0  0  0  0  0  0
    7.0642   -1.1796   -0.3466 C   0  0  0  0  0  0  0  0  0  0  0  0
    8.3067   -1.0673    0.2718 C   0  0  0  0  0  0  0  0  0  0  0  0
    8.4159   -0.3429    1.4539 C   0  0  0  0  0  0  0  0  0  0  0  0
    7.2719    0.2430    1.9689 C   0  0  0  0  0  0  0  0  0  0  0  0
    6.0548    0.1510    1.3923 N   0  0  0  0  0  0  0  0  0  0  0  0
    1.9653   -0.8971   -1.6064 N   0  0  0  0  0  0  0  0  0  0  0  0
    0.6517   -0.7049   -1.8147 N   0  0  0  0  0  0  0  0  0  0  0  0
    0.0456    0.0942   -0.8862 C   0  0  0  0  0  0  0  0  0  0  0  0
   -1.2838    0.5131   -0.7510 C   0  0  0  0  0  0  0  0  0  0  0  0
   -6.3758    2.8644   -2.6722 H   0  0  0  0  0  0  0  0  0  0  0  0
   -4.7701    2.2560   -3.1933 H   0  0  0  0  0  0  0  0  0  0  0  0
   -6.2279    1.2653   -3.4770 H   0  0  0  0  0  0  0  0  0  0  0  0
   -5.5484    1.9583   -0.6800 H   0  0  0  0  0  0  0  0  0  0  0  0
   -5.8982   -2.2271   -0.4276 H   0  0  0  0  0  0  0  0  0  0  0  0
   -5.5842   -3.1730    1.8444 H   0  0  0  0  0  0  0  0  0  0  0  0
   -4.3183   -1.8966    3.5529 H   0  0  0  0  0  0  0  0  0  0  0  0
   -3.3414    0.2953    2.9984 H   0  0  0  0  0  0  0  0  0  0  0  0
   -0.8316    2.3673    2.0895 H   0  0  0  0  0  0  0  0  0  0  0  0
    1.4984    1.6142    1.7842 H   0  0  0  0  0  0  0  0  0  0  0  0
    3.6066    0.5081    1.0028 H   0  0  0  0  0  0  0  0  0  0  0  0
    4.5872   -1.2614   -1.2925 H   0  0  0  0  0  0  0  0  0  0  0  0
    6.9662   -1.7442   -1.2677 H   0  0  0  0  0  0  0  0  0  0  0  0
    9.1804   -1.5428   -0.1657 H   0  0  0  0  0  0  0  0  0  0  0  0
    9.3686   -0.2382    1.9639 H   0  0  0  0  0  0  0  0  0  0  0  0
    7.3036    0.8190    2.8924 H   0  0  0  0  0  0  0  0  0  0  0  0
    0.2193   -1.1565   -2.6142 H   0  0  0  0  0  0  0  0  0  0  0  0
   -2.0401    0.2070   -1.4655 H   0  0  0  0  0  0  0  0  0  0  0  0
  1  2  1  0
  2  3  1  0
  3  4  2  0
  3  5  1  0
  5  6  2  0
  6  7  1  0
  7  8  2  0
  8  9  1  0
  9 10  2  0
 10 11  1  0
 11 12  1  0
 12 13  2  0
 13 14  1  0
 14 15  2  0
 15 16  1  0
 16 17  1  0
 17 18  2  0
 18 19  1  0
 19 20  2  0
 20 21  1  0
 21 22  2  0
 22 23  1  0
 23 24  2  0
 16 25  2  0
 25 26  1  0
 26 27  1  0
 27 28  2  0
 10  5  1  0
 28 12  1  0
 27 15  1  0
 24 19  1  0
  1 29  1  0
  1 30  1  0
  1 31  1  0
  2 32  1  0
  6 33  1  0
  7 34  1  0
  8 35  1  0
  9 36  1  0
 13 37  1  0
 14 38  1  0
 17 39  1  0
 18 40  1  0
 20 41  1  0
 21 42  1  0
 22 43  1  0
 23 44  1  0
 26 45  1  0
 28 46  1  0
M  END
$$$$
