
     RDKit          3D

 88 94  0  0  0  0  0  0  0  0999 V2000
   -2.8425    6.8026   -1.8434 C   0  0  0  0  0  0  0  0  0  0  0  0
   -2.3874    5.4840   -2.1145 O   0  0  0  0  0  0  0  0  0  0  0  0
   -2.2621    4.6321   -1.0481 C   0  0  0  0  0  0  0  0  0  0  0  0
   -2.7164    4.9002    0.2456 C   0  0  0  0  0  0  0  0  0  0  0  0
   -2.5391    3.9637    1.2741 C   0  0  0  0  0  0  0  0  0  0  0  0
   -1.9074    2.7355    1.0369 C   0  0  0  0  0  0  0  0  0  0  0  0
   -1.4657    2.4670   -0.2641 C   0  0  0  0  0  0  0  0  0  0  0  0
   -1.6290    3.4066   -1.2983 C   0  0  0  0  0  0  0  0  0  0  0  0
   -1.2283    3.1391   -2.5999 O   0  0  0  0  0  0  0  0  0  0  0  0
    0.0024    2.5407   -2.7340 C   0  0  0  0  0  0  0  0  0  0  0  0
    1.1697    3.2569   -2.4713 C   0  0  0  0  0  0  0  0  0  0  0  0
    2.4005    2.6003   -2.4957 C   0  0  0  0  0  0  0  0  0  0  0  0
    2.4645    1.2250   -2.7730 C   0  0  0  0  0  0  0  0  0  0  0  0
    1.2910    0.5453   -3.1370 C   0  0  0  0  0  0  0  0  0  0  0  0
    0.0611    1.2051   -3.1265 C   0  0  0  0  0  0  0  0  0  0  0  0
    3.7571    0.4587   -2.5595 C   0  0  0  0  0  0  0  0  0  0  0  0
    4.2017    0.3733   -1.0595 C   0  0  1  0  0  0  0  0  0  0  0  0
    3.2776   -0.5027   -0.2096 C   0  0  0  0  0  0  0  0  0  0  0  0
    1.9880   -0.0554    0.1010 C   0  0  0  0  0  0  0  0  0  0  0  0
    1.0804   -0.8605    0.7932 C   0  0  0  0  0  0  0  0  0  0  0  0
    1.4889   -2.0780    1.3447 C   0  0  0  0  0  0  0  0  0  0  0  0
    0.5793   -2.7389    2.1245 O   0  0  0  0  0  0  0  0  0  0  0  0
    0.9619   -3.9997    2.6537 C   0  0  0  0  0  0  0  0  0  0  0  0
    2.7885   -2.5230    1.0710 C   0  0  0  0  0  0  0  0  0  0  0  0
    3.6687   -1.7629    0.2707 C   0  0  0  0  0  0  0  0  0  0  0  0
    5.0586   -2.2792    0.0017 C   0  0  0  0  0  0  0  0  0  0  0  0
    5.7732   -1.4960   -1.1058 C   0  0  0  0  0  0  0  0  0  0  0  0
    5.6324   -0.0367   -1.0017 N   0  0  0  0  0  0  0  0  0  0  0  0
    6.2970    0.4976    0.1876 C   0  0  0  0  0  0  0  0  0  0  0  0
   -0.1740   -0.3176    0.9274 O   0  0  0  0  0  0  0  0  0  0  0  0
   -1.3000   -1.0147    0.5445 C   0  0  0  0  0  0  0  0  0  0  0  0
   -1.3463   -1.9995   -0.4696 C   0  0  0  0  0  0  0  0  0  0  0  0
   -0.2519   -2.1289   -1.2944 O   0  0  0  0  0  0  0  0  0  0  0  0
    0.1786   -3.4722   -1.4997 C   0  0  0  0  0  0  0  0  0  0  0  0
   -2.5415   -2.7103   -0.7070 C   0  0  0  0  0  0  0  0  0  0  0  0
   -2.5691   -3.6259   -1.7297 O   0  0  0  0  0  0  0  0  0  0  0  0
   -3.7863   -3.6608   -2.4691 C   0  0  0  0  0  0  0  0  0  0  0  0
   -3.6451   -2.5108    0.1245 C   0  0  0  0  0  0  0  0  0  0  0  0
   -3.6074   -1.5090    1.0922 C   0  0  0  0  0  0  0  0  0  0  0  0
   -2.4776   -0.6693    1.2271 C   0  0  0  0  0  0  0  0  0  0  0  0
   -2.7044    0.5316    2.1535 C   0  0  2  0  0  0  0  0  0  0  0  0
   -1.7211    1.7425    2.1772 C   0  0  0  0  0  0  0  0  0  0  0  0
   -3.1001    0.0668    3.5152 N   0  0  0  0  0  0  0  0  0  0  0  0
   -1.9557   -0.4069    4.2973 C   0  0  0  0  0  0  0  0  0  0  0  0
   -4.1638   -0.9709    3.4609 C   0  0  0  0  0  0  0  0  0  0  0  0
   -4.7453   -1.2840    2.0609 C   0  0  0  0  0  0  0  0  0  0  0  0
   -2.1943    7.3053   -1.1171 H   0  0  0  0  0  0  0  0  0  0  0  0
   -2.7977    7.3711   -2.7778 H   0  0  0  0  0  0  0  0  0  0  0  0
   -3.8845    6.7977   -1.5085 H   0  0  0  0  0  0  0  0  0  0  0  0
   -3.2215    5.8284    0.4910 H   0  0  0  0  0  0  0  0  0  0  0  0
   -2.9056    4.2065    2.2703 H   0  0  0  0  0  0  0  0  0  0  0  0
   -0.9904    1.5203   -0.4890 H   0  0  0  0  0  0  0  0  0  0  0  0
    1.1140    4.3088   -2.2072 H   0  0  0  0  0  0  0  0  0  0  0  0
    3.3016    3.1529   -2.2399 H   0  0  0  0  0  0  0  0  0  0  0  0
    1.3131   -0.5203   -3.3556 H   0  0  0  0  0  0  0  0  0  0  0  0
   -0.8519    0.6596   -3.3482 H   0  0  0  0  0  0  0  0  0  0  0  0
    3.6622   -0.5470   -2.9889 H   0  0  0  0  0  0  0  0  0  0  0  0
    4.5332    0.9703   -3.1452 H   0  0  0  0  0  0  0  0  0  0  0  0
    4.1420    1.3909   -0.6473 H   0  0  0  0  0  0  0  0  0  0  0  0
    1.6491    0.9247   -0.2245 H   0  0  0  0  0  0  0  0  0  0  0  0
    1.1893   -4.7130    1.8545 H   0  0  0  0  0  0  0  0  0  0  0  0
    1.8035   -3.8970    3.3461 H   0  0  0  0  0  0  0  0  0  0  0  0
    0.1130   -4.3942    3.2200 H   0  0  0  0  0  0  0  0  0  0  0  0
    3.1496   -3.4676    1.4652 H   0  0  0  0  0  0  0  0  0  0  0  0
    5.6369   -2.2216    0.9320 H   0  0  0  0  0  0  0  0  0  0  0  0
    5.0078   -3.3341   -0.2923 H   0  0  0  0  0  0  0  0  0  0  0  0
    6.8358   -1.7711   -1.1187 H   0  0  0  0  0  0  0  0  0  0  0  0
    5.3863   -1.8210   -2.0807 H   0  0  0  0  0  0  0  0  0  0  0  0
    7.3484    0.1893    0.2093 H   0  0  0  0  0  0  0  0  0  0  0  0
    5.8275    0.1850    1.1259 H   0  0  0  0  0  0  0  0  0  0  0  0
    6.2976    1.5926    0.1592 H   0  0  0  0  0  0  0  0  0  0  0  0
   -0.1710   -3.8284   -2.4721 H   0  0  0  0  0  0  0  0  0  0  0  0
    1.2704   -3.4717   -1.5274 H   0  0  0  0  0  0  0  0  0  0  0  0
   -0.1328   -4.1535   -0.7011 H   0  0  0  0  0  0  0  0  0  0  0  0
   -4.5336   -4.2694   -1.9507 H   0  0  0  0  0  0  0  0  0  0  0  0
   -3.5779   -4.1413   -3.4298 H   0  0  0  0  0  0  0  0  0  0  0  0
   -4.1716   -2.6552   -2.6728 H   0  0  0  0  0  0  0  0  0  0  0  0
   -4.5340   -3.1258    0.0278 H   0  0  0  0  0  0  0  0  0  0  0  0
   -3.6186    1.0037    1.7568 H   0  0  0  0  0  0  0  0  0  0  0  0
   -0.6700    1.4535    2.2537 H   0  0  0  0  0  0  0  0  0  0  0  0
   -1.9055    2.3060    3.1042 H   0  0  0  0  0  0  0  0  0  0  0  0
   -1.4625   -1.2722    3.8403 H   0  0  0  0  0  0  0  0  0  0  0  0
   -2.2800   -0.6927    5.3049 H   0  0  0  0  0  0  0  0  0  0  0  0
   -1.2102    0.3828    4.4343 H   0  0  0  0  0  0  0  0  0  0  0  0
   -4.9803   -0.6556    4.1205 H   0  0  0  0  0  0  0  0  0  0  0  0
   -3.7896   -1.9188    3.8730 H   0  0  0  0  0  0  0  0  0  0  0  0
   -5.3770   -2.1769    2.1302 H   0  0  0  0  0  0  0  0  0  0  0  0
   -5.3748   -0.4616    1.7020 H   0  0  0  0  0  0  0  0  0  0  0  0
  1  2  1  0
  2  3  1  0
  3  4  2  0
  4  5  1  0
  5  6  2  0
  6  7  1  0
  7  8  2  0
  8  9  1  0
  9 10  1  0
 10 11  2  0
 11 12  1  0
 12 13  2  0
 13 14  1  0
 14 15  2  0
 13 16  1  0
 16 17  1  0
 17 18  1  0
 18 19  2  0
 19 20  1  0
 20 21  2  0
 21 22  1  0
 22 23  1  0
 21 24  1  0
 24 25  2  0
 25 26  1  0
 26 27  1  0
 27 28  1  0
 28 29  1  0
 20 30  1  0
 30 31  1  0
 31 32  2  0
 32 33  1  0
 33 34  1  0
 32 35  1  0
 35 36  1  0
 36 37  1  0
 35 38  2  0
 38 39  1  0
 39 40  2  0
 40 41  1  0
 41 42  1  0
 41 43  1  0
 43 44  1  0
 43 45  1  0
 45 46  1  0
  8  3  1  0
 15 10  1  0
 28 17  1  0
 40 31  1  0
 42  6  1  0
 25 18  1  0
 46 39  1  0
  1 47  1  0
  1 48  1  0
  1 49  1  0
  4 50  1  0
  5 51  1  0
  7 52  1  0
 11 53  1  0
 12 54  1  0
 14 55  1  0
 15 56  1  0
 16 57  1  0
 16 58  1  0
 17 59  1  1
 19 60  1  0
 23 61  1  0
 23 62  1  0
 23 63  1  0
 24 64  1  0
 26 65  1  0
 26 66  1  0
 27 67  1  0
 27 68  1  0
 29 69  1  0
 29 70  1  0
 29 71  1  0
 34 72  1  0
 34 73  1  0
 34 74  1  0
 37 75  1  0
 37 76  1  0
 37 77  1  0
 38 78  1  0
 41 79  1  6
 42 80  1  0
 42 81  1  0
 44 82  1  0
 44 83  1  0
 44 84  1  0
 45 85  1  0
 45 86  1  0
 46 87  1  0
 46 88  1  0
M  END
$$$$
