
     RDKit          3D

 52 55  0  0  0  0  0  0  0  0999 V2000
    1.2151   -1.8539    0.5147 O   0  0  0  0  0  0  0  0  0  0  0  0
    0.4565   -1.3249   -0.2881 C   0  0  0  0  0  0  0  0  0  0  0  0
    0.8948   -0.5802   -1.3630 N   0  0  0  0  0  0  0  0  0  0  0  0
    2.3003   -0.3957   -1.6901 C   0  0  0  0  0  0  0  0  0  0  0  0
    3.0530   -1.6646   -2.0566 C   0  0  0  0  0  0  0  0  0  0  0  0
    4.4939   -1.2516   -1.8637 C   0  0  0  0  0  0  0  0  0  0  0  0
    5.4254   -1.8552   -2.3742 O   0  0  0  0  0  0  0  0  0  0  0  0
    4.5223   -0.1371   -1.0080 N   0  0  0  0  0  0  0  0  0  0  0  0
    5.6813    0.4996   -0.4843 C   0  0  0  0  0  0  0  0  0  0  0  0
    5.5674    1.4734    0.5253 C   0  0  0  0  0  0  0  0  0  0  0  0
    6.6946    2.1172    1.0520 C   0  0  0  0  0  0  0  0  0  0  0  0
    7.9598    1.7982    0.5754 C   0  0  0  0  0  0  0  0  0  0  0  0
    8.0833    0.8388   -0.4186 C   0  0  0  0  0  0  0  0  0  0  0  0
    9.3021    0.5321   -0.8831 F   0  0  0  0  0  0  0  0  0  0  0  0
    6.9662    0.1925   -0.9462 C   0  0  0  0  0  0  0  0  0  0  0  0
    3.1796    0.2280   -0.6095 C   0  0  0  0  0  0  0  0  0  0  0  0
   -1.0185   -1.4349   -0.1035 C   0  0  0  0  0  0  0  0  0  0  0  0
   -1.9164   -1.3456   -1.1767 C   0  0  0  0  0  0  0  0  0  0  0  0
   -3.2919   -1.4622   -0.9516 C   0  0  0  0  0  0  0  0  0  0  0  0
   -3.7702   -1.6624    0.3480 C   0  0  0  0  0  0  0  0  0  0  0  0
   -5.5226   -1.8644    0.6232 S   0  0  0  0  0  6  0  0  0  0  0  0
   -6.1097   -2.2543   -0.6414 O   0  0  0  0  0  0  0  0  0  0  0  0
   -5.6809   -2.6764    1.8106 O   0  0  0  0  0  0  0  0  0  0  0  0
   -6.0486   -0.3091    0.9794 N   0  0  0  0  0  0  0  0  0  0  0  0
   -6.0947    0.7119   -0.0823 C   0  0  0  0  0  0  0  0  0  0  0  0
   -6.2124    2.0222    0.6847 C   0  0  0  0  0  0  0  0  0  0  0  0
   -5.3575    1.7612    1.9111 C   0  0  0  0  0  0  0  0  0  0  0  0
   -5.6950    0.3186    2.2678 C   0  0  0  0  0  0  0  0  0  0  0  0
   -2.8799   -1.7979    1.4165 C   0  0  0  0  0  0  0  0  0  0  0  0
   -1.5067   -1.6779    1.1890 C   0  0  0  0  0  0  0  0  0  0  0  0
    0.2214   -0.0651   -1.9138 H   0  0  0  0  0  0  0  0  0  0  0  0
    2.3111    0.2693   -2.5653 H   0  0  0  0  0  0  0  0  0  0  0  0
    2.8369   -2.5108   -1.3986 H   0  0  0  0  0  0  0  0  0  0  0  0
    2.8678   -1.9516   -3.0956 H   0  0  0  0  0  0  0  0  0  0  0  0
    4.6027    1.7447    0.9440 H   0  0  0  0  0  0  0  0  0  0  0  0
    6.5799    2.8612    1.8362 H   0  0  0  0  0  0  0  0  0  0  0  0
    8.8464    2.2837    0.9695 H   0  0  0  0  0  0  0  0  0  0  0  0
    7.1454   -0.5391   -1.7258 H   0  0  0  0  0  0  0  0  0  0  0  0
    3.0446    1.3147   -0.6021 H   0  0  0  0  0  0  0  0  0  0  0  0
    2.9941   -0.1700    0.3923 H   0  0  0  0  0  0  0  0  0  0  0  0
   -1.5662   -1.2286   -2.1984 H   0  0  0  0  0  0  0  0  0  0  0  0
   -3.9810   -1.4167   -1.7933 H   0  0  0  0  0  0  0  0  0  0  0  0
   -6.9531    0.5589   -0.7416 H   0  0  0  0  0  0  0  0  0  0  0  0
   -5.1746    0.7094   -0.6731 H   0  0  0  0  0  0  0  0  0  0  0  0
   -7.2535    2.1980    0.9811 H   0  0  0  0  0  0  0  0  0  0  0  0
   -5.8695    2.8812    0.1016 H   0  0  0  0  0  0  0  0  0  0  0  0
   -5.5652    2.4543    2.7309 H   0  0  0  0  0  0  0  0  0  0  0  0
   -4.2951    1.8452    1.6516 H   0  0  0  0  0  0  0  0  0  0  0  0
   -6.5702    0.2757    2.9250 H   0  0  0  0  0  0  0  0  0  0  0  0
   -4.8572   -0.1631    2.7753 H   0  0  0  0  0  0  0  0  0  0  0  0
   -3.2412   -2.0118    2.4205 H   0  0  0  0  0  0  0  0  0  0  0  0
   -0.8141   -1.7883    2.0227 H   0  0  0  0  0  0  0  0  0  0  0  0
  1  2  2  0
  2  3  1  0
  3  4  1  0
  4  5  1  0
  5  6  1  0
  6  7  2  0
  6  8  1  0
  8  9  1  0
  9 10  2  0
 10 11  1  0
 11 12  2  0
 12 13  1  0
 13 14  1  0
 13 15  2  0
  8 16  1  0
  2 17  1  0
 17 18  2  0
 18 19  1  0
 19 20  2  0
 20 21  1  0
 21 22  2  0
 21 23  2  0
 21 24  1  0
 24 25  1  0
 25 26  1  0
 26 27  1  0
 27 28  1  0
 20 29  1  0
 29 30  2  0
 16  4  1  0
 30 17  1  0
 15  9  1  0
 28 24  1  0
  3 31  1  0
  4 32  1  0
  5 33  1  0
  5 34  1  0
 10 35  1  0
 11 36  1  0
 12 37  1  0
 15 38  1  0
 16 39  1  0
 16 40  1  0
 18 41  1  0
 19 42  1  0
 25 43  1  0
 25 44  1  0
 26 45  1  0
 26 46  1  0
 27 47  1  0
 27 48  1  0
 28 49  1  0
 28 50  1  0
 29 51  1  0
 30 52  1  0
M  END
$$$$
