
     RDKit          3D

 44 47  0  0  0  0  0  0  0  0999 V2000
   -5.1879    2.9833    0.5331 C   0  0  0  0  0  0  0  0  0  0  0  0
   -5.3208    1.6660    1.2418 C   0  0  0  0  0  0  0  0  0  0  0  0
   -6.2087    1.5310    2.0910 O   0  0  0  0  0  0  0  0  0  0  0  0
   -4.4525    0.6387    0.9448 N   0  0  0  0  0  0  0  0  0  0  0  0
   -4.5794   -0.6315    1.6755 C   0  0  0  0  0  0  0  0  0  0  0  0
   -3.4163   -1.5289    1.2567 C   0  0  0  0  0  0  0  0  0  0  0  0
   -2.8244   -0.7498    0.1264 C   0  0  0  0  0  0  0  0  0  0  0  0
   -1.7788   -1.1585   -0.6916 C   0  0  0  0  0  0  0  0  0  0  0  0
   -1.3238   -0.2919   -1.6922 C   0  0  0  0  0  0  0  0  0  0  0  0
   -0.1738   -0.6967   -2.5798 C   0  0  0  0  0  0  0  0  0  0  0  0
    1.0914   -0.4831   -1.9123 N   0  0  0  0  0  0  0  0  0  0  0  0
    1.7342   -1.5177   -1.2647 C   0  0  0  0  0  0  0  0  0  0  0  0
    1.3236   -2.6731   -1.3004 O   0  0  0  0  0  0  0  0  0  0  0  0
    2.9109   -1.1237   -0.5201 C   0  0  0  0  0  0  0  0  0  0  0  0
    3.5402   -1.8213    0.4981 C   0  0  0  0  0  0  0  0  0  0  0  0
    4.6607   -1.0696    0.9408 C   0  0  0  0  0  0  0  0  0  0  0  0
    5.6417   -1.2619    1.9317 C   0  0  0  0  0  0  0  0  0  0  0  0
    6.6390   -0.2949    2.1032 C   0  0  0  0  0  0  0  0  0  0  0  0
    6.6679    0.8459    1.3034 C   0  0  0  0  0  0  0  0  0  0  0  0
    5.7049    1.0560    0.3114 C   0  0  0  0  0  0  0  0  0  0  0  0
    4.7130    0.0805    0.1573 C   0  0  0  0  0  0  0  0  0  0  0  0
    3.6595    0.0145   -0.7245 N   0  0  0  0  0  0  0  0  0  0  0  0
   -1.9292    0.9711   -1.8308 C   0  0  0  0  0  0  0  0  0  0  0  0
   -2.9832    1.3705   -0.9948 C   0  0  0  0  0  0  0  0  0  0  0  0
   -3.4280    0.5041   -0.0113 C   0  0  0  0  0  0  0  0  0  0  0  0
   -4.1799    3.3854    0.6565 H   0  0  0  0  0  0  0  0  0  0  0  0
   -5.8818    3.7024    0.9813 H   0  0  0  0  0  0  0  0  0  0  0  0
   -5.4577    2.8742   -0.5197 H   0  0  0  0  0  0  0  0  0  0  0  0
   -4.5809   -0.4449    2.7556 H   0  0  0  0  0  0  0  0  0  0  0  0
   -5.5441   -1.0822    1.4111 H   0  0  0  0  0  0  0  0  0  0  0  0
   -3.7655   -2.5162    0.9407 H   0  0  0  0  0  0  0  0  0  0  0  0
   -2.6902   -1.6359    2.0690 H   0  0  0  0  0  0  0  0  0  0  0  0
   -1.3177   -2.1342   -0.5508 H   0  0  0  0  0  0  0  0  0  0  0  0
   -0.2839   -1.7405   -2.8944 H   0  0  0  0  0  0  0  0  0  0  0  0
   -0.1637   -0.0854   -3.4890 H   0  0  0  0  0  0  0  0  0  0  0  0
    1.2727    0.4558   -1.5944 H   0  0  0  0  0  0  0  0  0  0  0  0
    3.2116   -2.7779    0.8860 H   0  0  0  0  0  0  0  0  0  0  0  0
    5.6274   -2.1502    2.5562 H   0  0  0  0  0  0  0  0  0  0  0  0
    7.3990   -0.4388    2.8673 H   0  0  0  0  0  0  0  0  0  0  0  0
    7.4531    1.5840    1.4514 H   0  0  0  0  0  0  0  0  0  0  0  0
    5.7339    1.9442   -0.3109 H   0  0  0  0  0  0  0  0  0  0  0  0
    3.4862    0.6959   -1.4484 H   0  0  0  0  0  0  0  0  0  0  0  0
   -1.5852    1.6585   -2.6017 H   0  0  0  0  0  0  0  0  0  0  0  0
   -3.4135    2.3470   -1.1627 H   0  0  0  0  0  0  0  0  0  0  0  0
  1  2  1  0
  2  3  2  0
  2  4  1  0
  4  5  1  0
  5  6  1  0
  6  7  1  0
  7  8  2  0
  8  9  1  0
  9 10  1  0
 10 11  1  0
 11 12  1  0
 12 13  2  0
 12 14  1  0
 14 15  2  0
 15 16  1  0
 16 17  2  0
 17 18  1  0
 18 19  2  0
 19 20  1  0
 20 21  2  0
 21 22  1  0
  9 23  2  0
 23 24  1  0
 24 25  2  0
 25  4  1  0
 25  7  1  0
 22 14  1  0
 21 16  1  0
  1 26  1  0
  1 27  1  0
  1 28  1  0
  5 29  1  0
  5 30  1  0
  6 31  1  0
  6 32  1  0
  8 33  1  0
 10 34  1  0
 10 35  1  0
 11 36  1  0
 15 37  1  0
 17 38  1  0
 18 39  1  0
 19 40  1  0
 20 41  1  0
 22 42  1  0
 23 43  1  0
 24 44  1  0
M  END
$$$$
