
     RDKit          3D

 47 50  0  0  0  0  0  0  0  0999 V2000
    6.1250    1.1928    1.8779 C   0  0  0  0  0  0  0  0  0  0  0  0
    6.3304   -0.1911    1.6247 O   0  0  0  0  0  0  0  0  0  0  0  0
    5.5821   -0.7558    0.6282 C   0  0  0  0  0  0  0  0  0  0  0  0
    5.8440   -2.1079    0.3979 C   0  0  0  0  0  0  0  0  0  0  0  0
    5.1490   -2.8102   -0.5874 C   0  0  0  0  0  0  0  0  0  0  0  0
    4.1841   -2.1599   -1.3539 C   0  0  0  0  0  0  0  0  0  0  0  0
    3.9129   -0.8008   -1.1430 C   0  0  0  0  0  0  0  0  0  0  0  0
    2.8524   -0.1023   -1.9495 C   0  0  0  0  0  0  0  0  0  0  0  0
    1.5702   -0.1712   -1.2969 N   0  0  0  0  0  0  0  0  0  0  0  0
    0.4662    0.4497   -1.8133 C   0  0  0  0  0  0  0  0  0  0  0  0
    0.5081    1.1346   -2.8328 O   0  0  0  0  0  0  0  0  0  0  0  0
   -0.8045    0.2456   -1.0574 C   0  0  0  0  0  0  0  0  0  0  0  0
   -1.9028    0.8750   -1.4969 C   0  0  0  0  0  0  0  0  0  0  0  0
   -3.1497    0.8162   -0.9166 N   0  0  0  0  0  0  0  0  0  0  0  0
   -3.3826   -0.0517    0.1750 C   0  0  0  0  0  0  0  0  0  0  0  0
   -4.6730   -0.1777    0.7281 C   0  0  0  0  0  0  0  0  0  0  0  0
   -4.9216   -1.0612    1.7734 C   0  0  0  0  0  0  0  0  0  0  0  0
   -3.8784   -1.8114    2.3051 C   0  0  0  0  0  0  0  0  0  0  0  0
   -2.5784   -1.6842    1.7974 C   0  0  0  0  0  0  0  0  0  0  0  0
   -1.3901   -2.6896    2.5516 Cl  0  0  0  0  0  0  0  0  0  0  0  0
   -2.3181   -0.8001    0.7338 C   0  0  0  0  0  0  0  0  0  0  0  0
   -0.9507   -0.6110    0.1516 C   0  0  0  0  0  0  0  0  0  0  0  0
    0.0454   -1.1378    0.6375 O   0  0  0  0  0  0  0  0  0  0  0  0
   -5.7640    0.5365    0.2963 O   0  0  0  0  0  0  0  0  0  0  0  0
   -5.4391    1.6624   -0.5319 C   0  0  0  0  0  0  0  0  0  0  0  0
   -5.0955    2.8762    0.3313 C   0  0  0  0  0  0  0  0  0  0  0  0
   -4.3636    1.3199   -1.5652 C   0  0  0  0  0  0  0  0  0  0  0  0
    4.6123   -0.1074   -0.1392 C   0  0  0  0  0  0  0  0  0  0  0  0
    5.1020    1.3860    2.2188 H   0  0  0  0  0  0  0  0  0  0  0  0
    6.3705    1.7961    0.9979 H   0  0  0  0  0  0  0  0  0  0  0  0
    6.8053    1.4892    2.6821 H   0  0  0  0  0  0  0  0  0  0  0  0
    6.5941   -2.6194    0.9958 H   0  0  0  0  0  0  0  0  0  0  0  0
    5.3571   -3.8644   -0.7516 H   0  0  0  0  0  0  0  0  0  0  0  0
    3.6399   -2.7187   -2.1124 H   0  0  0  0  0  0  0  0  0  0  0  0
    2.7598   -0.5537   -2.9449 H   0  0  0  0  0  0  0  0  0  0  0  0
    3.1154    0.9510   -2.1069 H   0  0  0  0  0  0  0  0  0  0  0  0
    1.4683   -0.7455   -0.4580 H   0  0  0  0  0  0  0  0  0  0  0  0
   -1.8644    1.5069   -2.3832 H   0  0  0  0  0  0  0  0  0  0  0  0
   -5.9253   -1.1566    2.1788 H   0  0  0  0  0  0  0  0  0  0  0  0
   -4.0840   -2.4965    3.1252 H   0  0  0  0  0  0  0  0  0  0  0  0
   -6.3574    1.9053   -1.0805 H   0  0  0  0  0  0  0  0  0  0  0  0
   -5.9255    3.1034    1.0089 H   0  0  0  0  0  0  0  0  0  0  0  0
   -4.9009    3.7567   -0.2883 H   0  0  0  0  0  0  0  0  0  0  0  0
   -4.2196    2.6966    0.9636 H   0  0  0  0  0  0  0  0  0  0  0  0
   -4.1379    2.2042   -2.1731 H   0  0  0  0  0  0  0  0  0  0  0  0
   -4.7401    0.5425   -2.2432 H   0  0  0  0  0  0  0  0  0  0  0  0
    4.3727    0.9391    0.0248 H   0  0  0  0  0  0  0  0  0  0  0  0
  1  2  1  0
  2  3  1  0
  3  4  2  0
  4  5  1  0
  5  6  2  0
  6  7  1  0
  7  8  1  0
  8  9  1  0
  9 10  1  0
 10 11  2  0
 10 12  1  0
 12 13  2  0
 13 14  1  0
 14 15  1  0
 15 16  2  0
 16 17  1  0
 17 18  2  0
 18 19  1  0
 19 20  1  0
 19 21  2  0
 21 22  1  0
 22 23  2  0
 16 24  1  0
 24 25  1  0
 25 26  1  0
 25 27  1  0
  7 28  2  0
 28  3  1  0
 22 12  1  0
 27 14  1  0
 21 15  1  0
  1 29  1  0
  1 30  1  0
  1 31  1  0
  4 32  1  0
  5 33  1  0
  6 34  1  0
  8 35  1  0
  8 36  1  0
  9 37  1  0
 13 38  1  0
 17 39  1  0
 18 40  1  0
 25 41  1  0
 26 42  1  0
 26 43  1  0
 26 44  1  0
 27 45  1  0
 27 46  1  0
 28 47  1  0
M  END
$$$$
