
     RDKit          3D

 46 48  0  0  0  0  0  0  0  0999 V2000
    5.9424    0.1082   -0.8823 C   0  0  0  0  0  0  0  0  0  0  0  0
    4.6127   -0.5981   -1.0974 C   0  0  0  0  0  0  0  0  0  0  0  0
    3.4439    0.2969   -0.7734 C   0  0  0  0  0  0  0  0  0  0  0  0
    2.8619    1.0966   -1.7654 C   0  0  0  0  0  0  0  0  0  0  0  0
    1.7902    1.9363   -1.4586 C   0  0  0  0  0  0  0  0  0  0  0  0
    1.2918    1.9866   -0.1570 C   0  0  0  0  0  0  0  0  0  0  0  0
    1.8675    1.1962    0.8371 C   0  0  0  0  0  0  0  0  0  0  0  0
    1.3255    1.2311    2.1502 N   0  0  0  0  0  0  0  0  0  0  0  0
    0.5197   -0.1257    2.7534 S   0  0  0  0  0  6  0  0  0  0  0  0
    1.4383   -1.2397    2.8093 O   0  0  0  0  0  0  0  0  0  0  0  0
   -0.1685    0.3236    3.9470 O   0  0  0  0  0  0  0  0  0  0  0  0
   -0.7433   -0.4227    1.5128 C   0  0  0  0  0  0  0  0  0  0  0  0
   -1.8199    0.4889    1.5247 C   0  0  0  0  0  0  0  0  0  0  0  0
   -2.8083    0.3195    0.5835 C   0  0  0  0  0  0  0  0  0  0  0  0
   -2.7662   -0.7174   -0.3446 C   0  0  0  0  0  0  0  0  0  0  0  0
   -1.7363   -1.6348   -0.3640 C   0  0  0  0  0  0  0  0  0  0  0  0
   -0.6967   -1.5009    0.5823 C   0  0  0  0  0  0  0  0  0  0  0  0
    0.3981   -2.5322    0.5538 C   0  0  0  0  0  0  0  0  0  0  0  0
   -3.9033   -0.6170   -1.1548 N   0  0  0  0  0  0  0  0  0  0  0  0
   -4.2411   -1.5074   -2.2267 C   0  0  0  0  0  0  0  0  0  0  0  0
   -4.6743    0.4885   -0.7330 C   0  0  0  0  0  0  0  0  0  0  0  0
   -5.7317    0.8714   -1.2072 O   0  0  0  0  0  0  0  0  0  0  0  0
   -3.9717    1.0619    0.3503 N   0  0  0  0  0  0  0  0  0  0  0  0
   -4.3999    2.2000    1.1103 C   0  0  0  0  0  0  0  0  0  0  0  0
    2.9407    0.3591    0.5336 C   0  0  0  0  0  0  0  0  0  0  0  0
    6.0272    0.9968   -1.5171 H   0  0  0  0  0  0  0  0  0  0  0  0
    6.7715   -0.5635   -1.1264 H   0  0  0  0  0  0  0  0  0  0  0  0
    6.0594    0.4270    0.1590 H   0  0  0  0  0  0  0  0  0  0  0  0
    4.5674   -1.5017   -0.4773 H   0  0  0  0  0  0  0  0  0  0  0  0
    4.5389   -0.9402   -2.1369 H   0  0  0  0  0  0  0  0  0  0  0  0
    3.2432    1.0709   -2.7843 H   0  0  0  0  0  0  0  0  0  0  0  0
    1.3438    2.5509   -2.2365 H   0  0  0  0  0  0  0  0  0  0  0  0
    0.4527    2.6395    0.0636 H   0  0  0  0  0  0  0  0  0  0  0  0
    0.9166    2.1042    2.4766 H   0  0  0  0  0  0  0  0  0  0  0  0
   -1.8715    1.2947    2.2487 H   0  0  0  0  0  0  0  0  0  0  0  0
   -1.7319   -2.4422   -1.0893 H   0  0  0  0  0  0  0  0  0  0  0  0
    1.3726   -2.0654    0.3967 H   0  0  0  0  0  0  0  0  0  0  0  0
    0.2575   -3.2411   -0.2702 H   0  0  0  0  0  0  0  0  0  0  0  0
    0.3948   -3.1179    1.4778 H   0  0  0  0  0  0  0  0  0  0  0  0
   -5.1774   -1.1976   -2.6990 H   0  0  0  0  0  0  0  0  0  0  0  0
   -4.3602   -2.5203   -1.8312 H   0  0  0  0  0  0  0  0  0  0  0  0
   -3.4428   -1.4933   -2.9744 H   0  0  0  0  0  0  0  0  0  0  0  0
   -3.6350    2.9800    1.0562 H   0  0  0  0  0  0  0  0  0  0  0  0
   -5.3392    2.5932    0.7119 H   0  0  0  0  0  0  0  0  0  0  0  0
   -4.5520    1.9022    2.1518 H   0  0  0  0  0  0  0  0  0  0  0  0
    3.3930   -0.2466    1.3165 H   0  0  0  0  0  0  0  0  0  0  0  0
  1  2  1  0
  2  3  1  0
  3  4  2  0
  4  5  1  0
  5  6  2  0
  6  7  1  0
  7  8  1  0
  8  9  1  0
  9 10  2  0
  9 11  2  0
  9 12  1  0
 12 13  2  0
 13 14  1  0
 14 15  2  0
 15 16  1  0
 16 17  2  0
 17 18  1  0
 15 19  1  0
 19 20  1  0
 19 21  1  0
 21 22  2  0
 21 23  1  0
 23 24  1  0
  7 25  2  0
 25  3  1  0
 17 12  1  0
 23 14  1  0
  1 26  1  0
  1 27  1  0
  1 28  1  0
  2 29  1  0
  2 30  1  0
  4 31  1  0
  5 32  1  0
  6 33  1  0
  8 34  1  0
 13 35  1  0
 16 36  1  0
 18 37  1  0
 18 38  1  0
 18 39  1  0
 20 40  1  0
 20 41  1  0
 20 42  1  0
 24 43  1  0
 24 44  1  0
 24 45  1  0
 25 46  1  0
M  END
$$$$
