
     RDKit          3D

 40 41  0  0  0  0  0  0  0  0999 V2000
   -5.3330    0.4960    2.3981 C   0  0  0  0  0  0  0  0  0  0  0  0
   -4.9899    0.8632    1.0699 O   0  0  0  0  0  0  0  0  0  0  0  0
   -3.7552    0.4869    0.6028 C   0  0  0  0  0  0  0  0  0  0  0  0
   -2.8081   -0.2166    1.3520 C   0  0  0  0  0  0  0  0  0  0  0  0
   -1.5735   -0.5561    0.7901 C   0  0  0  0  0  0  0  0  0  0  0  0
   -1.2638   -0.1990   -0.5277 C   0  0  0  0  0  0  0  0  0  0  0  0
    0.0309   -0.5584   -1.0983 C   0  0  0  0  0  0  0  0  0  0  0  0
    0.4220   -0.2345   -2.3430 N   0  0  0  0  0  0  0  0  0  0  0  0
    1.7025   -0.7717   -2.4423 O   0  0  0  0  0  0  0  0  0  0  0  0
    1.9679   -1.3622   -1.2431 C   0  0  0  0  0  0  0  0  0  0  0  0
    3.3140   -2.0024   -1.0890 C   0  0  0  0  0  0  0  0  0  0  0  0
    3.3777   -2.9030    0.0750 N   0  0  0  0  0  0  0  0  0  0  0  0
    4.4450   -0.9535   -1.0554 C   0  0  0  0  0  0  0  0  0  0  0  0
    4.2891    0.2274   -0.0864 C   0  0  0  0  0  0  0  0  0  0  0  0
    4.2974   -0.2429    1.6723 S   0  0  0  0  0  0  0  0  0  0  0  0
    4.0430    1.3970    2.3931 C   0  0  0  0  0  0  0  0  0  0  0  0
    0.9763   -1.2652   -0.3854 N   0  0  0  0  0  0  0  0  0  0  0  0
   -2.2162    0.5076   -1.2789 C   0  0  0  0  0  0  0  0  0  0  0  0
   -3.4567    0.8522   -0.7255 C   0  0  0  0  0  0  0  0  0  0  0  0
   -4.4385    1.5422   -1.3941 O   0  0  0  0  0  0  0  0  0  0  0  0
   -4.1898    1.9062   -2.7444 C   0  0  0  0  0  0  0  0  0  0  0  0
   -4.6597    0.9642    3.1237 H   0  0  0  0  0  0  0  0  0  0  0  0
   -5.3484   -0.5925    2.5161 H   0  0  0  0  0  0  0  0  0  0  0  0
   -6.3436    0.8656    2.5969 H   0  0  0  0  0  0  0  0  0  0  0  0
   -2.9963   -0.5171    2.3772 H   0  0  0  0  0  0  0  0  0  0  0  0
   -0.8526   -1.1040    1.3950 H   0  0  0  0  0  0  0  0  0  0  0  0
    3.4765   -2.6362   -1.9697 H   0  0  0  0  0  0  0  0  0  0  0  0
    3.4142   -2.3240    0.9210 H   0  0  0  0  0  0  0  0  0  0  0  0
    2.4933   -3.4086    0.1450 H   0  0  0  0  0  0  0  0  0  0  0  0
    5.4054   -1.4546   -0.8724 H   0  0  0  0  0  0  0  0  0  0  0  0
    4.5304   -0.5248   -2.0641 H   0  0  0  0  0  0  0  0  0  0  0  0
    3.3685    0.7789   -0.3024 H   0  0  0  0  0  0  0  0  0  0  0  0
    5.1254    0.9167   -0.2476 H   0  0  0  0  0  0  0  0  0  0  0  0
    4.8579    2.0681    2.1097 H   0  0  0  0  0  0  0  0  0  0  0  0
    4.0251    1.3124    3.4829 H   0  0  0  0  0  0  0  0  0  0  0  0
    3.0888    1.8143    2.0612 H   0  0  0  0  0  0  0  0  0  0  0  0
   -1.9705    0.7823   -2.3001 H   0  0  0  0  0  0  0  0  0  0  0  0
   -4.0395    1.0212   -3.3714 H   0  0  0  0  0  0  0  0  0  0  0  0
   -3.3412    2.5940   -2.8178 H   0  0  0  0  0  0  0  0  0  0  0  0
   -5.0748    2.4305   -3.1176 H   0  0  0  0  0  0  0  0  0  0  0  0
  1  2  1  0
  2  3  1  0
  3  4  2  0
  4  5  1  0
  5  6  2  0
  6  7  1  0
  7  8  2  0
  8  9  1  0
  9 10  1  0
 10 11  1  0
 11 12  1  0
 11 13  1  0
 13 14  1  0
 14 15  1  0
 15 16  1  0
 10 17  2  0
  6 18  1  0
 18 19  2  0
 19 20  1  0
 20 21  1  0
 19  3  1  0
 17  7  1  0
  1 22  1  0
  1 23  1  0
  1 24  1  0
  4 25  1  0
  5 26  1  0
 11 27  1  0
 12 28  1  0
 12 29  1  0
 13 30  1  0
 13 31  1  0
 14 32  1  0
 14 33  1  0
 16 34  1  0
 16 35  1  0
 16 36  1  0
 18 37  1  0
 21 38  1  0
 21 39  1  0
 21 40  1  0
M  END
$$$$
