
     RDKit          3D

 48 51  0  0  0  0  0  0  0  0999 V2000
   -5.9678    1.2393   -2.0721 C   0  0  0  0  0  0  0  0  0  0  0  0
   -5.0525    1.4778   -0.8686 C   0  0  0  0  0  0  0  0  0  0  0  0
   -4.4127    2.8669   -0.9357 C   0  0  0  0  0  0  0  0  0  0  0  0
   -4.0045    0.3845   -0.7405 C   0  0  0  0  0  0  0  0  0  0  0  0
   -4.0037   -0.4472    0.3916 C   0  0  0  0  0  0  0  0  0  0  0  0
   -3.0557   -1.4622    0.5306 C   0  0  0  0  0  0  0  0  0  0  0  0
   -2.0991   -1.6499   -0.4695 C   0  0  0  0  0  0  0  0  0  0  0  0
   -0.8596   -2.9135   -0.2664 S   0  0  0  0  0  6  0  0  0  0  0  0
   -0.6420   -3.0841    1.1564 O   0  0  0  0  0  0  0  0  0  0  0  0
   -1.3333   -4.0311   -1.0589 O   0  0  0  0  0  0  0  0  0  0  0  0
    0.4693   -2.3272   -0.9695 N   0  0  0  0  0  0  0  0  0  0  0  0
    1.4544   -1.6742   -0.4339 C   0  0  0  0  0  0  0  0  0  0  0  0
    2.6396   -1.5295   -1.3217 C   0  0  0  0  0  0  0  0  0  0  0  0
    3.8736   -1.4289   -0.8162 C   0  0  0  0  0  0  0  0  0  0  0  0
    5.2676   -1.3473   -1.8350 S   0  0  0  0  0  0  0  0  0  0  0  0
    5.7560    0.2823   -1.4311 C   0  0  0  0  0  0  0  0  0  0  0  0
    4.9360    1.2069   -0.8288 N   0  0  0  0  0  0  0  0  0  0  0  0
    5.7069    2.2641   -0.7283 C   0  0  0  0  0  0  0  0  0  0  0  0
    6.9237    1.9908   -1.2668 N   0  0  0  0  0  0  0  0  0  0  0  0
    6.9709    0.7412   -1.7495 N   0  0  0  0  0  0  0  0  0  0  0  0
    4.0809   -1.4150    0.6592 C   0  0  0  0  0  0  0  0  0  0  0  0
    5.1532   -1.6635    1.1967 O   0  0  0  0  0  0  0  0  0  0  0  0
    2.9089   -1.0208    1.4662 C   0  0  0  0  0  0  0  0  0  0  0  0
    3.1211   -0.5094    2.7544 C   0  0  0  0  0  0  0  0  0  0  0  0
    2.0506    0.0048    3.4805 C   0  0  0  0  0  0  0  0  0  0  0  0
    0.7816    0.0325    2.9089 C   0  0  0  0  0  0  0  0  0  0  0  0
    0.5721   -0.4904    1.6280 C   0  0  0  0  0  0  0  0  0  0  0  0
    1.6229   -1.0769    0.9170 C   0  0  0  0  0  0  0  0  0  0  0  0
   -2.0826   -0.8369   -1.6042 C   0  0  0  0  0  0  0  0  0  0  0  0
   -3.0349    0.1754   -1.7360 C   0  0  0  0  0  0  0  0  0  0  0  0
   -5.4218    1.2970   -3.0201 H   0  0  0  0  0  0  0  0  0  0  0  0
   -6.4371    0.2506   -2.0169 H   0  0  0  0  0  0  0  0  0  0  0  0
   -6.7665    1.9883   -2.1026 H   0  0  0  0  0  0  0  0  0  0  0  0
   -5.6868    1.4597    0.0277 H   0  0  0  0  0  0  0  0  0  0  0  0
   -3.7649    3.0417   -0.0694 H   0  0  0  0  0  0  0  0  0  0  0  0
   -5.1833    3.6454   -0.9405 H   0  0  0  0  0  0  0  0  0  0  0  0
   -3.8052    2.9959   -1.8381 H   0  0  0  0  0  0  0  0  0  0  0  0
   -4.7478   -0.3121    1.1746 H   0  0  0  0  0  0  0  0  0  0  0  0
   -3.0698   -2.0987    1.4129 H   0  0  0  0  0  0  0  0  0  0  0  0
    2.4605   -1.6081   -2.3892 H   0  0  0  0  0  0  0  0  0  0  0  0
    5.4491    3.2187   -0.2929 H   0  0  0  0  0  0  0  0  0  0  0  0
    7.7408    2.5860   -1.3461 H   0  0  0  0  0  0  0  0  0  0  0  0
    4.1231   -0.4877    3.1792 H   0  0  0  0  0  0  0  0  0  0  0  0
    2.2109    0.4066    4.4781 H   0  0  0  0  0  0  0  0  0  0  0  0
   -0.0522    0.4623    3.4604 H   0  0  0  0  0  0  0  0  0  0  0  0
   -0.4233   -0.4119    1.2113 H   0  0  0  0  0  0  0  0  0  0  0  0
   -1.3477   -0.9904   -2.3907 H   0  0  0  0  0  0  0  0  0  0  0  0
   -3.0187    0.7981   -2.6284 H   0  0  0  0  0  0  0  0  0  0  0  0
  1  2  1  0
  2  3  1  0
  2  4  1  0
  4  5  2  0
  5  6  1  0
  6  7  2  0
  7  8  1  0
  8  9  2  0
  8 10  2  0
  8 11  1  0
 11 12  2  0
 12 13  1  0
 13 14  2  0
 14 15  1  0
 15 16  1  0
 16 17  1  0
 17 18  2  0
 18 19  1  0
 19 20  1  0
 14 21  1  0
 21 22  2  0
 21 23  1  0
 23 24  2  0
 24 25  1  0
 25 26  2  0
 26 27  1  0
 27 28  2  0
  7 29  1  0
 29 30  2  0
 30  4  1  0
 28 12  1  0
 20 16  2  0
 28 23  1  0
  1 31  1  0
  1 32  1  0
  1 33  1  0
  2 34  1  0
  3 35  1  0
  3 36  1  0
  3 37  1  0
  5 38  1  0
  6 39  1  0
 13 40  1  0
 18 41  1  0
 19 42  1  0
 24 43  1  0
 25 44  1  0
 26 45  1  0
 27 46  1  0
 29 47  1  0
 30 48  1  0
M  END
$$$$
