
     RDKit          3D

 44 46  0  0  0  0  0  0  0  0999 V2000
    8.4792   -0.6782   -0.5506 C   0  0  0  0  0  0  0  0  0  0  0  0
    7.0705   -0.4021   -0.4256 N   0  0  0  0  0  0  0  0  0  0  0  0
    6.6276    0.8164    0.0618 C   0  0  0  0  0  0  0  0  0  0  0  0
    7.4261    1.6605    0.4640 O   0  0  0  0  0  0  0  0  0  0  0  0
    5.1809    1.0043    0.0350 C   0  0  0  0  0  0  0  0  0  0  0  0
    4.1633    0.1001   -0.2045 C   0  0  0  0  0  0  0  0  0  0  0  0
    2.8512    0.6824   -0.1407 C   0  0  0  0  0  0  0  0  0  0  0  0
    1.5754    0.0960   -0.3312 C   0  0  0  0  0  0  0  0  0  0  0  0
    0.4139    0.8660   -0.1889 C   0  0  0  0  0  0  0  0  0  0  0  0
   -0.8995    0.3320   -0.4539 N   0  0  0  0  0  0  0  0  0  0  0  0
   -1.2313    0.2536   -1.8976 C   0  0  0  0  0  0  0  0  0  0  0  0
   -1.2935   -1.0703    0.4574 S   0  0  0  0  0  6  0  0  0  0  0  0
   -0.9580   -0.8471    1.8483 O   0  0  0  0  0  0  0  0  0  0  0  0
   -0.7890   -2.2259   -0.2590 O   0  0  0  0  0  0  0  0  0  0  0  0
   -3.0690   -1.0936    0.3590 C   0  0  0  0  0  0  0  0  0  0  0  0
   -3.7231   -2.0991   -0.3533 C   0  0  0  0  0  0  0  0  0  0  0  0
   -5.1180   -2.0931   -0.4123 C   0  0  0  0  0  0  0  0  0  0  0  0
   -5.8589   -1.1006    0.2400 C   0  0  0  0  0  0  0  0  0  0  0  0
   -7.2139   -1.2174    0.0968 O   0  0  0  0  0  0  0  0  0  0  0  0
   -8.0188   -0.2656    0.7817 C   0  0  0  0  0  0  0  0  0  0  0  0
   -5.1926   -0.1054    0.9594 C   0  0  0  0  0  0  0  0  0  0  0  0
   -3.7957   -0.1012    1.0231 C   0  0  0  0  0  0  0  0  0  0  0  0
    0.5105    2.2260    0.0821 C   0  0  0  0  0  0  0  0  0  0  0  0
    1.7561    2.8306    0.2707 C   0  0  0  0  0  0  0  0  0  0  0  0
    2.9173    2.0427    0.1592 C   0  0  0  0  0  0  0  0  0  0  0  0
    4.5438    2.5618    0.3530 S   0  0  0  0  0  0  0  0  0  0  0  0
    8.8689   -0.1321   -1.4138 H   0  0  0  0  0  0  0  0  0  0  0  0
    8.6111   -1.7521   -0.7013 H   0  0  0  0  0  0  0  0  0  0  0  0
    9.0096   -0.3612    0.3514 H   0  0  0  0  0  0  0  0  0  0  0  0
    6.4271   -0.9900   -0.9331 H   0  0  0  0  0  0  0  0  0  0  0  0
    4.3243   -0.9515   -0.4047 H   0  0  0  0  0  0  0  0  0  0  0  0
    1.5130   -0.9589   -0.5836 H   0  0  0  0  0  0  0  0  0  0  0  0
   -1.0220    1.2124   -2.3848 H   0  0  0  0  0  0  0  0  0  0  0  0
   -0.6456   -0.5225   -2.3997 H   0  0  0  0  0  0  0  0  0  0  0  0
   -2.2965    0.0558   -2.0417 H   0  0  0  0  0  0  0  0  0  0  0  0
   -3.1663   -2.8848   -0.8581 H   0  0  0  0  0  0  0  0  0  0  0  0
   -5.6370   -2.8726   -0.9662 H   0  0  0  0  0  0  0  0  0  0  0  0
   -9.0669   -0.5093    0.5827 H   0  0  0  0  0  0  0  0  0  0  0  0
   -7.8356    0.7470    0.4075 H   0  0  0  0  0  0  0  0  0  0  0  0
   -7.8633   -0.3221    1.8642 H   0  0  0  0  0  0  0  0  0  0  0  0
   -5.7294    0.6782    1.4843 H   0  0  0  0  0  0  0  0  0  0  0  0
   -3.2809    0.6707    1.5918 H   0  0  0  0  0  0  0  0  0  0  0  0
   -0.3901    2.8296    0.1622 H   0  0  0  0  0  0  0  0  0  0  0  0
    1.8253    3.8904    0.4999 H   0  0  0  0  0  0  0  0  0  0  0  0
  1  2  1  0
  2  3  1  0
  3  4  2  0
  3  5  1  0
  5  6  2  0
  6  7  1  0
  7  8  2  0
  8  9  1  0
  9 10  1  0
 10 11  1  0
 10 12  1  0
 12 13  2  0
 12 14  2  0
 12 15  1  0
 15 16  2  0
 16 17  1  0
 17 18  2  0
 18 19  1  0
 19 20  1  0
 18 21  1  0
 21 22  2  0
  9 23  2  0
 23 24  1  0
 24 25  2  0
 25 26  1  0
 26  5  1  0
 25  7  1  0
 22 15  1  0
  1 27  1  0
  1 28  1  0
  1 29  1  0
  2 30  1  0
  6 31  1  0
  8 32  1  0
 11 33  1  0
 11 34  1  0
 11 35  1  0
 16 36  1  0
 17 37  1  0
 20 38  1  0
 20 39  1  0
 20 40  1  0
 21 41  1  0
 22 42  1  0
 23 43  1  0
 24 44  1  0
M  END
$$$$
