
     RDKit          3D

 48 50  0  0  0  0  0  0  0  0999 V2000
   -6.8561   -0.3640    1.4299 C   0  0  0  0  0  0  0  0  0  0  0  0
   -6.4430   -0.6699   -0.0012 C   0  0  0  0  0  0  0  0  0  0  0  0
   -6.1241    0.5622   -0.8334 C   0  0  0  0  0  0  0  0  0  0  0  0
   -4.6234    1.4590   -0.4482 S   0  0  0  0  0  6  0  0  0  0  0  0
   -4.5193    2.5093   -1.4424 O   0  0  0  0  0  0  0  0  0  0  0  0
   -4.5725    1.7797    0.9603 O   0  0  0  0  0  0  0  0  0  0  0  0
   -3.3965    0.3325   -0.7817 N   0  0  0  0  0  0  0  0  0  0  0  0
   -3.0510   -0.6360    0.3169 C   0  0  0  0  0  0  0  0  0  0  0  0
   -1.6278   -0.4289    0.8630 C   0  0  0  0  0  0  0  0  0  0  0  0
   -0.6414   -0.6155   -0.2155 N   0  0  0  0  0  0  0  0  0  0  0  0
    0.6939   -0.5742    0.1800 C   0  0  0  0  0  0  0  0  0  0  0  0
    1.7223   -0.8594   -0.7084 C   0  0  0  0  0  0  0  0  0  0  0  0
    3.0543   -0.8306   -0.2844 C   0  0  0  0  0  0  0  0  0  0  0  0
    3.3505   -0.5155    1.0287 C   0  0  0  0  0  0  0  0  0  0  0  0
    4.6531   -0.4919    1.5337 N   0  0  0  0  0  0  0  0  0  0  0  0
    5.8707   -0.0845    0.9594 C   0  0  0  0  0  0  0  0  0  0  0  0
    7.0627   -0.4654    1.5939 C   0  0  0  0  0  0  0  0  0  0  0  0
    8.3078   -0.1164    1.0643 C   0  0  0  0  0  0  0  0  0  0  0  0
    8.3794    0.6214   -0.1133 C   0  0  0  0  0  0  0  0  0  0  0  0
    7.2072    1.0086   -0.7571 C   0  0  0  0  0  0  0  0  0  0  0  0
    5.9628    0.6551   -0.2248 C   0  0  0  0  0  0  0  0  0  0  0  0
    2.3428   -0.2841    1.8872 N   0  0  0  0  0  0  0  0  0  0  0  0
    1.0208   -0.3133    1.4615 N   0  0  0  0  0  0  0  0  0  0  0  0
   -1.0101   -0.0557   -1.5281 C   0  0  0  0  0  0  0  0  0  0  0  0
   -2.1827    0.9387   -1.4280 C   0  0  0  0  0  0  0  0  0  0  0  0
   -7.2216   -1.2752    1.9151 H   0  0  0  0  0  0  0  0  0  0  0  0
   -6.0196    0.0072    2.0260 H   0  0  0  0  0  0  0  0  0  0  0  0
   -7.6604    0.3778    1.4590 H   0  0  0  0  0  0  0  0  0  0  0  0
   -5.6146   -1.3820   -0.0072 H   0  0  0  0  0  0  0  0  0  0  0  0
   -7.2849   -1.1842   -0.4820 H   0  0  0  0  0  0  0  0  0  0  0  0
   -6.0405    0.2813   -1.8897 H   0  0  0  0  0  0  0  0  0  0  0  0
   -6.9394    1.2909   -0.7587 H   0  0  0  0  0  0  0  0  0  0  0  0
   -3.7590   -0.5735    1.1472 H   0  0  0  0  0  0  0  0  0  0  0  0
   -3.1447   -1.6447   -0.1042 H   0  0  0  0  0  0  0  0  0  0  0  0
   -1.5398    0.5759    1.2965 H   0  0  0  0  0  0  0  0  0  0  0  0
   -1.4589   -1.1638    1.6599 H   0  0  0  0  0  0  0  0  0  0  0  0
    1.5070   -1.1422   -1.7330 H   0  0  0  0  0  0  0  0  0  0  0  0
    3.8418   -1.0931   -0.9821 H   0  0  0  0  0  0  0  0  0  0  0  0
    4.6131   -0.3061    2.5321 H   0  0  0  0  0  0  0  0  0  0  0  0
    7.0274   -1.0542    2.5078 H   0  0  0  0  0  0  0  0  0  0  0  0
    9.2186   -0.4244    1.5710 H   0  0  0  0  0  0  0  0  0  0  0  0
    9.3459    0.8964   -0.5272 H   0  0  0  0  0  0  0  0  0  0  0  0
    7.2581    1.5931   -1.6721 H   0  0  0  0  0  0  0  0  0  0  0  0
    5.0703    1.0016   -0.7370 H   0  0  0  0  0  0  0  0  0  0  0  0
   -1.2941   -0.8884   -2.1827 H   0  0  0  0  0  0  0  0  0  0  0  0
   -0.1741    0.4680   -2.0067 H   0  0  0  0  0  0  0  0  0  0  0  0
   -2.4478    1.2617   -2.4409 H   0  0  0  0  0  0  0  0  0  0  0  0
   -1.8631    1.8169   -0.8532 H   0  0  0  0  0  0  0  0  0  0  0  0
  1  2  1  0
  2  3  1  0
  3  4  1  0
  4  5  2  0
  4  6  2  0
  4  7  1  0
  7  8  1  0
  8  9  1  0
  9 10  1  0
 10 11  1  0
 11 12  2  0
 12 13  1  0
 13 14  2  0
 14 15  1  0
 15 16  1  0
 16 17  2  0
 17 18  1  0
 18 19  2  0
 19 20  1  0
 20 21  2  0
 14 22  1  0
 22 23  2  0
 10 24  1  0
 24 25  1  0
 25  7  1  0
 23 11  1  0
 21 16  1  0
  1 26  1  0
  1 27  1  0
  1 28  1  0
  2 29  1  0
  2 30  1  0
  3 31  1  0
  3 32  1  0
  8 33  1  0
  8 34  1  0
  9 35  1  0
  9 36  1  0
 12 37  1  0
 13 38  1  0
 15 39  1  0
 17 40  1  0
 18 41  1  0
 19 42  1  0
 20 43  1  0
 21 44  1  0
 24 45  1  0
 24 46  1  0
 25 47  1  0
 25 48  1  0
M  END
$$$$
