
     RDKit          3D

126127  0  0  0  0  0  0  0  0999 V2000
   -5.0159    1.5886   -1.8693 C   0  0  0  0  0  0  0  0  0  0  0  0
   -6.4229    1.9115   -1.4389 C   0  0  0  0  0  0  0  0  0  0  0  0
   -7.2203    2.6807   -2.2998 C   0  0  0  0  0  0  0  0  0  0  0  0
   -8.5326    2.9851   -1.9583 C   0  0  0  0  0  0  0  0  0  0  0  0
   -9.0792    2.5153   -0.7554 C   0  0  0  0  0  0  0  0  0  0  0  0
  -10.5235    2.8057   -0.5473 C   0  0  0  0  0  0  0  0  0  0  0  0
  -10.8712    3.9763   -0.7024 O   0  0  0  0  0  0  0  0  0  0  0  0
  -11.3262    1.7057   -0.3179 N   0  0  0  0  0  0  0  0  0  0  0  0
  -12.7341    1.5774   -0.5252 C   0  0  0  0  0  0  0  0  0  0  0  0
  -13.3496    2.5668   -1.3070 C   0  0  0  0  0  0  0  0  0  0  0  0
  -14.6366    2.4060   -1.7831 C   0  0  0  0  0  0  0  0  0  0  0  0
  -15.3566    1.2497   -1.4853 C   0  0  0  0  0  0  0  0  0  0  0  0
  -16.9833    1.1176   -2.3392 S   0  0  0  0  0  6  0  0  0  0  0  0
  -17.0202    2.2861   -3.2299 O   0  0  0  0  0  0  0  0  0  0  0  0
  -16.8914   -0.1488   -3.0578 O   0  0  0  0  0  0  0  0  0  0  0  0
  -17.9477    1.1858   -1.2469 O   0  0  0  0  0  1  0  0  0  0  0  0
  -14.8267    0.2368   -0.6229 C   0  0  0  0  0  0  0  0  0  0  0  0
  -15.5856   -0.9241   -0.2799 C   0  0  0  0  0  0  0  0  0  0  0  0
  -15.0957   -1.9150    0.5765 C   0  0  0  0  0  0  0  0  0  0  0  0
  -16.1000   -3.3653    1.0247 S   0  0  0  0  0  6  0  0  0  0  0  0
  -17.4762   -2.9706    0.7373 O   0  0  0  0  0  0  0  0  0  0  0  0
  -15.8260   -3.5487    2.4506 O   0  0  0  0  0  0  0  0  0  0  0  0
  -15.5675   -4.4163    0.1579 O   0  0  0  0  0  1  0  0  0  0  0  0
  -13.8434   -1.7726    1.1476 C   0  0  0  0  0  0  0  0  0  0  0  0
  -13.0524   -0.6501    0.8320 C   0  0  0  0  0  0  0  0  0  0  0  0
  -11.4647   -0.5737    1.7436 S   0  0  0  0  0  6  0  0  0  0  0  0
  -10.4887   -0.5403    0.6519 O   0  0  0  0  0  0  0  0  0  0  0  0
  -11.5714    0.6642    2.5090 O   0  0  0  0  0  0  0  0  0  0  0  0
  -11.4002   -1.7885    2.5506 O   0  0  0  0  0  1  0  0  0  0  0  0
  -13.4826    0.3962   -0.0889 C   0  0  0  0  0  0  0  0  0  0  0  0
   -8.2866    1.7835    0.1379 C   0  0  0  0  0  0  0  0  0  0  0  0
   -6.9600    1.4712   -0.2005 C   0  0  0  0  0  0  0  0  0  0  0  0
   -6.1278    0.6842    0.6231 N   0  0  0  0  0  0  0  0  0  0  0  0
   -6.2439    0.4675    1.9817 C   0  0  0  0  0  0  0  0  0  0  0  0
   -7.0178    0.9980    2.7634 O   0  0  0  0  0  0  0  0  0  0  0  0
   -5.2184   -0.4649    2.5296 C   0  0  0  0  0  0  0  0  0  0  0  0
   -5.6127   -1.4334    3.4557 C   0  0  0  0  0  0  0  0  0  0  0  0
   -4.6626   -2.3034    3.9905 C   0  0  0  0  0  0  0  0  0  0  0  0
   -3.3252   -2.2102    3.5966 C   0  0  0  0  0  0  0  0  0  0  0  0
   -2.9190   -1.2509    2.6571 C   0  0  0  0  0  0  0  0  0  0  0  0
   -1.5525   -1.2216    2.2872 N   0  0  0  0  0  0  0  0  0  0  0  0
   -1.0363   -0.6495    1.1279 C   0  0  0  0  0  0  0  0  0  0  0  0
   -1.7123   -0.1782    0.2244 O   0  0  0  0  0  0  0  0  0  0  0  0
    0.3526   -0.7179    1.1343 N   0  0  0  0  0  0  0  0  0  0  0  0
    1.2126   -0.4552    0.0420 C   0  0  0  0  0  0  0  0  0  0  0  0
    0.7551   -0.3503   -1.2773 C   0  0  0  0  0  0  0  0  0  0  0  0
    1.6395   -0.0988   -2.3283 C   0  0  0  0  0  0  0  0  0  0  0  0
    2.9977    0.0427   -2.0712 C   0  0  0  0  0  0  0  0  0  0  0  0
    3.4773   -0.0922   -0.7652 C   0  0  0  0  0  0  0  0  0  0  0  0
    4.9434    0.0357   -0.5577 C   0  0  0  0  0  0  0  0  0  0  0  0
    5.4939    1.0148   -1.0455 O   0  0  0  0  0  0  0  0  0  0  0  0
    5.5176   -1.0351    0.0990 N   0  0  0  0  0  0  0  0  0  0  0  0
    6.9033   -1.3249    0.2368 C   0  0  0  0  0  0  0  0  0  0  0  0
    7.9142   -0.4627   -0.2178 C   0  0  0  0  0  0  0  0  0  0  0  0
    9.2818   -0.8165   -0.1475 C   0  0  0  0  0  0  0  0  0  0  0  0
   10.2879    0.0999   -0.7783 C   0  0  0  0  0  0  0  0  0  0  0  0
    9.8556    0.8084   -1.6854 O   0  0  0  0  0  0  0  0  0  0  0  0
   11.5953    0.0579   -0.3034 N   0  0  0  0  0  0  0  0  0  0  0  0
   12.7285    0.8126   -0.7503 C   0  0  0  0  0  0  0  0  0  0  0  0
   12.4600    1.9405   -1.5399 C   0  0  0  0  0  0  0  0  0  0  0  0
   13.4618    2.7771   -1.9867 C   0  0  0  0  0  0  0  0  0  0  0  0
   14.7865    2.5194   -1.6535 C   0  0  0  0  0  0  0  0  0  0  0  0
   15.9927    3.7434   -2.3220 S   0  0  0  0  0  6  0  0  0  0  0  0
   16.8087    2.9513   -3.2370 O   0  0  0  0  0  0  0  0  0  0  0  0
   15.1590    4.7454   -2.9990 O   0  0  0  0  0  0  0  0  0  0  0  0
   16.6566    4.2597   -1.1283 O   0  0  0  0  0  1  0  0  0  0  0  0
   15.1511    1.3885   -0.8570 C   0  0  0  0  0  0  0  0  0  0  0  0
   16.5182    1.1434   -0.5315 C   0  0  0  0  0  0  0  0  0  0  0  0
   16.9246    0.0531    0.2352 C   0  0  0  0  0  0  0  0  0  0  0  0
   18.6766   -0.2384    0.6324 S   0  0  0  0  0  6  0  0  0  0  0  0
   18.8357   -1.6817    0.4412 O   0  0  0  0  0  0  0  0  0  0  0  0
   19.4225    0.5690   -0.3296 O   0  0  0  0  0  0  0  0  0  0  0  0
   18.7793    0.2077    2.0206 O   0  0  0  0  0  1  0  0  0  0  0  0
   15.9837   -0.8534    0.6826 C   0  0  0  0  0  0  0  0  0  0  0  0
   14.6194   -0.6630    0.3901 C   0  0  0  0  0  0  0  0  0  0  0  0
   13.5447   -1.9971    1.0313 S   0  0  0  0  0  6  0  0  0  0  0  0
   13.0797   -2.6643   -0.1803 O   0  0  0  0  0  0  0  0  0  0  0  0
   12.4956   -1.2697    1.7442 O   0  0  0  0  0  0  0  0  0  0  0  0
   14.3786   -2.8245    1.8971 O   0  0  0  0  0  1  0  0  0  0  0  0
   14.1155    0.4785   -0.3758 C   0  0  0  0  0  0  0  0  0  0  0  0
    9.6263   -2.0515    0.3900 C   0  0  0  0  0  0  0  0  0  0  0  0
    8.6374   -2.9099    0.8762 C   0  0  0  0  0  0  0  0  0  0  0  0
    7.2763   -2.5641    0.8073 C   0  0  0  0  0  0  0  0  0  0  0  0
    6.2662   -3.5594    1.3115 C   0  0  0  0  0  0  0  0  0  0  0  0
    2.5892   -0.3375    0.2950 C   0  0  0  0  0  0  0  0  0  0  0  0
   -3.8701   -0.3616    2.1484 C   0  0  0  0  0  0  0  0  0  0  0  0
    0.0000    0.0000    0.0000 Na  0  0  0  0  0 15  0  0  0  0  0  0
    0.0000    0.0000    0.0000 Na  0  0  0  0  0 15  0  0  0  0  0  0
    0.0000    0.0000    0.0000 Na  0  0  0  0  0 15  0  0  0  0  0  0
    0.0000    0.0000    0.0000 Na  0  0  0  0  0 15  0  0  0  0  0  0
    0.0000    0.0000    0.0000 Na  0  0  0  0  0 15  0  0  0  0  0  0
    0.0000    0.0000    0.0000 Na  0  0  0  0  0 15  0  0  0  0  0  0
   -4.9318    0.5240   -2.1030 H   0  0  0  0  0  0  0  0  0  0  0  0
   -4.7258    2.1551   -2.7618 H   0  0  0  0  0  0  0  0  0  0  0  0
   -4.3049    1.8545   -1.0780 H   0  0  0  0  0  0  0  0  0  0  0  0
   -6.8293    3.0454   -3.2492 H   0  0  0  0  0  0  0  0  0  0  0  0
   -9.1497    3.5635   -2.6398 H   0  0  0  0  0  0  0  0  0  0  0  0
  -10.8403    0.8425   -0.0569 H   0  0  0  0  0  0  0  0  0  0  0  0
  -12.8211    3.4536   -1.6396 H   0  0  0  0  0  0  0  0  0  0  0  0
  -15.0587    3.1716   -2.4313 H   0  0  0  0  0  0  0  0  0  0  0  0
  -16.5898   -1.0672   -0.6759 H   0  0  0  0  0  0  0  0  0  0  0  0
  -13.4943   -2.5298    1.8482 H   0  0  0  0  0  0  0  0  0  0  0  0
   -8.7377    1.4108    1.0579 H   0  0  0  0  0  0  0  0  0  0  0  0
   -5.3505    0.2460    0.1579 H   0  0  0  0  0  0  0  0  0  0  0  0
   -6.6609   -1.5048    3.7511 H   0  0  0  0  0  0  0  0  0  0  0  0
   -4.9759   -3.0573    4.7061 H   0  0  0  0  0  0  0  0  0  0  0  0
   -2.6119   -2.9116    4.0179 H   0  0  0  0  0  0  0  0  0  0  0  0
   -0.9585   -1.9010    2.7364 H   0  0  0  0  0  0  0  0  0  0  0  0
    0.7791   -0.7606    2.0483 H   0  0  0  0  0  0  0  0  0  0  0  0
   -0.2979   -0.4644   -1.5239 H   0  0  0  0  0  0  0  0  0  0  0  0
    1.2665   -0.0239   -3.3430 H   0  0  0  0  0  0  0  0  0  0  0  0
    3.6884    0.2389   -2.8853 H   0  0  0  0  0  0  0  0  0  0  0  0
    4.8883   -1.7747    0.3749 H   0  0  0  0  0  0  0  0  0  0  0  0
    7.6715    0.4935   -0.6734 H   0  0  0  0  0  0  0  0  0  0  0  0
   11.7712   -0.5556    0.4936 H   0  0  0  0  0  0  0  0  0  0  0  0
   11.4502    2.2341   -1.8031 H   0  0  0  0  0  0  0  0  0  0  0  0
   13.1943    3.6448   -2.5809 H   0  0  0  0  0  0  0  0  0  0  0  0
   17.3060    1.8135   -0.8808 H   0  0  0  0  0  0  0  0  0  0  0  0
   16.3230   -1.7123    1.2584 H   0  0  0  0  0  0  0  0  0  0  0  0
   10.6557   -2.3946    0.4003 H   0  0  0  0  0  0  0  0  0  0  0  0
    8.9532   -3.8702    1.2812 H   0  0  0  0  0  0  0  0  0  0  0  0
    5.6496   -3.1143    2.0977 H   0  0  0  0  0  0  0  0  0  0  0  0
    6.7438   -4.4461    1.7393 H   0  0  0  0  0  0  0  0  0  0  0  0
    5.6313   -3.8990    0.4903 H   0  0  0  0  0  0  0  0  0  0  0  0
    2.9740   -0.3986    1.3082 H   0  0  0  0  0  0  0  0  0  0  0  0
   -3.5716    0.4409    1.4809 H   0  0  0  0  0  0  0  0  0  0  0  0
  1  2  1  0
  2  3  2  0
  3  4  1  0
  4  5  2  0
  5  6  1  0
  6  7  2  0
  6  8  1  0
  8  9  1  0
  9 10  2  0
 10 11  1  0
 11 12  2  0
 12 13  1  0
 13 14  2  0
 13 15  2  0
 13 16  1  0
 12 17  1  0
 17 18  2  0
 18 19  1  0
 19 20  1  0
 20 21  2  0
 20 22  2  0
 20 23  1  0
 19 24  2  0
 24 25  1  0
 25 26  1  0
 26 27  2  0
 26 28  2  0
 26 29  1  0
 25 30  2  0
  5 31  1  0
 31 32  2  0
 32 33  1  0
 33 34  1  0
 34 35  2  0
 34 36  1  0
 36 37  2  0
 37 38  1  0
 38 39  2  0
 39 40  1  0
 40 41  1  0
 41 42  1  0
 42 43  2  0
 42 44  1  0
 44 45  1  0
 45 46  2  0
 46 47  1  0
 47 48  2  0
 48 49  1  0
 49 50  1  0
 50 51  2  0
 50 52  1  0
 52 53  1  0
 53 54  2  0
 54 55  1  0
 55 56  1  0
 56 57  2  0
 56 58  1  0
 58 59  1  0
 59 60  2  0
 60 61  1  0
 61 62  2  0
 62 63  1  0
 63 64  2  0
 63 65  2  0
 63 66  1  0
 62 67  1  0
 67 68  2  0
 68 69  1  0
 69 70  1  0
 70 71  2  0
 70 72  2  0
 70 73  1  0
 69 74  2  0
 74 75  1  0
 75 76  1  0
 76 77  2  0
 76 78  2  0
 76 79  1  0
 75 80  2  0
 55 81  2  0
 81 82  1  0
 82 83  2  0
 83 84  1  0
 49 85  2  0
 40 86  2  0
 32  2  1  0
 86 36  1  0
 30  9  1  0
 85 45  1  0
 30 17  1  0
 83 53  1  0
 80 59  1  0
 80 67  1  0
  1 93  1  0
  1 94  1  0
  1 95  1  0
  3 96  1  0
  4 97  1  0
  8 98  1  0
 10 99  1  0
 11100  1  0
 18101  1  0
 24102  1  0
 31103  1  0
 33104  1  0
 37105  1  0
 38106  1  0
 39107  1  0
 41108  1  0
 44109  1  0
 46110  1  0
 47111  1  0
 48112  1  0
 52113  1  0
 54114  1  0
 58115  1  0
 60116  1  0
 61117  1  0
 68118  1  0
 74119  1  0
 81120  1  0
 82121  1  0
 84122  1  0
 84123  1  0
 84124  1  0
 85125  1  0
 86126  1  0
M  CHG  8  16  -1  23  -1  29  -1  66  -1  73  -1  79  -1  87   1  88   1
M  CHG  4  89   1  90   1  91   1  92   1
M  END
$$$$
