
     RDKit          3D

 29 30  0  0  0  0  0  0  0  0999 V2000
    6.1171    0.6680   -0.0365 O   0  0  0  0  0  0  0  0  0  0  0  0
    4.7845    0.3870    0.0224 C   0  0  0  0  0  0  0  0  0  0  0  0
    3.9181    1.4224    0.3488 C   0  0  0  0  0  0  0  0  0  0  0  0
    2.5441    1.1798    0.4205 C   0  0  0  0  0  0  0  0  0  0  0  0
    2.0326   -0.0978    0.1554 C   0  0  0  0  0  0  0  0  0  0  0  0
    0.5982   -0.4033    0.2486 C   0  0  0  0  0  0  0  0  0  0  0  0
   -0.3698    0.4240   -0.1783 C   0  0  0  0  0  0  0  0  0  0  0  0
   -1.8045    0.1154   -0.0871 C   0  0  0  0  0  0  0  0  0  0  0  0
   -2.7016    1.1497    0.2158 C   0  0  0  0  0  0  0  0  0  0  0  0
   -4.0696    0.8871    0.2830 C   0  0  0  0  0  0  0  0  0  0  0  0
   -4.9667    1.8702    0.5857 O   0  0  0  0  0  0  0  0  0  0  0  0
   -4.5689   -0.3872    0.0423 C   0  0  0  0  0  0  0  0  0  0  0  0
   -3.6797   -1.4069   -0.2738 C   0  0  0  0  0  0  0  0  0  0  0  0
   -4.1159   -2.6744   -0.5291 O   0  0  0  0  0  0  0  0  0  0  0  0
   -2.3095   -1.1663   -0.3450 C   0  0  0  0  0  0  0  0  0  0  0  0
    2.9258   -1.1328   -0.1564 C   0  0  0  0  0  0  0  0  0  0  0  0
    4.3011   -0.8919   -0.2294 C   0  0  0  0  0  0  0  0  0  0  0  0
    6.5941   -0.1435   -0.2752 H   0  0  0  0  0  0  0  0  0  0  0  0
    4.3095    2.4148    0.5527 H   0  0  0  0  0  0  0  0  0  0  0  0
    1.8828    1.9969    0.6967 H   0  0  0  0  0  0  0  0  0  0  0  0
    0.3542   -1.3686    0.6860 H   0  0  0  0  0  0  0  0  0  0  0  0
   -0.1245    1.3875   -0.6186 H   0  0  0  0  0  0  0  0  0  0  0  0
   -2.3252    2.1505    0.4062 H   0  0  0  0  0  0  0  0  0  0  0  0
   -4.4822    2.6985    0.7382 H   0  0  0  0  0  0  0  0  0  0  0  0
   -5.6377   -0.5612    0.1010 H   0  0  0  0  0  0  0  0  0  0  0  0
   -5.0841   -2.6885   -0.4480 H   0  0  0  0  0  0  0  0  0  0  0  0
   -1.6469   -1.9846   -0.6139 H   0  0  0  0  0  0  0  0  0  0  0  0
    2.5548   -2.1361   -0.3547 H   0  0  0  0  0  0  0  0  0  0  0  0
    4.9698   -1.7088   -0.4806 H   0  0  0  0  0  0  0  0  0  0  0  0
  1  2  1  0
  2  3  2  0
  3  4  1  0
  4  5  2  0
  5  6  1  0
  6  7  2  0
  7  8  1  0
  8  9  2  0
  9 10  1  0
 10 11  1  0
 10 12  2  0
 12 13  1  0
 13 14  1  0
 13 15  2  0
  5 16  1  0
 16 17  2  0
 17  2  1  0
 15  8  1  0
  1 18  1  0
  3 19  1  0
  4 20  1  0
  6 21  1  0
  7 22  1  0
  9 23  1  0
 11 24  1  0
 12 25  1  0
 14 26  1  0
 15 27  1  0
 16 28  1  0
 17 29  1  0
M  END
$$$$
