
     RDKit          3D

 39 41  0  0  0  0  0  0  0  0999 V2000
    6.4626   -1.1967   -1.0394 C   0  0  0  0  0  0  0  0  0  0  0  0
    6.1340    0.2359   -1.1562 C   0  0  0  0  0  0  0  0  0  0  0  0
    6.9057    1.2203   -1.6011 N   0  0  0  0  0  0  0  0  0  0  0  0
    6.1842    2.4118   -1.5343 N   0  0  0  0  0  0  0  0  0  0  0  0
    5.0192    2.0862   -1.0543 C   0  0  0  0  0  0  0  0  0  0  0  0
    3.5591    2.8654   -0.6502 S   0  0  0  0  0  0  0  0  0  0  0  0
    2.9529    1.2503   -0.1633 C   0  0  0  0  0  0  0  0  0  0  0  0
    1.5709    1.0996    0.3638 C   0  0  0  0  0  0  0  0  0  0  0  0
    0.6856    2.1755    0.5126 C   0  0  0  0  0  0  0  0  0  0  0  0
   -0.6054    1.9688    1.0139 C   0  0  0  0  0  0  0  0  0  0  0  0
   -1.0317    0.6867    1.3813 C   0  0  0  0  0  0  0  0  0  0  0  0
   -2.4286    0.4529    1.8991 C   0  0  0  0  0  0  0  0  0  0  0  0
   -3.2970   -0.0003    0.8370 N   0  0  0  0  0  0  0  0  0  0  0  0
   -3.5717   -1.3344    0.6461 C   0  0  0  0  0  0  0  0  0  0  0  0
   -3.1817   -2.2162    1.4070 O   0  0  0  0  0  0  0  0  0  0  0  0
   -4.3959   -1.6594   -0.5945 C   0  0  0  0  0  0  0  0  0  0  0  0
   -5.7550   -0.9672   -0.5583 C   0  0  0  0  0  0  0  0  0  0  0  0
   -3.6276   -1.3178   -1.8676 C   0  0  0  0  0  0  0  0  0  0  0  0
   -0.1492   -0.3892    1.2251 C   0  0  0  0  0  0  0  0  0  0  0  0
    1.1393   -0.1848    0.7242 C   0  0  0  0  0  0  0  0  0  0  0  0
    3.7784    0.2415   -0.2984 N   0  0  0  0  0  0  0  0  0  0  0  0
    4.9249    0.7635   -0.8018 N   0  0  0  0  0  0  0  0  0  0  0  0
    5.7840   -1.8012   -1.6491 H   0  0  0  0  0  0  0  0  0  0  0  0
    6.3859   -1.5286    0.0006 H   0  0  0  0  0  0  0  0  0  0  0  0
    7.4848   -1.3862   -1.3811 H   0  0  0  0  0  0  0  0  0  0  0  0
    0.9670    3.1909    0.2476 H   0  0  0  0  0  0  0  0  0  0  0  0
   -1.2748    2.8209    1.1173 H   0  0  0  0  0  0  0  0  0  0  0  0
   -2.4120   -0.2670    2.7251 H   0  0  0  0  0  0  0  0  0  0  0  0
   -2.8522    1.3846    2.2898 H   0  0  0  0  0  0  0  0  0  0  0  0
   -3.5115    0.6560    0.1001 H   0  0  0  0  0  0  0  0  0  0  0  0
   -4.5682   -2.7435   -0.5810 H   0  0  0  0  0  0  0  0  0  0  0  0
   -5.6618    0.1209   -0.6414 H   0  0  0  0  0  0  0  0  0  0  0  0
   -6.3858   -1.3128   -1.3841 H   0  0  0  0  0  0  0  0  0  0  0  0
   -6.2763   -1.1837    0.3804 H   0  0  0  0  0  0  0  0  0  0  0  0
   -4.1652   -1.6782   -2.7509 H   0  0  0  0  0  0  0  0  0  0  0  0
   -2.6363   -1.7839   -1.8600 H   0  0  0  0  0  0  0  0  0  0  0  0
   -3.4833   -0.2382   -1.9813 H   0  0  0  0  0  0  0  0  0  0  0  0
   -0.4662   -1.3978    1.4911 H   0  0  0  0  0  0  0  0  0  0  0  0
    1.7988   -1.0445    0.6179 H   0  0  0  0  0  0  0  0  0  0  0  0
  1  2  1  0
  2  3  2  0
  3  4  1  0
  4  5  2  0
  5  6  1  0
  6  7  1  0
  7  8  1  0
  8  9  2  0
  9 10  1  0
 10 11  2  0
 11 12  1  0
 12 13  1  0
 13 14  1  0
 14 15  2  0
 14 16  1  0
 16 17  1  0
 16 18  1  0
 11 19  1  0
 19 20  2  0
  7 21  2  0
 21 22  1  0
 22  2  1  0
 22  5  1  0
 20  8  1  0
  1 23  1  0
  1 24  1  0
  1 25  1  0
  9 26  1  0
 10 27  1  0
 12 28  1  0
 12 29  1  0
 13 30  1  0
 16 31  1  0
 17 32  1  0
 17 33  1  0
 17 34  1  0
 18 35  1  0
 18 36  1  0
 18 37  1  0
 19 38  1  0
 20 39  1  0
M  END
$$$$
