
     RDKit          3D

 41 43  0  0  0  0  0  0  0  0999 V2000
    5.9714    1.9526   -2.8095 C   0  0  0  0  0  0  0  0  0  0  0  0
    4.8838    1.3698   -1.9484 C   0  0  0  0  0  0  0  0  0  0  0  0
    5.0954    0.1390   -1.3279 C   0  0  0  0  0  0  0  0  0  0  0  0
    4.0967   -0.4256   -0.5201 C   0  0  0  0  0  0  0  0  0  0  0  0
    4.3367   -1.7468    0.1640 C   0  0  0  0  0  0  0  0  0  0  0  0
    2.8949    0.3186   -0.3713 C   0  0  0  0  0  0  0  0  0  0  0  0
    2.8083    1.5395   -1.0411 C   0  0  0  0  0  0  0  0  0  0  0  0
    3.7524    2.0963   -1.8262 N   0  0  0  0  0  0  0  0  0  0  0  0
    1.3198    2.3488   -0.7783 S   0  0  0  0  0  0  0  0  0  0  0  0
    0.7659    1.1033    0.2239 C   0  0  0  0  0  0  0  0  0  0  0  0
   -0.5150    1.0817    0.8737 C   0  0  0  0  0  0  0  0  0  0  0  0
   -1.3855    1.9466    0.7645 O   0  0  0  0  0  0  0  0  0  0  0  0
   -0.6862   -0.0526    1.6628 N   0  0  0  0  0  0  0  0  0  0  0  0
   -1.9439   -0.2270    2.3655 C   0  0  0  0  0  0  0  0  0  0  0  0
   -2.9051   -0.9456    1.4277 C   0  0  0  0  0  0  0  0  0  0  0  0
   -2.8208   -2.1593    1.2239 O   0  0  0  0  0  0  0  0  0  0  0  0
   -3.7937   -0.1170    0.7743 N   0  0  0  0  0  0  0  0  0  0  0  0
   -4.7774   -0.6253   -0.1718 C   0  0  0  0  0  0  0  0  0  0  0  0
   -5.9611   -1.2641    0.5631 C   0  0  0  0  0  0  0  0  0  0  0  0
   -5.2644    0.4919   -1.0913 C   0  0  0  0  0  0  0  0  0  0  0  0
    0.2730   -1.0513    1.7137 C   0  0  0  0  0  0  0  0  0  0  0  0
    1.4318   -1.0487    1.1280 N   0  0  0  0  0  0  0  0  0  0  0  0
    1.6833    0.0956    0.3516 C   0  0  0  0  0  0  0  0  0  0  0  0
    6.2098    1.2692   -3.6286 H   0  0  0  0  0  0  0  0  0  0  0  0
    6.8722    2.1278   -2.2122 H   0  0  0  0  0  0  0  0  0  0  0  0
    5.6552    2.9119   -3.2419 H   0  0  0  0  0  0  0  0  0  0  0  0
    6.0386   -0.3818   -1.4754 H   0  0  0  0  0  0  0  0  0  0  0  0
    5.2633   -2.2144   -0.1825 H   0  0  0  0  0  0  0  0  0  0  0  0
    4.4050   -1.5952    1.2445 H   0  0  0  0  0  0  0  0  0  0  0  0
    3.5185   -2.4420   -0.0544 H   0  0  0  0  0  0  0  0  0  0  0  0
   -2.3525    0.7323    2.6830 H   0  0  0  0  0  0  0  0  0  0  0  0
   -1.8023   -0.8494    3.2545 H   0  0  0  0  0  0  0  0  0  0  0  0
   -3.8077    0.8739    1.0050 H   0  0  0  0  0  0  0  0  0  0  0  0
   -4.2854   -1.3939   -0.7783 H   0  0  0  0  0  0  0  0  0  0  0  0
   -6.4589   -0.5425    1.2179 H   0  0  0  0  0  0  0  0  0  0  0  0
   -6.6990   -1.6462   -0.1506 H   0  0  0  0  0  0  0  0  0  0  0  0
   -5.6277   -2.1035    1.1836 H   0  0  0  0  0  0  0  0  0  0  0  0
   -4.4264    0.9625   -1.6290 H   0  0  0  0  0  0  0  0  0  0  0  0
   -5.7755    1.2825   -0.5240 H   0  0  0  0  0  0  0  0  0  0  0  0
   -5.9745    0.1082   -1.8375 H   0  0  0  0  0  0  0  0  0  0  0  0
   -0.0127   -1.9198    2.3332 H   0  0  0  0  0  0  0  0  0  0  0  0
  1  2  1  0
  2  3  2  0
  3  4  1  0
  4  5  1  0
  4  6  2  0
  6  7  1  0
  7  8  2  0
  7  9  1  0
  9 10  1  0
 10 11  1  0
 11 12  2  0
 11 13  1  0
 13 14  1  0
 14 15  1  0
 15 16  2  0
 15 17  1  0
 17 18  1  0
 18 19  1  0
 18 20  1  0
 13 21  1  0
 21 22  2  0
 22 23  1  0
  8  2  1  0
 23 10  2  0
 23  6  1  0
  1 24  1  0
  1 25  1  0
  1 26  1  0
  3 27  1  0
  5 28  1  0
  5 29  1  0
  5 30  1  0
 14 31  1  0
 14 32  1  0
 17 33  1  0
 18 34  1  0
 19 35  1  0
 19 36  1  0
 19 37  1  0
 20 38  1  0
 20 39  1  0
 20 40  1  0
 21 41  1  0
M  END
$$$$
