
     RDKit          3D

 33 34  0  0  0  0  0  0  0  0999 V2000
    4.9774    1.7106    0.1222 C   0  0  0  0  0  0  0  0  0  0  0  0
    3.8431    0.7323    0.0241 C   0  0  0  0  0  0  0  0  0  0  0  0
    3.2569    0.4524   -1.2183 C   0  0  0  0  0  0  0  0  0  0  0  0
    2.2266   -0.4836   -1.3202 C   0  0  0  0  0  0  0  0  0  0  0  0
    1.7818   -1.1429   -0.1720 C   0  0  0  0  0  0  0  0  0  0  0  0
    0.4750   -2.3398   -0.2850 S   0  0  0  0  0  6  0  0  0  0  0  0
    0.2398   -2.6225   -1.6835 O   0  0  0  0  0  0  0  0  0  0  0  0
    0.7560   -3.3888    0.6696 O   0  0  0  0  0  0  0  0  0  0  0  0
   -0.8424   -1.4984    0.3005 N   0  0  0  0  0  0  0  0  0  0  0  0
   -1.2769   -0.2854   -0.3791 C   0  0  0  0  0  0  0  0  0  0  0  0
   -2.6455    0.1351    0.0978 C   0  0  0  0  0  0  0  0  0  0  0  0
   -2.8127    1.2778    0.8928 C   0  0  0  0  0  0  0  0  0  0  0  0
   -4.0831    1.6496    1.3369 C   0  0  0  0  0  0  0  0  0  0  0  0
   -5.1955    0.8823    0.9954 C   0  0  0  0  0  0  0  0  0  0  0  0
   -5.0403   -0.2590    0.2112 C   0  0  0  0  0  0  0  0  0  0  0  0
   -3.7719   -0.6324   -0.2344 C   0  0  0  0  0  0  0  0  0  0  0  0
    2.3759   -0.8965    1.0683 C   0  0  0  0  0  0  0  0  0  0  0  0
    3.4060    0.0405    1.1623 C   0  0  0  0  0  0  0  0  0  0  0  0
    4.9883    2.1984    1.1026 H   0  0  0  0  0  0  0  0  0  0  0  0
    5.9306    1.1943   -0.0274 H   0  0  0  0  0  0  0  0  0  0  0  0
    4.8790    2.4991   -0.6314 H   0  0  0  0  0  0  0  0  0  0  0  0
    3.6063    0.9588   -2.1161 H   0  0  0  0  0  0  0  0  0  0  0  0
    1.7856   -0.6947   -2.2921 H   0  0  0  0  0  0  0  0  0  0  0  0
   -0.9951   -1.5717    1.3036 H   0  0  0  0  0  0  0  0  0  0  0  0
   -1.3138   -0.4328   -1.4642 H   0  0  0  0  0  0  0  0  0  0  0  0
   -0.5623    0.5204   -0.1791 H   0  0  0  0  0  0  0  0  0  0  0  0
   -1.9567    1.8879    1.1721 H   0  0  0  0  0  0  0  0  0  0  0  0
   -4.2059    2.5383    1.9508 H   0  0  0  0  0  0  0  0  0  0  0  0
   -6.1839    1.1723    1.3424 H   0  0  0  0  0  0  0  0  0  0  0  0
   -5.9064   -0.8608   -0.0519 H   0  0  0  0  0  0  0  0  0  0  0  0
   -3.6602   -1.5306   -0.8398 H   0  0  0  0  0  0  0  0  0  0  0  0
    2.0517   -1.4337    1.9567 H   0  0  0  0  0  0  0  0  0  0  0  0
    3.8729    0.2236    2.1282 H   0  0  0  0  0  0  0  0  0  0  0  0
  1  2  1  0
  2  3  2  0
  3  4  1  0
  4  5  2  0
  5  6  1  0
  6  7  2  0
  6  8  2  0
  6  9  1  0
  9 10  1  0
 10 11  1  0
 11 12  2  0
 12 13  1  0
 13 14  2  0
 14 15  1  0
 15 16  2  0
  5 17  1  0
 17 18  2  0
 18  2  1  0
 16 11  1  0
  1 19  1  0
  1 20  1  0
  1 21  1  0
  3 22  1  0
  4 23  1  0
  9 24  1  0
 10 25  1  0
 10 26  1  0
 12 27  1  0
 13 28  1  0
 14 29  1  0
 15 30  1  0
 16 31  1  0
 17 32  1  0
 18 33  1  0
M  END
$$$$
