
     RDKit          3D

 35 35  0  0  0  0  0  0  0  0999 V2000
   -2.9194    0.9669   -1.6050 C   0  0  0  0  0  0  0  0  0  0  0  0
   -2.8146    0.2107   -0.3262 C   0  0  0  0  0  0  0  0  0  0  0  0
   -3.7942    0.0175    0.6284 C   0  0  0  0  0  0  0  0  0  0  0  0
   -3.2510   -0.7790    1.6531 C   0  0  0  0  0  0  0  0  0  0  0  0
   -1.9441   -1.0664    1.3153 C   0  0  0  0  0  0  0  0  0  0  0  0
   -0.9523   -1.8834    2.0655 C   0  0  0  0  0  0  0  0  0  0  0  0
   -1.6765   -0.4640    0.0900 N   0  0  0  0  0  0  0  0  0  0  0  0
   -0.3464   -0.4431   -0.5529 C   0  0  0  0  0  0  0  0  0  0  0  0
    0.3275    0.9216   -0.3381 C   0  0  0  0  0  0  0  0  0  0  0  0
    1.8274    0.8144   -0.1442 C   0  0  0  0  0  0  0  0  0  0  0  0
    2.3842    0.8356    1.1417 C   0  0  0  0  0  0  0  0  0  0  0  0
    3.7646    0.7219    1.3164 C   0  0  0  0  0  0  0  0  0  0  0  0
    4.5993    0.5809    0.2087 C   0  0  0  0  0  0  0  0  0  0  0  0
    4.0538    0.5516   -1.0737 C   0  0  0  0  0  0  0  0  0  0  0  0
    2.6744    0.6670   -1.2496 C   0  0  0  0  0  0  0  0  0  0  0  0
   -0.4122   -0.9403   -2.0031 C   0  0  0  0  0  0  0  0  0  0  0  0
   -0.5930   -2.1867   -2.1480 O   0  0  0  0  0  0  0  0  0  0  0  0
   -0.2323   -0.0749   -2.9118 O   0  0  0  0  0  1  0  0  0  0  0  0
    0.0000    0.0000    0.0000 K   0  0  0  0  0 15  0  0  0  0  0  0
   -2.1077    1.6893   -1.7159 H   0  0  0  0  0  0  0  0  0  0  0  0
   -2.9220    0.2849   -2.4600 H   0  0  0  0  0  0  0  0  0  0  0  0
   -3.8576    1.5319   -1.6382 H   0  0  0  0  0  0  0  0  0  0  0  0
   -4.8010    0.4083    0.5769 H   0  0  0  0  0  0  0  0  0  0  0  0
   -3.7582   -1.1195    2.5451 H   0  0  0  0  0  0  0  0  0  0  0  0
   -0.6387   -2.7517    1.4773 H   0  0  0  0  0  0  0  0  0  0  0  0
   -0.0709   -1.2877    2.3225 H   0  0  0  0  0  0  0  0  0  0  0  0
   -1.3836   -2.2557    3.0008 H   0  0  0  0  0  0  0  0  0  0  0  0
    0.2493   -1.2035   -0.0328 H   0  0  0  0  0  0  0  0  0  0  0  0
    0.1367    1.6152   -1.1655 H   0  0  0  0  0  0  0  0  0  0  0  0
   -0.0884    1.4214    0.5478 H   0  0  0  0  0  0  0  0  0  0  0  0
    1.7400    0.9351    2.0118 H   0  0  0  0  0  0  0  0  0  0  0  0
    4.1858    0.7367    2.3171 H   0  0  0  0  0  0  0  0  0  0  0  0
    5.6724    0.4854    0.3431 H   0  0  0  0  0  0  0  0  0  0  0  0
    4.6952    0.4296   -1.9417 H   0  0  0  0  0  0  0  0  0  0  0  0
    2.2533    0.6302   -2.2549 H   0  0  0  0  0  0  0  0  0  0  0  0
  1  2  1  0
  2  3  2  0
  3  4  1  0
  4  5  2  0
  5  6  1  0
  5  7  1  0
  7  8  1  0
  8  9  1  0
  9 10  1  0
 10 11  2  0
 11 12  1  0
 12 13  2  0
 13 14  1  0
 14 15  2  0
  8 16  1  0
 16 17  2  0
 16 18  1  0
  7  2  1  0
 15 10  1  0
  1 20  1  0
  1 21  1  0
  1 22  1  0
  3 23  1  0
  4 24  1  0
  6 25  1  0
  6 26  1  0
  6 27  1  0
  8 28  1  0
  9 29  1  0
  9 30  1  0
 11 31  1  0
 12 32  1  0
 13 33  1  0
 14 34  1  0
 15 35  1  0
M  CHG  2  18  -1  19   1
M  END
$$$$
