
     RDKit          3D

 76 79  0  0  0  0  0  0  0  0999 V2000
   -5.0524    4.4798   -1.3077 O   0  0  0  0  0  0  0  0  0  0  0  0
   -5.0565    3.0624   -1.1509 C   0  0  0  0  0  0  0  0  0  0  0  0
   -3.7599    2.6048   -0.4671 C   0  0  0  0  0  0  0  0  0  0  0  0
   -3.7216    1.1509   -0.2837 N   0  0  0  0  0  0  0  0  0  0  0  0
   -4.7028    0.5415    0.6156 C   0  0  0  0  0  0  0  0  0  0  0  0
   -5.5227   -0.5360   -0.1049 C   0  0  0  0  0  0  0  0  0  0  0  0
   -6.4100   -1.1885    0.8015 O   0  0  0  0  0  0  0  0  0  0  0  0
   -2.4620    0.5549   -0.2503 C   0  0  0  0  0  0  0  0  0  0  0  0
   -2.3734   -0.7256    0.1103 N   0  0  0  0  0  0  0  0  0  0  0  0
   -1.1669   -1.3350    0.1005 C   0  0  0  0  0  0  0  0  0  0  0  0
   -1.1315   -2.6996    0.4787 N   0  0  0  0  0  0  0  0  0  0  0  0
   -0.6678   -3.6129   -0.5672 C   0  0  0  0  0  0  0  0  0  0  0  0
   -0.0989   -4.8669    0.1061 C   0  0  0  0  0  0  0  0  0  0  0  0
   -0.8346   -5.2417    1.3979 C   0  0  0  0  0  0  0  0  0  0  0  0
   -2.2602   -4.7026    1.4079 C   0  0  0  0  0  0  0  0  0  0  0  0
   -2.3036   -3.1773    1.2245 C   0  0  0  0  0  0  0  0  0  0  0  0
    0.0210   -0.6603   -0.2266 C   0  0  0  0  0  0  0  0  0  0  0  0
    1.2359   -1.2640   -0.1882 N   0  0  0  0  0  0  0  0  0  0  0  0
    2.3187   -0.5640   -0.5068 C   0  0  0  0  0  0  0  0  0  0  0  0
    3.5506   -1.1850   -0.4837 N   0  0  0  0  0  0  0  0  0  0  0  0
    4.7493   -0.3526   -0.4533 C   0  0  0  0  0  0  0  0  0  0  0  0
    4.9097    0.4617    0.8406 C   0  0  0  0  0  0  0  0  0  0  0  0
    6.2004    1.0754    0.8965 O   0  0  0  0  0  0  0  0  0  0  0  0
    3.6250   -2.5934   -0.1029 C   0  0  0  0  0  0  0  0  0  0  0  0
    3.6839   -2.8023    1.4157 C   0  0  0  0  0  0  0  0  0  0  0  0
    5.0238   -2.6478    1.8978 O   0  0  0  0  0  0  0  0  0  0  0  0
    2.2429    0.7151   -0.8636 N   0  0  0  0  0  0  0  0  0  0  0  0
    1.0404    1.3378   -0.8968 C   0  0  0  0  0  0  0  0  0  0  0  0
    1.0437    2.6982   -1.3032 N   0  0  0  0  0  0  0  0  0  0  0  0
    2.3024    3.2092   -1.8649 C   0  0  0  0  0  0  0  0  0  0  0  0
    3.1009    3.9556   -0.8006 C   0  0  0  0  0  0  0  0  0  0  0  0
    2.3163    5.1376   -0.2273 C   0  0  0  0  0  0  0  0  0  0  0  0
    0.8198    5.0465   -0.5182 C   0  0  0  0  0  0  0  0  0  0  0  0
    0.3047    3.6099   -0.4117 C   0  0  0  0  0  0  0  0  0  0  0  0
   -0.1575    0.6694   -0.5717 C   0  0  0  0  0  0  0  0  0  0  0  0
   -1.3856    1.2542   -0.5990 N   0  0  0  0  0  0  0  0  0  0  0  0
   -5.8803    4.7183   -1.7566 H   0  0  0  0  0  0  0  0  0  0  0  0
   -5.9390    2.7935   -0.5632 H   0  0  0  0  0  0  0  0  0  0  0  0
   -5.1506    2.6005   -2.1402 H   0  0  0  0  0  0  0  0  0  0  0  0
   -3.6406    3.1135    0.4973 H   0  0  0  0  0  0  0  0  0  0  0  0
   -2.9421    2.9629   -1.1037 H   0  0  0  0  0  0  0  0  0  0  0  0
   -5.3995    1.2944    1.0047 H   0  0  0  0  0  0  0  0  0  0  0  0
   -4.2388    0.1312    1.5239 H   0  0  0  0  0  0  0  0  0  0  0  0
   -6.1293   -0.0818   -0.8956 H   0  0  0  0  0  0  0  0  0  0  0  0
   -4.8900   -1.2949   -0.5739 H   0  0  0  0  0  0  0  0  0  0  0  0
   -5.8537   -1.6910    1.4239 H   0  0  0  0  0  0  0  0  0  0  0  0
   -1.5124   -3.8872   -1.2134 H   0  0  0  0  0  0  0  0  0  0  0  0
    0.0944   -3.1934   -1.2315 H   0  0  0  0  0  0  0  0  0  0  0  0
    0.9606   -4.7137    0.3431 H   0  0  0  0  0  0  0  0  0  0  0  0
   -0.1404   -5.7002   -0.6050 H   0  0  0  0  0  0  0  0  0  0  0  0
   -0.8351   -6.3295    1.5230 H   0  0  0  0  0  0  0  0  0  0  0  0
   -0.2899   -4.8261    2.2549 H   0  0  0  0  0  0  0  0  0  0  0  0
   -2.8243   -5.1799    0.5957 H   0  0  0  0  0  0  0  0  0  0  0  0
   -2.7697   -4.9765    2.3385 H   0  0  0  0  0  0  0  0  0  0  0  0
   -2.3117   -2.6985    2.2120 H   0  0  0  0  0  0  0  0  0  0  0  0
   -3.2474   -2.9276    0.7238 H   0  0  0  0  0  0  0  0  0  0  0  0
    4.7742    0.3263   -1.3169 H   0  0  0  0  0  0  0  0  0  0  0  0
    5.6383   -0.9846   -0.5809 H   0  0  0  0  0  0  0  0  0  0  0  0
    4.1620    1.2581    0.9064 H   0  0  0  0  0  0  0  0  0  0  0  0
    4.7966   -0.1586    1.7351 H   0  0  0  0  0  0  0  0  0  0  0  0
    6.8458    0.3558    1.0124 H   0  0  0  0  0  0  0  0  0  0  0  0
    4.5160   -3.0350   -0.5680 H   0  0  0  0  0  0  0  0  0  0  0  0
    2.7733   -3.1464   -0.5165 H   0  0  0  0  0  0  0  0  0  0  0  0
    3.3614   -3.8162    1.6703 H   0  0  0  0  0  0  0  0  0  0  0  0
    3.0442   -2.0984    1.9553 H   0  0  0  0  0  0  0  0  0  0  0  0
    5.5212   -3.4360    1.6220 H   0  0  0  0  0  0  0  0  0  0  0  0
    2.0555    3.8983   -2.6825 H   0  0  0  0  0  0  0  0  0  0  0  0
    2.9125    2.4298   -2.3351 H   0  0  0  0  0  0  0  0  0  0  0  0
    4.0502    4.3091   -1.2189 H   0  0  0  0  0  0  0  0  0  0  0  0
    3.3554    3.2703    0.0156 H   0  0  0  0  0  0  0  0  0  0  0  0
    2.4852    5.1876    0.8553 H   0  0  0  0  0  0  0  0  0  0  0  0
    2.7014    6.0771   -0.6405 H   0  0  0  0  0  0  0  0  0  0  0  0
    0.2681    5.6988    0.1690 H   0  0  0  0  0  0  0  0  0  0  0  0
    0.6246    5.4284   -1.5291 H   0  0  0  0  0  0  0  0  0  0  0  0
   -0.7527    3.6244   -0.6888 H   0  0  0  0  0  0  0  0  0  0  0  0
    0.3850    3.2879    0.6352 H   0  0  0  0  0  0  0  0  0  0  0  0
  1  2  1  0
  2  3  1  0
  3  4  1  0
  4  5  1  0
  5  6  1  0
  6  7  1  0
  4  8  1  0
  8  9  2  0
  9 10  1  0
 10 11  1  0
 11 12  1  0
 12 13  1  0
 13 14  1  0
 14 15  1  0
 15 16  1  0
 10 17  2  0
 17 18  1  0
 18 19  2  0
 19 20  1  0
 20 21  1  0
 21 22  1  0
 22 23  1  0
 20 24  1  0
 24 25  1  0
 25 26  1  0
 19 27  1  0
 27 28  2  0
 28 29  1  0
 29 30  1  0
 30 31  1  0
 31 32  1  0
 32 33  1  0
 33 34  1  0
 28 35  1  0
 35 36  2  0
 36  8  1  0
 16 11  1  0
 35 17  1  0
 34 29  1  0
  1 37  1  0
  2 38  1  0
  2 39  1  0
  3 40  1  0
  3 41  1  0
  5 42  1  0
  5 43  1  0
  6 44  1  0
  6 45  1  0
  7 46  1  0
 12 47  1  0
 12 48  1  0
 13 49  1  0
 13 50  1  0
 14 51  1  0
 14 52  1  0
 15 53  1  0
 15 54  1  0
 16 55  1  0
 16 56  1  0
 21 57  1  0
 21 58  1  0
 22 59  1  0
 22 60  1  0
 23 61  1  0
 24 62  1  0
 24 63  1  0
 25 64  1  0
 25 65  1  0
 26 66  1  0
 30 67  1  0
 30 68  1  0
 31 69  1  0
 31 70  1  0
 32 71  1  0
 32 72  1  0
 33 73  1  0
 33 74  1  0
 34 75  1  0
 34 76  1  0
M  END
$$$$
