
     RDKit          3D

 21 22  0  0  0  0  0  0  0  0999 V2000
    2.7317   -0.6483   -0.0274 C   0  0  0  0  0  0  0  0  0  0  0  0
    1.5874    0.2969    0.1908 C   0  0  0  0  0  0  0  0  0  0  0  0
    1.7906    1.5606    0.5914 C   0  0  0  0  0  0  0  0  0  0  0  0
    0.7043    2.5257    0.8194 C   0  0  0  0  0  0  0  0  0  0  0  0
    0.9494    3.6693    1.1858 O   0  0  0  0  0  0  0  0  0  0  0  0
   -0.5866    2.0780    0.6009 O   0  0  0  0  0  0  0  0  0  0  0  0
   -0.8368    0.7570    0.1798 C   0  0  0  0  0  0  0  0  0  0  0  0
   -2.1773    0.4152   -0.0093 C   0  0  0  0  0  0  0  0  0  0  0  0
   -2.4809   -0.8733   -0.4239 C   0  0  0  0  0  0  0  0  0  0  0  0
   -3.7677   -1.2729   -0.6273 O   0  0  0  0  0  0  0  0  0  0  0  0
   -1.4713   -1.8029   -0.6457 C   0  0  0  0  0  0  0  0  0  0  0  0
   -0.1323   -1.4435   -0.4513 C   0  0  0  0  0  0  0  0  0  0  0  0
    0.2058   -0.1500   -0.0331 C   0  0  0  0  0  0  0  0  0  0  0  0
    2.7575   -0.9948   -1.0660 H   0  0  0  0  0  0  0  0  0  0  0  0
    3.6973   -0.1732    0.1791 H   0  0  0  0  0  0  0  0  0  0  0  0
    2.6507   -1.5168    0.6348 H   0  0  0  0  0  0  0  0  0  0  0  0
    2.7851    1.9522    0.7741 H   0  0  0  0  0  0  0  0  0  0  0  0
   -2.9509    1.1541    0.1689 H   0  0  0  0  0  0  0  0  0  0  0  0
   -4.3617   -0.5280   -0.4360 H   0  0  0  0  0  0  0  0  0  0  0  0
   -1.7241   -2.8091   -0.9704 H   0  0  0  0  0  0  0  0  0  0  0  0
    0.6298   -2.1961   -0.6345 H   0  0  0  0  0  0  0  0  0  0  0  0
  1  2  1  0
  2  3  2  0
  3  4  1  0
  4  5  2  0
  4  6  1  0
  6  7  1  0
  7  8  2  0
  8  9  1  0
  9 10  1  0
  9 11  2  0
 11 12  1  0
 12 13  2  0
 13  2  1  0
 13  7  1  0
  1 14  1  0
  1 15  1  0
  1 16  1  0
  3 17  1  0
  8 18  1  0
 10 19  1  0
 11 20  1  0
 12 21  1  0
M  END
$$$$
