
     RDKit          3D

 29 30  0  0  0  0  0  0  0  0999 V2000
   -4.6760   -0.8445    1.4274 C   0  0  0  0  0  0  0  0  0  0  0  0
   -4.5211    0.6501    0.4175 S   0  0  0  0  0  0  0  0  0  0  0  0
   -3.5540   -0.0202   -0.9804 C   0  0  0  0  0  0  0  0  0  0  0  0
   -2.0875   -0.2928   -0.6407 C   0  0  0  0  0  0  0  0  0  0  0  0
   -1.2481    0.9722   -0.3851 C   0  0  0  0  0  0  0  0  0  0  0  0
   -1.1208    1.7523   -1.6335 N   0  0  0  0  0  0  0  0  0  0  0  0
    0.1000    0.5887    0.1502 C   0  0  0  0  0  0  0  0  0  0  0  0
    1.2451    0.4459   -0.4826 N   0  0  0  0  0  0  0  0  0  0  0  0
    2.0915    0.0819    0.5405 C   0  0  0  0  0  0  0  0  0  0  0  0
    3.6063   -0.2120    0.3113 C   0  0  0  0  0  0  0  0  0  0  0  0
    4.2607   -0.1431   -0.9042 C   0  0  0  0  0  0  0  0  0  0  0  0
    5.6133   -0.4840   -0.6599 C   0  0  0  0  0  0  0  0  0  0  0  0
    5.7031   -0.7403    0.6874 C   0  0  0  0  0  0  0  0  0  0  0  0
    4.4949   -0.5790    1.2844 O   0  0  0  0  0  0  0  0  0  0  0  0
    1.5090   -0.0013    1.7450 N   0  0  0  0  0  0  0  0  0  0  0  0
    0.1815    0.3392    1.4884 O   0  0  0  0  0  0  0  0  0  0  0  0
   -5.3332   -0.6338    2.2754 H   0  0  0  0  0  0  0  0  0  0  0  0
   -3.7031   -1.1512    1.8181 H   0  0  0  0  0  0  0  0  0  0  0  0
   -5.1154   -1.6579    0.8443 H   0  0  0  0  0  0  0  0  0  0  0  0
   -3.6314    0.6896   -1.8101 H   0  0  0  0  0  0  0  0  0  0  0  0
   -4.0353   -0.9453   -1.3157 H   0  0  0  0  0  0  0  0  0  0  0  0
   -2.0256   -0.9686    0.2217 H   0  0  0  0  0  0  0  0  0  0  0  0
   -1.6441   -0.8550   -1.4751 H   0  0  0  0  0  0  0  0  0  0  0  0
   -1.7382    1.6090    0.3592 H   0  0  0  0  0  0  0  0  0  0  0  0
   -0.5040    1.2366   -2.2658 H   0  0  0  0  0  0  0  0  0  0  0  0
   -0.6087    2.6103   -1.4225 H   0  0  0  0  0  0  0  0  0  0  0  0
    3.8077    0.1230   -1.8494 H   0  0  0  0  0  0  0  0  0  0  0  0
    6.4219   -0.5363   -1.3754 H   0  0  0  0  0  0  0  0  0  0  0  0
    6.5116   -1.0333    1.3431 H   0  0  0  0  0  0  0  0  0  0  0  0
  1  2  1  0
  2  3  1  0
  3  4  1  0
  4  5  1  0
  5  6  1  0
  5  7  1  0
  7  8  2  0
  8  9  1  0
  9 10  1  0
 10 11  2  0
 11 12  1  0
 12 13  2  0
 13 14  1  0
  9 15  2  0
 15 16  1  0
 16  7  1  0
 14 10  1  0
  1 17  1  0
  1 18  1  0
  1 19  1  0
  3 20  1  0
  3 21  1  0
  4 22  1  0
  4 23  1  0
  5 24  1  0
  6 25  1  0
  6 26  1  0
 11 27  1  0
 12 28  1  0
 13 29  1  0
M  END
$$$$
