
     RDKit          3D

 61 64  0  0  0  0  0  0  0  0999 V2000
    7.7437    2.5574   -1.8624 C   0  0  0  0  0  0  0  0  0  0  0  0
    7.3779    1.1556   -2.3187 C   0  0  0  0  0  0  0  0  0  0  0  0
    7.4098    0.2403   -1.2258 O   0  0  0  0  0  0  0  0  0  0  0  0
    6.2826    0.0621   -0.4750 C   0  0  0  0  0  0  0  0  0  0  0  0
    5.0899    0.7779   -0.5899 C   0  0  0  0  0  0  0  0  0  0  0  0
    4.0118    0.4899    0.2550 C   0  0  0  0  0  0  0  0  0  0  0  0
    4.1252   -0.5236    1.2116 C   0  0  0  0  0  0  0  0  0  0  0  0
    3.0045   -0.8266    2.1291 C   0  0  0  0  0  0  0  0  0  0  0  0
    3.2177   -0.7678    3.3369 O   0  0  0  0  0  0  0  0  0  0  0  0
    1.7695   -1.1550    1.5845 N   0  0  0  0  0  0  0  0  0  0  0  0
    0.6288   -1.3383    2.4901 C   0  0  0  0  0  0  0  0  0  0  0  0
   -0.7105   -1.0443    1.7927 C   0  0  0  0  0  0  0  0  0  0  0  0
   -0.8758   -1.8446    0.5675 N   0  0  0  0  0  0  0  0  0  0  0  0
   -1.8261   -1.3635   -0.3235 C   0  0  0  0  0  0  0  0  0  0  0  0
   -1.7964   -1.7808   -1.5971 N   0  0  0  0  0  0  0  0  0  0  0  0
   -2.7322   -1.3097   -2.4406 C   0  0  0  0  0  0  0  0  0  0  0  0
   -2.6749   -1.7753   -3.8630 C   0  0  0  0  0  0  0  0  0  0  0  0
   -3.7094   -0.4310   -2.0348 C   0  0  0  0  0  0  0  0  0  0  0  0
   -3.6972   -0.0459   -0.7093 C   0  0  0  0  0  0  0  0  0  0  0  0
   -4.6652    0.8825   -0.2538 N   0  0  0  0  0  0  0  0  0  0  0  0
   -6.0257    0.3191   -0.2913 C   0  0  0  0  0  0  0  0  0  0  0  0
   -7.0434    1.4134    0.0350 C   0  0  0  0  0  0  0  0  0  0  0  0
   -6.7307    2.0887    1.3672 C   0  0  0  0  0  0  0  0  0  0  0  0
   -5.2888    2.5905    1.3891 C   0  0  0  0  0  0  0  0  0  0  0  0
   -4.3115    1.4647    1.0523 C   0  0  0  0  0  0  0  0  0  0  0  0
   -2.7563   -0.5084    0.1321 N   0  0  0  0  0  0  0  0  0  0  0  0
    0.3291   -2.4720    0.0121 C   0  0  0  0  0  0  0  0  0  0  0  0
    1.5539   -1.5556    0.1830 C   0  0  0  0  0  0  0  0  0  0  0  0
    5.3236   -1.2228    1.3529 C   0  0  0  0  0  0  0  0  0  0  0  0
    6.3941   -0.9314    0.5044 C   0  0  0  0  0  0  0  0  0  0  0  0
    7.0171    2.9490   -1.1442 H   0  0  0  0  0  0  0  0  0  0  0  0
    8.7174    2.5564   -1.3597 H   0  0  0  0  0  0  0  0  0  0  0  0
    7.7891    3.2398   -2.7150 H   0  0  0  0  0  0  0  0  0  0  0  0
    8.1407    0.8159   -3.0286 H   0  0  0  0  0  0  0  0  0  0  0  0
    6.4282    1.1280   -2.8632 H   0  0  0  0  0  0  0  0  0  0  0  0
    4.9669    1.5763   -1.3133 H   0  0  0  0  0  0  0  0  0  0  0  0
    3.0969    1.0711    0.1783 H   0  0  0  0  0  0  0  0  0  0  0  0
    0.6597   -2.3769    2.8414 H   0  0  0  0  0  0  0  0  0  0  0  0
    0.7429   -0.6910    3.3664 H   0  0  0  0  0  0  0  0  0  0  0  0
   -0.7238    0.0284    1.5547 H   0  0  0  0  0  0  0  0  0  0  0  0
   -1.5342   -1.2523    2.4858 H   0  0  0  0  0  0  0  0  0  0  0  0
   -3.5922   -2.3116   -4.1220 H   0  0  0  0  0  0  0  0  0  0  0  0
   -2.5544   -0.9227   -4.5375 H   0  0  0  0  0  0  0  0  0  0  0  0
   -1.8297   -2.4533   -4.0192 H   0  0  0  0  0  0  0  0  0  0  0  0
   -4.4391   -0.0384   -2.7297 H   0  0  0  0  0  0  0  0  0  0  0  0
   -6.1193   -0.5030    0.4304 H   0  0  0  0  0  0  0  0  0  0  0  0
   -6.2708   -0.0800   -1.2821 H   0  0  0  0  0  0  0  0  0  0  0  0
   -7.0337    2.1679   -0.7612 H   0  0  0  0  0  0  0  0  0  0  0  0
   -8.0514    0.9858    0.0629 H   0  0  0  0  0  0  0  0  0  0  0  0
   -6.8830    1.3747    2.1855 H   0  0  0  0  0  0  0  0  0  0  0  0
   -7.4203    2.9231    1.5340 H   0  0  0  0  0  0  0  0  0  0  0  0
   -5.0536    3.0037    2.3764 H   0  0  0  0  0  0  0  0  0  0  0  0
   -5.1780    3.4046    0.6609 H   0  0  0  0  0  0  0  0  0  0  0  0
   -3.2988    1.8880    1.0257 H   0  0  0  0  0  0  0  0  0  0  0  0
   -4.3458    0.7040    1.8443 H   0  0  0  0  0  0  0  0  0  0  0  0
    0.2389   -2.7640   -1.0392 H   0  0  0  0  0  0  0  0  0  0  0  0
    0.5038   -3.4045    0.5641 H   0  0  0  0  0  0  0  0  0  0  0  0
    1.4059   -0.6368   -0.3941 H   0  0  0  0  0  0  0  0  0  0  0  0
    2.4478   -2.0625   -0.1944 H   0  0  0  0  0  0  0  0  0  0  0  0
    5.4270   -1.9860    2.1203 H   0  0  0  0  0  0  0  0  0  0  0  0
    7.3280   -1.4791    0.6099 H   0  0  0  0  0  0  0  0  0  0  0  0
  1  2  1  0
  2  3  1  0
  3  4  1  0
  4  5  2  0
  5  6  1  0
  6  7  2  0
  7  8  1  0
  8  9  2  0
  8 10  1  0
 10 11  1  0
 11 12  1  0
 12 13  1  0
 13 14  1  0
 14 15  2  0
 15 16  1  0
 16 17  1  0
 16 18  2  0
 18 19  1  0
 19 20  1  0
 20 21  1  0
 21 22  1  0
 22 23  1  0
 23 24  1  0
 24 25  1  0
 19 26  2  0
 13 27  1  0
 27 28  1  0
  7 29  1  0
 29 30  2  0
 30  4  1  0
 28 10  1  0
 26 14  1  0
 25 20  1  0
  1 31  1  0
  1 32  1  0
  1 33  1  0
  2 34  1  0
  2 35  1  0
  5 36  1  0
  6 37  1  0
 11 38  1  0
 11 39  1  0
 12 40  1  0
 12 41  1  0
 17 42  1  0
 17 43  1  0
 17 44  1  0
 18 45  1  0
 21 46  1  0
 21 47  1  0
 22 48  1  0
 22 49  1  0
 23 50  1  0
 23 51  1  0
 24 52  1  0
 24 53  1  0
 25 54  1  0
 25 55  1  0
 27 56  1  0
 27 57  1  0
 28 58  1  0
 28 59  1  0
 29 60  1  0
 30 61  1  0
M  END
$$$$
