
     RDKit          3D

 52 55  0  0  0  0  0  0  0  0999 V2000
   -0.6311   -3.7628    0.0620 C   0  0  0  0  0  0  0  0  0  0  0  0
   -1.3444   -2.5817    0.6043 C   0  0  0  0  0  0  0  0  0  0  0  0
   -2.0188   -2.4707    1.8266 C   0  0  0  0  0  0  0  0  0  0  0  0
   -2.4846   -1.1748    1.8702 C   0  0  0  0  0  0  0  0  0  0  0  0
   -3.2583   -0.5086    2.9503 C   0  0  0  0  0  0  0  0  0  0  0  0
   -2.0606   -0.5471    0.6916 N   0  0  0  0  0  0  0  0  0  0  0  0
   -2.2862    0.8119    0.2836 C   0  0  0  0  0  0  0  0  0  0  0  0
   -3.0766    1.5436    1.0192 N   0  0  0  0  0  0  0  0  0  0  0  0
   -3.2502    2.8314    0.6404 C   0  0  0  0  0  0  0  0  0  0  0  0
   -2.6786    3.4117   -0.4059 C   0  0  0  0  0  0  0  0  0  0  0  0
   -1.7930    2.6257   -1.2533 C   0  0  0  0  0  0  0  0  0  0  0  0
   -1.2679    3.1565   -2.2290 O   0  0  0  0  0  0  0  0  0  0  0  0
   -1.6398    1.2919   -0.8758 N   0  0  0  0  0  0  0  0  0  0  0  0
   -0.7131    0.5372   -1.7248 C   0  0  0  0  0  0  0  0  0  0  0  0
    0.6554    0.3796   -1.0448 C   0  0  0  0  0  0  0  0  0  0  0  0
    1.0062    1.1069   -0.1190 O   0  0  0  0  0  0  0  0  0  0  0  0
    1.4142   -0.6279   -1.6278 N   0  0  0  0  0  0  0  0  0  0  0  0
    2.7057   -1.0544   -1.2598 C   0  0  0  0  0  0  0  0  0  0  0  0
    3.4628   -0.4718   -0.2426 C   0  0  0  0  0  0  0  0  0  0  0  0
    4.7377   -0.9631    0.0651 C   0  0  0  0  0  0  0  0  0  0  0  0
    5.2763   -2.0358   -0.6510 C   0  0  0  0  0  0  0  0  0  0  0  0
    6.6331   -2.5229   -0.2872 C   0  0  0  0  0  0  0  0  0  0  0  0
    7.3405   -3.1900   -1.2495 N   0  0  0  0  0  0  0  0  0  0  0  0
    7.1215   -2.3114    0.8149 O   0  0  0  0  0  0  0  0  0  0  0  0
    4.5198   -2.6306   -1.6651 C   0  0  0  0  0  0  0  0  0  0  0  0
    3.2439   -2.1389   -1.9662 C   0  0  0  0  0  0  0  0  0  0  0  0
   -3.0402    4.8383   -0.5620 C   0  0  0  0  0  0  0  0  0  0  0  0
   -4.2186    4.9675    0.4117 C   0  0  0  0  0  0  0  0  0  0  0  0
   -4.1118    3.7899    1.3908 C   0  0  0  0  0  0  0  0  0  0  0  0
   -1.3933   -1.4459   -0.0920 N   0  0  0  0  0  0  0  0  0  0  0  0
    0.4468   -3.6623    0.2245 H   0  0  0  0  0  0  0  0  0  0  0  0
   -0.9671   -4.6831    0.5506 H   0  0  0  0  0  0  0  0  0  0  0  0
   -0.8096   -3.8687   -1.0130 H   0  0  0  0  0  0  0  0  0  0  0  0
   -2.1459   -3.2283    2.5879 H   0  0  0  0  0  0  0  0  0  0  0  0
   -4.2441   -0.1954    2.5934 H   0  0  0  0  0  0  0  0  0  0  0  0
   -3.4220   -1.1981    3.7860 H   0  0  0  0  0  0  0  0  0  0  0  0
   -2.7184    0.3564    3.3478 H   0  0  0  0  0  0  0  0  0  0  0  0
   -1.1544   -0.4109   -2.0370 H   0  0  0  0  0  0  0  0  0  0  0  0
   -0.5188    1.0694   -2.6638 H   0  0  0  0  0  0  0  0  0  0  0  0
    0.9562   -1.1709   -2.3489 H   0  0  0  0  0  0  0  0  0  0  0  0
    3.0925    0.3665    0.3397 H   0  0  0  0  0  0  0  0  0  0  0  0
    5.3082   -0.4989    0.8678 H   0  0  0  0  0  0  0  0  0  0  0  0
    7.1106   -3.1068   -2.2290 H   0  0  0  0  0  0  0  0  0  0  0  0
    8.3076   -3.3828   -1.0187 H   0  0  0  0  0  0  0  0  0  0  0  0
    4.8934   -3.4913   -2.2118 H   0  0  0  0  0  0  0  0  0  0  0  0
    2.6755   -2.6234   -2.7566 H   0  0  0  0  0  0  0  0  0  0  0  0
   -2.2076    5.4841   -0.2647 H   0  0  0  0  0  0  0  0  0  0  0  0
   -3.3439    5.0901   -1.5822 H   0  0  0  0  0  0  0  0  0  0  0  0
   -5.1636    4.8991   -0.1434 H   0  0  0  0  0  0  0  0  0  0  0  0
   -4.2193    5.9322    0.9296 H   0  0  0  0  0  0  0  0  0  0  0  0
   -5.0993    3.3767    1.6170 H   0  0  0  0  0  0  0  0  0  0  0  0
   -3.6272    4.0928    2.3250 H   0  0  0  0  0  0  0  0  0  0  0  0
  1  2  1  0
  2  3  1  0
  3  4  2  0
  4  5  1  0
  4  6  1  0
  6  7  1  0
  7  8  2  0
  8  9  1  0
  9 10  2  0
 10 11  1  0
 11 12  2  0
 11 13  1  0
 13 14  1  0
 14 15  1  0
 15 16  2  0
 15 17  1  0
 17 18  1  0
 18 19  2  0
 19 20  1  0
 20 21  2  0
 21 22  1  0
 22 23  1  0
 22 24  2  0
 21 25  1  0
 25 26  2  0
 10 27  1  0
 27 28  1  0
 28 29  1  0
  6 30  1  0
 30  2  2  0
 13  7  1  0
 26 18  1  0
 29  9  1  0
  1 31  1  0
  1 32  1  0
  1 33  1  0
  3 34  1  0
  5 35  1  0
  5 36  1  0
  5 37  1  0
 14 38  1  0
 14 39  1  0
 17 40  1  0
 19 41  1  0
 20 42  1  0
 23 43  1  0
 23 44  1  0
 25 45  1  0
 26 46  1  0
 27 47  1  0
 27 48  1  0
 28 49  1  0
 28 50  1  0
 29 51  1  0
 29 52  1  0
M  END
$$$$
