
     RDKit          3D

 46 49  0  0  0  0  0  0  0  0999 V2000
    8.8134   -1.6481    1.2586 C   0  0  0  0  0  0  0  0  0  0  0  0
    7.4880   -1.0288    1.4238 C   0  0  0  0  0  0  0  0  0  0  0  0
    6.3856   -1.2062    0.7354 N   0  0  0  0  0  0  0  0  0  0  0  0
    5.4998   -0.3533    1.3634 C   0  0  0  0  0  0  0  0  0  0  0  0
    4.1143   -0.2120    0.9290 C   0  0  0  0  0  0  0  0  0  0  0  0
    3.6339   -0.9427   -0.1600 C   0  0  0  0  0  0  0  0  0  0  0  0
    2.3026   -0.8085   -0.5823 C   0  0  0  0  0  0  0  0  0  0  0  0
    1.3990    0.0550    0.0574 C   0  0  0  0  0  0  0  0  0  0  0  0
    0.0839    0.1726   -0.3662 N   0  0  0  0  0  0  0  0  0  0  0  0
   -0.2773   -0.1037   -1.7710 C   0  0  0  0  0  0  0  0  0  0  0  0
   -1.5003    0.7120   -2.2257 C   0  0  0  0  0  0  0  0  0  0  0  0
   -2.6581    0.5484   -1.3461 N   0  0  0  0  0  0  0  0  0  0  0  0
   -3.9171    0.8464   -1.8547 C   0  0  0  0  0  0  0  0  0  0  0  0
   -4.0962    1.3042   -2.9808 O   0  0  0  0  0  0  0  0  0  0  0  0
   -5.1072    0.6057   -1.0072 C   0  0  0  0  0  0  0  0  0  0  0  0
   -5.3473   -0.6539   -0.4470 C   0  0  0  0  0  0  0  0  0  0  0  0
   -6.4858   -0.8575    0.3337 C   0  0  0  0  0  0  0  0  0  0  0  0
   -7.3866    0.1889    0.5403 C   0  0  0  0  0  0  0  0  0  0  0  0
   -7.1588    1.4380   -0.0400 C   0  0  0  0  0  0  0  0  0  0  0  0
   -6.0222    1.6467   -0.8216 C   0  0  0  0  0  0  0  0  0  0  0  0
   -2.3612    0.3223    0.0749 C   0  0  0  0  0  0  0  0  0  0  0  0
   -0.9490    0.7883    0.4818 C   0  0  0  0  0  0  0  0  0  0  0  0
    1.8999    0.7750    1.1527 C   0  0  0  0  0  0  0  0  0  0  0  0
    3.2304    0.6502    1.5827 C   0  0  0  0  0  0  0  0  0  0  0  0
    6.0372    0.3202    2.3956 N   0  0  0  0  0  0  0  0  0  0  0  0
    7.3556   -0.1267    2.4350 O   0  0  0  0  0  0  0  0  0  0  0  0
    8.7779   -2.4417    0.5064 H   0  0  0  0  0  0  0  0  0  0  0  0
    9.5458   -0.9024    0.9357 H   0  0  0  0  0  0  0  0  0  0  0  0
    9.1553   -2.0860    2.2009 H   0  0  0  0  0  0  0  0  0  0  0  0
    4.2875   -1.6311   -0.6922 H   0  0  0  0  0  0  0  0  0  0  0  0
    1.9800   -1.4225   -1.4190 H   0  0  0  0  0  0  0  0  0  0  0  0
   -0.4960   -1.1737   -1.8709 H   0  0  0  0  0  0  0  0  0  0  0  0
    0.5506    0.1413   -2.4473 H   0  0  0  0  0  0  0  0  0  0  0  0
   -1.7738    0.4327   -3.2494 H   0  0  0  0  0  0  0  0  0  0  0  0
   -1.2553    1.7815   -2.2321 H   0  0  0  0  0  0  0  0  0  0  0  0
   -4.6632   -1.4781   -0.6299 H   0  0  0  0  0  0  0  0  0  0  0  0
   -6.6787   -1.8341    0.7710 H   0  0  0  0  0  0  0  0  0  0  0  0
   -8.2768    0.0267    1.1436 H   0  0  0  0  0  0  0  0  0  0  0  0
   -7.8712    2.2457    0.1087 H   0  0  0  0  0  0  0  0  0  0  0  0
   -5.8504    2.6138   -1.2885 H   0  0  0  0  0  0  0  0  0  0  0  0
   -2.4484   -0.7571    0.2457 H   0  0  0  0  0  0  0  0  0  0  0  0
   -3.1035    0.8296    0.6989 H   0  0  0  0  0  0  0  0  0  0  0  0
   -0.8057    0.5148    1.5339 H   0  0  0  0  0  0  0  0  0  0  0  0
   -0.8818    1.8800    0.3976 H   0  0  0  0  0  0  0  0  0  0  0  0
    1.2692    1.4768    1.6911 H   0  0  0  0  0  0  0  0  0  0  0  0
    3.5619    1.2414    2.4339 H   0  0  0  0  0  0  0  0  0  0  0  0
  1  2  1  0
  2  3  2  0
  3  4  1  0
  4  5  1  0
  5  6  2  0
  6  7  1  0
  7  8  2  0
  8  9  1  0
  9 10  1  0
 10 11  1  0
 11 12  1  0
 12 13  1  0
 13 14  2  0
 13 15  1  0
 15 16  2  0
 16 17  1  0
 17 18  2  0
 18 19  1  0
 19 20  2  0
 12 21  1  0
 21 22  1  0
  8 23  1  0
 23 24  2  0
  4 25  2  0
 25 26  1  0
 26  2  1  0
 24  5  1  0
 22  9  1  0
 20 15  1  0
  1 27  1  0
  1 28  1  0
  1 29  1  0
  6 30  1  0
  7 31  1  0
 10 32  1  0
 10 33  1  0
 11 34  1  0
 11 35  1  0
 16 36  1  0
 17 37  1  0
 18 38  1  0
 19 39  1  0
 20 40  1  0
 21 41  1  0
 21 42  1  0
 22 43  1  0
 22 44  1  0
 23 45  1  0
 24 46  1  0
M  END
$$$$
