
     RDKit          3D

 38 40  0  0  0  0  0  0  0  0999 V2000
    4.1270    2.4447   -2.5737 O   0  0  0  0  0  0  0  0  0  0  0  0
    3.5295    1.7722   -1.7415 C   0  0  0  0  0  0  0  0  0  0  0  0
    2.1645    2.1032   -1.2657 C   0  0  0  0  0  0  0  0  0  0  0  0
    1.4771    3.5595   -1.9297 Cl  0  0  0  0  0  0  0  0  0  0  0  0
    1.4686    1.3626   -0.3804 C   0  0  0  0  0  0  0  0  0  0  0  0
    0.1876    1.7269    0.0500 N   0  0  0  0  0  0  0  0  0  0  0  0
   -0.7287    1.0476    0.9583 C   0  0  0  0  0  0  0  0  0  0  0  0
   -1.5484   -0.0378    0.2275 C   0  0  0  0  0  0  0  0  0  0  0  0
   -2.6442   -0.5873    1.0461 N   0  0  0  0  0  0  0  0  0  0  0  0
   -3.8144    0.3110    1.1400 C   0  0  0  0  0  0  0  0  0  0  0  0
   -4.9985   -0.1221    0.2588 C   0  0  0  0  0  0  0  0  0  0  0  0
   -5.4741   -1.4406    0.5568 O   0  0  0  0  0  0  0  0  0  0  0  0
   -4.4447   -2.3112    1.0484 C   0  0  0  0  0  0  0  0  0  0  0  0
   -3.0466   -1.9204    0.5483 C   0  0  0  0  0  0  0  0  0  0  0  0
    2.1186    0.0987    0.1467 C   0  0  0  0  0  0  0  0  0  0  0  0
    1.5235   -0.6724    0.8944 O   0  0  0  0  0  0  0  0  0  0  0  0
    3.5104   -0.2106   -0.2707 C   0  0  0  0  0  0  0  0  0  0  0  0
    4.0729   -1.3232    0.2799 N   0  0  0  0  0  0  0  0  0  0  0  0
    5.3350   -1.6340   -0.0862 C   0  0  0  0  0  0  0  0  0  0  0  0
    6.0738   -0.8855   -0.9851 C   0  0  0  0  0  0  0  0  0  0  0  0
    5.4821    0.2461   -1.5393 C   0  0  0  0  0  0  0  0  0  0  0  0
    4.1754    0.5905   -1.1736 C   0  0  0  0  0  0  0  0  0  0  0  0
   -0.1938    2.5558   -0.4035 H   0  0  0  0  0  0  0  0  0  0  0  0
   -1.4029    1.8148    1.3556 H   0  0  0  0  0  0  0  0  0  0  0  0
   -0.2093    0.6394    1.8314 H   0  0  0  0  0  0  0  0  0  0  0  0
   -0.8571   -0.8445   -0.0462 H   0  0  0  0  0  0  0  0  0  0  0  0
   -1.9416    0.3552   -0.7197 H   0  0  0  0  0  0  0  0  0  0  0  0
   -4.1434    0.2921    2.1866 H   0  0  0  0  0  0  0  0  0  0  0  0
   -3.5558    1.3515    0.9154 H   0  0  0  0  0  0  0  0  0  0  0  0
   -5.8388    0.5660    0.3970 H   0  0  0  0  0  0  0  0  0  0  0  0
   -4.7236   -0.0890   -0.8021 H   0  0  0  0  0  0  0  0  0  0  0  0
   -4.6920   -3.3263    0.7213 H   0  0  0  0  0  0  0  0  0  0  0  0
   -4.4846   -2.3034    2.1440 H   0  0  0  0  0  0  0  0  0  0  0  0
   -2.3157   -2.6639    0.8848 H   0  0  0  0  0  0  0  0  0  0  0  0
   -3.0585   -1.9296   -0.5500 H   0  0  0  0  0  0  0  0  0  0  0  0
    5.7468   -2.5277    0.3762 H   0  0  0  0  0  0  0  0  0  0  0  0
    7.0858   -1.1758   -1.2495 H   0  0  0  0  0  0  0  0  0  0  0  0
    6.0381    0.8544   -2.2506 H   0  0  0  0  0  0  0  0  0  0  0  0
  1  2  2  0
  2  3  1  0
  3  4  1  0
  3  5  2  0
  5  6  1  0
  6  7  1  0
  7  8  1  0
  8  9  1  0
  9 10  1  0
 10 11  1  0
 11 12  1  0
 12 13  1  0
 13 14  1  0
  5 15  1  0
 15 16  2  0
 15 17  1  0
 17 18  2  0
 18 19  1  0
 19 20  2  0
 20 21  1  0
 21 22  2  0
 22  2  1  0
 14  9  1  0
 22 17  1  0
  6 23  1  0
  7 24  1  0
  7 25  1  0
  8 26  1  0
  8 27  1  0
 10 28  1  0
 10 29  1  0
 11 30  1  0
 11 31  1  0
 13 32  1  0
 13 33  1  0
 14 34  1  0
 14 35  1  0
 19 36  1  0
 20 37  1  0
 21 38  1  0
M  END
$$$$
