
     RDKit          3D

 57 60  0  0  0  0  0  0  0  0999 V2000
   -9.3670    3.0145    0.2137 C   0  0  0  0  0  0  0  0  0  0  0  0
   -8.5889    2.4723   -0.8473 O   0  0  0  0  0  0  0  0  0  0  0  0
   -7.5121    1.7088   -0.4954 C   0  0  0  0  0  0  0  0  0  0  0  0
   -7.1131    1.3944    0.7998 C   0  0  0  0  0  0  0  0  0  0  0  0
   -5.9788    0.5965    1.0186 C   0  0  0  0  0  0  0  0  0  0  0  0
   -5.2165    0.0940   -0.0458 C   0  0  0  0  0  0  0  0  0  0  0  0
   -4.0559   -0.7455    0.1682 N   0  0  0  0  0  0  0  0  0  0  0  0
   -3.6985   -1.7144   -0.7877 C   0  0  0  0  0  0  0  0  0  0  0  0
   -2.6294   -2.5110   -0.6462 C   0  0  0  0  0  0  0  0  0  0  0  0
   -1.8371   -2.3880    0.4769 N   0  0  0  0  0  0  0  0  0  0  0  0
   -0.7071   -3.0267    0.9170 C   0  0  0  0  0  0  0  0  0  0  0  0
    0.0926   -4.2819    0.0360 S   0  0  0  0  0  0  0  0  0  0  0  0
    1.7574   -3.5525   -0.0537 C   0  0  0  0  0  0  0  0  0  0  0  0
    1.7580   -2.2253   -0.8059 C   0  0  0  0  0  0  0  0  0  0  0  0
    0.8615   -1.8595   -1.5645 O   0  0  0  0  0  0  0  0  0  0  0  0
    2.8927   -1.4738   -0.5800 N   0  0  0  0  0  0  0  0  0  0  0  0
    2.9810   -0.1124   -1.0593 C   0  0  0  0  0  0  0  0  0  0  0  0
    4.3872    0.4282   -0.9793 C   0  0  0  0  0  0  0  0  0  0  0  0
    4.9778    0.9857   -2.1221 C   0  0  0  0  0  0  0  0  0  0  0  0
    6.2680    1.5104   -2.0693 C   0  0  0  0  0  0  0  0  0  0  0  0
    6.9948    1.4768   -0.8772 C   0  0  0  0  0  0  0  0  0  0  0  0
    6.4358    0.9225    0.2778 C   0  0  0  0  0  0  0  0  0  0  0  0
    7.0902    0.8186    1.4777 O   0  0  0  0  0  0  0  0  0  0  0  0
    8.4900    1.0669    1.4800 C   0  0  0  0  0  0  0  0  0  0  0  0
    5.1159    0.4318    0.2269 C   0  0  0  0  0  0  0  0  0  0  0  0
    4.5056   -0.1401    1.3207 O   0  0  0  0  0  0  0  0  0  0  0  0
    4.3480    0.7877    2.3959 C   0  0  0  0  0  0  0  0  0  0  0  0
   -0.3128   -2.5168    2.0630 N   0  0  0  0  0  0  0  0  0  0  0  0
   -1.2129   -1.5296    2.4087 N   0  0  0  0  0  0  0  0  0  0  0  0
   -2.1161   -1.4666    1.4497 C   0  0  0  0  0  0  0  0  0  0  0  0
   -3.2498   -0.5671    1.3534 C   0  0  0  0  0  0  0  0  0  0  0  0
   -3.4603    0.2920    2.2081 O   0  0  0  0  0  0  0  0  0  0  0  0
   -5.6368    0.4210   -1.3461 C   0  0  0  0  0  0  0  0  0  0  0  0
   -6.7664    1.2189   -1.5653 C   0  0  0  0  0  0  0  0  0  0  0  0
  -10.1849    3.5896   -0.2319 H   0  0  0  0  0  0  0  0  0  0  0  0
   -8.7734    3.6997    0.8272 H   0  0  0  0  0  0  0  0  0  0  0  0
   -9.8133    2.2210    0.8232 H   0  0  0  0  0  0  0  0  0  0  0  0
   -7.6581    1.7465    1.6703 H   0  0  0  0  0  0  0  0  0  0  0  0
   -5.7359    0.3581    2.0515 H   0  0  0  0  0  0  0  0  0  0  0  0
   -4.3413   -1.8358   -1.6540 H   0  0  0  0  0  0  0  0  0  0  0  0
   -2.3558   -3.2587   -1.3819 H   0  0  0  0  0  0  0  0  0  0  0  0
    2.1481   -3.4133    0.9603 H   0  0  0  0  0  0  0  0  0  0  0  0
    2.4146   -4.2467   -0.5876 H   0  0  0  0  0  0  0  0  0  0  0  0
    3.4333   -1.6623    0.2585 H   0  0  0  0  0  0  0  0  0  0  0  0
    2.6065   -0.0815   -2.0884 H   0  0  0  0  0  0  0  0  0  0  0  0
    2.3115    0.5077   -0.4520 H   0  0  0  0  0  0  0  0  0  0  0  0
    4.4341    1.0139   -3.0644 H   0  0  0  0  0  0  0  0  0  0  0  0
    6.7132    1.9415   -2.9627 H   0  0  0  0  0  0  0  0  0  0  0  0
    7.9972    1.8906   -0.8850 H   0  0  0  0  0  0  0  0  0  0  0  0
    9.0103    0.4217    0.7640 H   0  0  0  0  0  0  0  0  0  0  0  0
    8.8696    0.8292    2.4785 H   0  0  0  0  0  0  0  0  0  0  0  0
    8.6997    2.1250    1.2893 H   0  0  0  0  0  0  0  0  0  0  0  0
    4.2742    1.8279    2.0544 H   0  0  0  0  0  0  0  0  0  0  0  0
    3.4163    0.5388    2.9139 H   0  0  0  0  0  0  0  0  0  0  0  0
    5.1683    0.6757    3.1116 H   0  0  0  0  0  0  0  0  0  0  0  0
   -5.0724    0.1122   -2.2206 H   0  0  0  0  0  0  0  0  0  0  0  0
   -7.0586    1.4700   -2.5825 H   0  0  0  0  0  0  0  0  0  0  0  0
  1  2  1  0
  2  3  1  0
  3  4  2  0
  4  5  1  0
  5  6  2  0
  6  7  1  0
  7  8  1  0
  8  9  2  0
  9 10  1  0
 10 11  1  0
 11 12  1  0
 12 13  1  0
 13 14  1  0
 14 15  2  0
 14 16  1  0
 16 17  1  0
 17 18  1  0
 18 19  2  0
 19 20  1  0
 20 21  2  0
 21 22  1  0
 22 23  1  0
 23 24  1  0
 22 25  2  0
 25 26  1  0
 26 27  1  0
 11 28  2  0
 28 29  1  0
 29 30  2  0
 30 31  1  0
 31 32  2  0
  6 33  1  0
 33 34  2  0
 34  3  1  0
 31  7  1  0
 30 10  1  0
 25 18  1  0
  1 35  1  0
  1 36  1  0
  1 37  1  0
  4 38  1  0
  5 39  1  0
  8 40  1  0
  9 41  1  0
 13 42  1  0
 13 43  1  0
 16 44  1  0
 17 45  1  0
 17 46  1  0
 19 47  1  0
 20 48  1  0
 21 49  1  0
 24 50  1  0
 24 51  1  0
 24 52  1  0
 27 53  1  0
 27 54  1  0
 27 55  1  0
 33 56  1  0
 34 57  1  0
M  END
$$$$
