
     RDKit          3D

 56 58  0  0  0  0  0  0  0  0999 V2000
   -3.0203   -0.6254    2.8625 C   0  0  0  0  0  0  0  0  0  0  0  0
   -2.1284    0.2245    1.9715 C   0  0  0  0  0  0  0  0  0  0  0  0
   -2.9143    1.0582    1.0568 N   0  0  0  0  0  0  0  0  0  0  0  0
   -3.3436    2.3656    1.5488 C   0  0  0  0  0  0  0  0  0  0  0  0
   -2.3073    3.4456    1.2781 C   0  0  0  0  0  0  0  0  0  0  0  0
   -3.1807    0.7511   -0.2760 C   0  0  0  0  0  0  0  0  0  0  0  0
   -3.8178    1.4675   -1.0448 O   0  0  0  0  0  0  0  0  0  0  0  0
   -2.7741   -0.5598   -0.8007 C   0  0  0  0  0  0  0  0  0  0  0  0
   -3.7606   -1.5477   -0.8011 C   0  0  0  0  0  0  0  0  0  0  0  0
   -3.4453   -2.7821   -1.3332 C   0  0  0  0  0  0  0  0  0  0  0  0
   -4.4635   -3.8815   -1.3606 C   0  0  0  0  0  0  0  0  0  0  0  0
   -2.2258   -3.0460   -1.8530 N   0  0  0  0  0  0  0  0  0  0  0  0
   -1.2798   -2.0681   -1.8656 C   0  0  0  0  0  0  0  0  0  0  0  0
   -1.5153   -0.8068   -1.3522 C   0  0  0  0  0  0  0  0  0  0  0  0
   -0.4322    0.1833   -1.3975 C   0  0  0  0  0  0  0  0  0  0  0  0
   -0.5779    1.3000   -0.9113 O   0  0  0  0  0  0  0  0  0  0  0  0
    0.7575   -0.2161   -1.9885 N   0  0  0  0  0  0  0  0  0  0  0  0
    1.8713    0.7199   -1.9318 C   0  0  0  0  0  0  0  0  0  0  0  0
    2.6260    0.5483   -0.6041 C   0  0  0  0  0  0  0  0  0  0  0  0
    2.2695   -0.2568    0.2529 O   0  0  0  0  0  0  0  0  0  0  0  0
    3.7168    1.4055   -0.5168 N   0  0  0  0  0  0  0  0  0  0  0  0
    4.6348    1.5239    0.5489 C   0  0  0  0  0  0  0  0  0  0  0  0
    4.5857    0.7544    1.7139 C   0  0  0  0  0  0  0  0  0  0  0  0
    5.5354    0.9319    2.7264 C   0  0  0  0  0  0  0  0  0  0  0  0
    6.5439    1.8815    2.5828 C   0  0  0  0  0  0  0  0  0  0  0  0
    6.5976    2.6499    1.4244 C   0  0  0  0  0  0  0  0  0  0  0  0
    7.8406    3.8261    1.2375 Cl  0  0  0  0  0  0  0  0  0  0  0  0
    5.6526    2.4764    0.4113 C   0  0  0  0  0  0  0  0  0  0  0  0
    1.0144   -1.4840   -2.4837 C   0  0  0  0  0  0  0  0  0  0  0  0
    2.1159   -1.7765   -2.9540 O   0  0  0  0  0  0  0  0  0  0  0  0
   -0.0266   -2.3862   -2.4278 N   0  0  0  0  0  0  0  0  0  0  0  0
    0.1584   -3.7398   -2.9303 C   0  0  0  0  0  0  0  0  0  0  0  0
   -3.6775   -0.0012    3.4762 H   0  0  0  0  0  0  0  0  0  0  0  0
   -2.4115   -1.2400    3.5328 H   0  0  0  0  0  0  0  0  0  0  0  0
   -3.6541   -1.2917    2.2694 H   0  0  0  0  0  0  0  0  0  0  0  0
   -1.4943    0.8767    2.5820 H   0  0  0  0  0  0  0  0  0  0  0  0
   -1.4573   -0.4308    1.4113 H   0  0  0  0  0  0  0  0  0  0  0  0
   -4.2853    2.6433    1.0617 H   0  0  0  0  0  0  0  0  0  0  0  0
   -3.5470    2.2927    2.6226 H   0  0  0  0  0  0  0  0  0  0  0  0
   -2.6532    4.4089    1.6653 H   0  0  0  0  0  0  0  0  0  0  0  0
   -2.1233    3.5559    0.2046 H   0  0  0  0  0  0  0  0  0  0  0  0
   -1.3524    3.2073    1.7573 H   0  0  0  0  0  0  0  0  0  0  0  0
   -4.7505   -1.3422   -0.4040 H   0  0  0  0  0  0  0  0  0  0  0  0
   -4.7915   -4.1187   -0.3438 H   0  0  0  0  0  0  0  0  0  0  0  0
   -5.3298   -3.5797   -1.9574 H   0  0  0  0  0  0  0  0  0  0  0  0
   -4.0435   -4.7901   -1.8039 H   0  0  0  0  0  0  0  0  0  0  0  0
    2.5664    0.5444   -2.7599 H   0  0  0  0  0  0  0  0  0  0  0  0
    1.5081    1.7513   -1.9987 H   0  0  0  0  0  0  0  0  0  0  0  0
    3.8745    2.0233   -1.3040 H   0  0  0  0  0  0  0  0  0  0  0  0
    3.8198    0.0007    1.8699 H   0  0  0  0  0  0  0  0  0  0  0  0
    5.4830    0.3238    3.6265 H   0  0  0  0  0  0  0  0  0  0  0  0
    7.2788    2.0151    3.3717 H   0  0  0  0  0  0  0  0  0  0  0  0
    5.7204    3.0913   -0.4818 H   0  0  0  0  0  0  0  0  0  0  0  0
    1.1555   -3.8832   -3.3559 H   0  0  0  0  0  0  0  0  0  0  0  0
    0.0348   -4.4525   -2.1083 H   0  0  0  0  0  0  0  0  0  0  0  0
   -0.5766   -3.9412   -3.7166 H   0  0  0  0  0  0  0  0  0  0  0  0
  1  2  1  0
  2  3  1  0
  3  4  1  0
  4  5  1  0
  3  6  1  0
  6  7  2  0
  6  8  1  0
  8  9  2  0
  9 10  1  0
 10 11  1  0
 10 12  2  0
 12 13  1  0
 13 14  2  0
 14 15  1  0
 15 16  2  0
 15 17  1  0
 17 18  1  0
 18 19  1  0
 19 20  2  0
 19 21  1  0
 21 22  1  0
 22 23  2  0
 23 24  1  0
 24 25  2  0
 25 26  1  0
 26 27  1  0
 26 28  2  0
 17 29  1  0
 29 30  2  0
 29 31  1  0
 31 32  1  0
 14  8  1  0
 28 22  1  0
 31 13  1  0
  1 33  1  0
  1 34  1  0
  1 35  1  0
  2 36  1  0
  2 37  1  0
  4 38  1  0
  4 39  1  0
  5 40  1  0
  5 41  1  0
  5 42  1  0
  9 43  1  0
 11 44  1  0
 11 45  1  0
 11 46  1  0
 18 47  1  0
 18 48  1  0
 21 49  1  0
 23 50  1  0
 24 51  1  0
 25 52  1  0
 28 53  1  0
 32 54  1  0
 32 55  1  0
 32 56  1  0
M  END
$$$$
