
     RDKit          3D

 61 64  0  0  0  0  0  0  0  0999 V2000
   -0.2547   -2.3746    3.7119 C   0  0  0  0  0  0  0  0  0  0  0  0
   -0.4777   -0.9221    4.0995 C   0  0  0  0  0  0  0  0  0  0  0  0
   -0.5227   -0.0988    2.9252 O   0  0  0  0  0  0  0  0  0  0  0  0
   -1.7246   -0.0418    2.3009 C   0  0  0  0  0  0  0  0  0  0  0  0
   -2.7681   -0.5678    2.6502 O   0  0  0  0  0  0  0  0  0  0  0  0
   -1.5654    0.7525    1.0741 C   0  0  0  0  0  0  0  0  0  0  0  0
   -1.2724    0.1651   -0.0987 C   0  0  0  0  0  0  0  0  0  0  0  0
   -1.1177   -1.2881   -0.2621 C   0  0  0  0  0  0  0  0  0  0  0  0
   -2.2412   -2.1106   -0.4030 C   0  0  0  0  0  0  0  0  0  0  0  0
   -2.0873   -3.4878   -0.5742 C   0  0  0  0  0  0  0  0  0  0  0  0
   -0.8110   -4.0488   -0.6104 C   0  0  0  0  0  0  0  0  0  0  0  0
    0.3122   -3.2359   -0.4669 C   0  0  0  0  0  0  0  0  0  0  0  0
    0.1587   -1.8595   -0.2898 C   0  0  0  0  0  0  0  0  0  0  0  0
   -1.0792    0.9344   -1.2231 N   0  0  0  0  0  0  0  0  0  0  0  0
   -1.0435    2.3143   -1.2354 C   0  0  0  0  0  0  0  0  0  0  0  0
   -0.5997    3.1170   -2.7382 S   0  0  0  0  0  0  0  0  0  0  0  0
    1.0929    3.6751   -2.3615 C   0  0  0  0  0  0  0  0  0  0  0  0
    1.9397    2.5685   -1.7525 C   0  0  0  0  0  0  0  0  0  0  0  0
    2.3808    2.6851   -0.6143 O   0  0  0  0  0  0  0  0  0  0  0  0
    2.1404    1.4974   -2.6126 N   0  0  0  0  0  0  0  0  0  0  0  0
    2.8443    0.3055   -2.3459 C   0  0  0  0  0  0  0  0  0  0  0  0
    3.5229    0.0480   -1.1534 C   0  0  0  0  0  0  0  0  0  0  0  0
    4.1744   -1.1751   -0.9540 C   0  0  0  0  0  0  0  0  0  0  0  0
    4.1636   -2.1596   -1.9486 C   0  0  0  0  0  0  0  0  0  0  0  0
    4.8553   -3.4694   -1.7169 C   0  0  0  0  0  0  0  0  0  0  0  0
    3.4961   -1.8980   -3.1463 C   0  0  0  0  0  0  0  0  0  0  0  0
    2.8433   -0.6751   -3.3444 C   0  0  0  0  0  0  0  0  0  0  0  0
   -1.3533    2.9993   -0.1048 C   0  0  0  0  0  0  0  0  0  0  0  0
   -1.3124    4.4255   -0.0280 C   0  0  0  0  0  0  0  0  0  0  0  0
   -1.2518    5.5828    0.0322 N   0  0  0  0  0  0  0  0  0  0  0  0
   -1.7373    2.2532    1.1878 C   0  0  0  0  0  0  0  0  0  0  0  0
   -3.1186    2.6210    1.6662 C   0  0  0  0  0  0  0  0  0  0  0  0
   -4.3871    2.4140    1.1606 C   0  0  0  0  0  0  0  0  0  0  0  0
   -5.2842    2.9508    2.1142 C   0  0  0  0  0  0  0  0  0  0  0  0
   -4.5100    3.4616    3.1273 C   0  0  0  0  0  0  0  0  0  0  0  0
   -3.1926    3.2728    2.8616 O   0  0  0  0  0  0  0  0  0  0  0  0
    0.6149   -2.4729    3.0533 H   0  0  0  0  0  0  0  0  0  0  0  0
   -1.1154   -2.7713    3.1635 H   0  0  0  0  0  0  0  0  0  0  0  0
   -0.0974   -2.9941    4.6006 H   0  0  0  0  0  0  0  0  0  0  0  0
   -1.3851   -0.8027    4.7034 H   0  0  0  0  0  0  0  0  0  0  0  0
    0.3615   -0.5682    4.7066 H   0  0  0  0  0  0  0  0  0  0  0  0
   -3.2419   -1.6856   -0.3717 H   0  0  0  0  0  0  0  0  0  0  0  0
   -2.9624   -4.1228   -0.6757 H   0  0  0  0  0  0  0  0  0  0  0  0
   -0.6944   -5.1211   -0.7443 H   0  0  0  0  0  0  0  0  0  0  0  0
    1.3082   -3.6713   -0.4904 H   0  0  0  0  0  0  0  0  0  0  0  0
    1.0405   -1.2380   -0.1646 H   0  0  0  0  0  0  0  0  0  0  0  0
   -0.7856    0.4612   -2.0719 H   0  0  0  0  0  0  0  0  0  0  0  0
    1.0642    4.5241   -1.6743 H   0  0  0  0  0  0  0  0  0  0  0  0
    1.5685    4.0163   -3.2859 H   0  0  0  0  0  0  0  0  0  0  0  0
    1.6963    1.5627   -3.5225 H   0  0  0  0  0  0  0  0  0  0  0  0
    3.5661    0.7761   -0.3514 H   0  0  0  0  0  0  0  0  0  0  0  0
    4.6907   -1.3498   -0.0111 H   0  0  0  0  0  0  0  0  0  0  0  0
    4.3888   -3.9998   -0.8783 H   0  0  0  0  0  0  0  0  0  0  0  0
    4.7951   -4.1150   -2.6014 H   0  0  0  0  0  0  0  0  0  0  0  0
    5.9125   -3.3025   -1.4950 H   0  0  0  0  0  0  0  0  0  0  0  0
    3.4754   -2.6403   -3.9402 H   0  0  0  0  0  0  0  0  0  0  0  0
    2.3319   -0.5100   -4.2897 H   0  0  0  0  0  0  0  0  0  0  0  0
   -1.0188    2.5872    1.9530 H   0  0  0  0  0  0  0  0  0  0  0  0
   -4.6324    1.9042    0.2384 H   0  0  0  0  0  0  0  0  0  0  0  0
   -6.3640    2.9440    2.0723 H   0  0  0  0  0  0  0  0  0  0  0  0
   -4.7290    3.9587    4.0623 H   0  0  0  0  0  0  0  0  0  0  0  0
  1  2  1  0
  2  3  1  0
  3  4  1  0
  4  5  2  0
  4  6  1  0
  6  7  2  0
  7  8  1  0
  8  9  2  0
  9 10  1  0
 10 11  2  0
 11 12  1  0
 12 13  2  0
  7 14  1  0
 14 15  1  0
 15 16  1  0
 16 17  1  0
 17 18  1  0
 18 19  2  0
 18 20  1  0
 20 21  1  0
 21 22  2  0
 22 23  1  0
 23 24  2  0
 24 25  1  0
 24 26  1  0
 26 27  2  0
 15 28  2  0
 28 29  1  0
 29 30  3  0
 28 31  1  0
 31 32  1  0
 32 33  2  0
 33 34  1  0
 34 35  2  0
 35 36  1  0
 31  6  1  0
 36 32  1  0
 13  8  1  0
 27 21  1  0
  1 37  1  0
  1 38  1  0
  1 39  1  0
  2 40  1  0
  2 41  1  0
  9 42  1  0
 10 43  1  0
 11 44  1  0
 12 45  1  0
 13 46  1  0
 14 47  1  0
 17 48  1  0
 17 49  1  0
 20 50  1  0
 22 51  1  0
 23 52  1  0
 25 53  1  0
 25 54  1  0
 25 55  1  0
 26 56  1  0
 27 57  1  0
 31 58  1  0
 33 59  1  0
 34 60  1  0
 35 61  1  0
M  END
$$$$
