
     RDKit          3D

 12 12  0  0  0  0  0  0  0  0999 V2000
   -2.3464   -1.2265   -0.0430 O   0  0  0  0  0  0  0  0  0  0  0  0
   -1.2604   -0.6591   -0.0231 C   0  0  0  0  0  0  0  0  0  0  0  0
   -0.0783   -1.3552   -0.0051 N   0  0  0  0  0  0  0  0  0  0  0  0
    1.1527   -0.7545    0.0173 C   0  0  0  0  0  0  0  0  0  0  0  0
    1.2604    0.5744    0.0229 C   0  0  0  0  0  0  0  0  0  0  0  0
    2.4483    1.2049    0.0446 F   0  0  0  0  0  0  0  0  0  0  0  0
    0.0361    1.4071    0.0046 C   0  0  0  0  0  0  0  0  0  0  0  0
    0.0695    2.6324    0.0086 O   0  0  0  0  0  0  0  0  0  0  0  0
   -1.1444    0.7052   -0.0173 N   0  0  0  0  0  0  0  0  0  0  0  0
   -0.1608   -2.3664   -0.0094 H   0  0  0  0  0  0  0  0  0  0  0  0
    2.0224   -1.4015    0.0302 H   0  0  0  0  0  0  0  0  0  0  0  0
   -1.9993    1.2393   -0.0302 H   0  0  0  0  0  0  0  0  0  0  0  0
  1  2  2  0
  2  3  1  0
  3  4  1  0
  4  5  2  0
  5  6  1  0
  5  7  1  0
  7  8  2  0
  7  9  1  0
  9  2  1  0
  3 10  1  0
  4 11  1  0
  9 12  1  0
M  END
$$$$
