
     RDKit          3D

 47 50  0  0  0  0  0  0  0  0999 V2000
   -3.9104    3.0829   -0.3292 C   0  0  0  0  0  0  0  0  0  0  0  0
   -3.6965    1.6888    0.0091 N   0  0  0  0  0  0  0  0  0  0  0  0
   -2.4872    1.3492    0.7227 C   0  0  0  0  0  0  0  0  0  0  0  0
   -1.5363    0.7290   -0.2840 C   0  0  0  0  0  0  0  0  0  0  0  0
   -0.5447    1.3459   -0.6911 O   0  0  0  0  0  0  0  0  0  0  0  0
   -1.8026   -0.5865   -0.6718 N   0  0  0  0  0  0  0  0  0  0  0  0
   -0.7589   -1.2360   -1.4721 C   0  0  0  0  0  0  0  0  0  0  0  0
    0.4256   -1.6531   -0.5861 C   0  0  0  0  0  0  0  0  0  0  0  0
    0.4282   -2.7312    0.0050 O   0  0  0  0  0  0  0  0  0  0  0  0
    1.3956   -0.6640   -0.4963 N   0  0  0  0  0  0  0  0  0  0  0  0
    2.6099   -0.7044    0.2130 C   0  0  0  0  0  0  0  0  0  0  0  0
    2.9994   -1.7648    1.0332 C   0  0  0  0  0  0  0  0  0  0  0  0
    4.2321   -1.7277    1.6869 C   0  0  0  0  0  0  0  0  0  0  0  0
    5.0898   -0.6309    1.5186 C   0  0  0  0  0  0  0  0  0  0  0  0
    4.7178    0.4454    0.7036 C   0  0  0  0  0  0  0  0  0  0  0  0
    5.5986    1.5906    0.5139 C   0  0  0  0  0  0  0  0  0  0  0  0
    5.4250    2.8907    0.1002 C   0  0  0  0  0  0  0  0  0  0  0  0
    6.7182    3.4391    0.1278 C   0  0  0  0  0  0  0  0  0  0  0  0
    7.6334    2.5501    0.5177 N   0  0  0  0  0  0  0  0  0  0  0  0
    6.9245    1.3845    0.7693 O   0  0  0  0  0  0  0  0  0  0  0  0
    3.4677    0.3977    0.0640 C   0  0  0  0  0  0  0  0  0  0  0  0
   -2.9987   -1.3106   -0.3350 C   0  0  0  0  0  0  0  0  0  0  0  0
   -2.9232   -2.7101   -0.1865 C   0  0  0  0  0  0  0  0  0  0  0  0
   -4.0447   -3.4866    0.1190 C   0  0  0  0  0  0  0  0  0  0  0  0
   -5.2825   -2.8853    0.2828 C   0  0  0  0  0  0  0  0  0  0  0  0
   -5.3949   -1.5092    0.1357 C   0  0  0  0  0  0  0  0  0  0  0  0
   -4.2696   -0.7131   -0.1691 C   0  0  0  0  0  0  0  0  0  0  0  0
   -4.5836    0.7214   -0.4237 C   0  0  0  0  0  0  0  0  0  0  0  0
   -5.6332    0.9948   -1.0014 O   0  0  0  0  0  0  0  0  0  0  0  0
   -4.8618    3.2395   -0.8427 H   0  0  0  0  0  0  0  0  0  0  0  0
   -3.0993    3.4154   -0.9801 H   0  0  0  0  0  0  0  0  0  0  0  0
   -3.9046    3.6719    0.5932 H   0  0  0  0  0  0  0  0  0  0  0  0
   -2.6949    0.6486    1.5383 H   0  0  0  0  0  0  0  0  0  0  0  0
   -2.0297    2.2455    1.1581 H   0  0  0  0  0  0  0  0  0  0  0  0
   -1.1383   -2.1068   -2.0188 H   0  0  0  0  0  0  0  0  0  0  0  0
   -0.4095   -0.5368   -2.2435 H   0  0  0  0  0  0  0  0  0  0  0  0
    1.1619    0.2243   -0.9358 H   0  0  0  0  0  0  0  0  0  0  0  0
    2.3570   -2.6184    1.2098 H   0  0  0  0  0  0  0  0  0  0  0  0
    4.5222   -2.5493    2.3380 H   0  0  0  0  0  0  0  0  0  0  0  0
    6.0460   -0.6250    2.0414 H   0  0  0  0  0  0  0  0  0  0  0  0
    4.5010    3.3746   -0.1749 H   0  0  0  0  0  0  0  0  0  0  0  0
    7.0363    4.4356   -0.1228 H   0  0  0  0  0  0  0  0  0  0  0  0
    3.1711    1.2195   -0.5848 H   0  0  0  0  0  0  0  0  0  0  0  0
   -1.9801   -3.2434   -0.2742 H   0  0  0  0  0  0  0  0  0  0  0  0
   -3.9402   -4.5619    0.2259 H   0  0  0  0  0  0  0  0  0  0  0  0
   -6.1601   -3.4845    0.5096 H   0  0  0  0  0  0  0  0  0  0  0  0
   -6.3758   -1.0450    0.2380 H   0  0  0  0  0  0  0  0  0  0  0  0
  1  2  1  0
  2  3  1  0
  3  4  1  0
  4  5  2  0
  4  6  1  0
  6  7  1  0
  7  8  1  0
  8  9  2  0
  8 10  1  0
 10 11  1  0
 11 12  2  0
 12 13  1  0
 13 14  2  0
 14 15  1  0
 15 16  1  0
 16 17  2  0
 17 18  1  0
 18 19  2  0
 19 20  1  0
 15 21  2  0
  6 22  1  0
 22 23  2  0
 23 24  1  0
 24 25  2  0
 25 26  1  0
 26 27  2  0
 27 28  1  0
 28 29  2  0
 28  2  1  0
 21 11  1  0
 27 22  1  0
 20 16  1  0
  1 30  1  0
  1 31  1  0
  1 32  1  0
  3 33  1  0
  3 34  1  0
  7 35  1  0
  7 36  1  0
 10 37  1  0
 12 38  1  0
 13 39  1  0
 14 40  1  0
 17 41  1  0
 18 42  1  0
 21 43  1  0
 23 44  1  0
 24 45  1  0
 25 46  1  0
 26 47  1  0
M  END
$$$$
