
     RDKit          3D

 51 52  0  0  0  0  0  0  0  0999 V2000
    5.4938   -2.6195    0.2394 C   0  0  0  0  0  0  0  0  0  0  0  0
    5.0111   -1.3889    0.8612 N   0  0  0  0  0  0  0  0  0  0  0  0
    5.6062   -1.0399    2.1489 C   0  0  0  0  0  0  0  0  0  0  0  0
    3.7737   -0.8589    0.4956 C   0  0  0  0  0  0  0  0  0  0  0  0
    3.1739    0.1971    1.2052 C   0  0  0  0  0  0  0  0  0  0  0  0
    1.9386    0.7475    0.8327 C   0  0  0  0  0  0  0  0  0  0  0  0
    1.2553    0.2558   -0.2783 C   0  0  0  0  0  0  0  0  0  0  0  0
   -0.0578    0.8285   -0.6747 C   0  0  0  0  0  0  0  0  0  0  0  0
   -1.2234    0.3087   -0.1860 C   0  0  0  0  0  0  0  0  0  0  0  0
   -1.2327   -0.8243    0.7434 C   0  0  0  0  0  0  0  0  0  0  0  0
   -2.3649   -1.3491    1.2331 C   0  0  0  0  0  0  0  0  0  0  0  0
   -3.7085   -0.7996    0.8562 C   0  0  0  0  0  0  0  0  0  0  0  0
   -4.8202   -1.2954    1.3225 N   0  0  0  0  0  4  0  0  0  0  0  0
   -4.8556   -2.5193    2.1836 C   0  0  0  0  0  0  0  0  0  0  0  0
   -6.1557   -0.6827    1.0365 C   0  0  0  0  0  0  0  0  0  0  0  0
   -3.6839    0.3600   -0.0946 C   0  0  0  0  0  0  0  0  0  0  0  0
   -2.5297    0.8548   -0.5638 C   0  0  0  0  0  0  0  0  0  0  0  0
   -0.0733    1.9806   -1.6157 C   0  0  0  0  0  0  0  0  0  0  0  0
   -0.1223    1.7623   -2.9990 C   0  0  0  0  0  0  0  0  0  0  0  0
   -0.1425    2.8446   -3.8802 C   0  0  0  0  0  0  0  0  0  0  0  0
   -0.1108    4.1480   -3.3858 C   0  0  0  0  0  0  0  0  0  0  0  0
   -0.0553    4.3729   -2.0109 C   0  0  0  0  0  0  0  0  0  0  0  0
   -0.0349    3.2932   -1.1265 C   0  0  0  0  0  0  0  0  0  0  0  0
    1.8304   -0.7792   -1.0140 C   0  0  0  0  0  0  0  0  0  0  0  0
    3.0664   -1.3197   -0.6295 C   0  0  0  0  0  0  0  0  0  0  0  0
    0.0000    0.0000    0.0000 Cl  0  0  0  0  0 15  0  0  0  0  0  0
    4.8111   -3.4526    0.4394 H   0  0  0  0  0  0  0  0  0  0  0  0
    5.6137   -2.4946   -0.8422 H   0  0  0  0  0  0  0  0  0  0  0  0
    6.4803   -2.9042    0.6220 H   0  0  0  0  0  0  0  0  0  0  0  0
    5.7933    0.0371    2.2184 H   0  0  0  0  0  0  0  0  0  0  0  0
    6.5785   -1.5253    2.2883 H   0  0  0  0  0  0  0  0  0  0  0  0
    4.9605   -1.3546    2.9762 H   0  0  0  0  0  0  0  0  0  0  0  0
    3.6631    0.6337    2.0710 H   0  0  0  0  0  0  0  0  0  0  0  0
    1.5292    1.5676    1.4167 H   0  0  0  0  0  0  0  0  0  0  0  0
   -0.2872   -1.2610    1.0584 H   0  0  0  0  0  0  0  0  0  0  0  0
   -2.2830   -2.1786    1.9265 H   0  0  0  0  0  0  0  0  0  0  0  0
   -4.2448   -3.2989    1.7204 H   0  0  0  0  0  0  0  0  0  0  0  0
   -5.8817   -2.8894    2.2577 H   0  0  0  0  0  0  0  0  0  0  0  0
   -4.4834   -2.2499    3.1752 H   0  0  0  0  0  0  0  0  0  0  0  0
   -6.1011    0.3937    1.2204 H   0  0  0  0  0  0  0  0  0  0  0  0
   -6.9077   -1.1054    1.7083 H   0  0  0  0  0  0  0  0  0  0  0  0
   -6.4169   -0.9027   -0.0017 H   0  0  0  0  0  0  0  0  0  0  0  0
   -4.6079    0.8138   -0.4348 H   0  0  0  0  0  0  0  0  0  0  0  0
   -2.5749    1.6927   -1.2563 H   0  0  0  0  0  0  0  0  0  0  0  0
   -0.1368    0.7515   -3.3986 H   0  0  0  0  0  0  0  0  0  0  0  0
   -0.1719    2.6727   -4.9535 H   0  0  0  0  0  0  0  0  0  0  0  0
   -0.1166    4.9902   -4.0741 H   0  0  0  0  0  0  0  0  0  0  0  0
   -0.0168    5.3904   -1.6294 H   0  0  0  0  0  0  0  0  0  0  0  0
    0.0191    3.4829   -0.0575 H   0  0  0  0  0  0  0  0  0  0  0  0
    1.3350   -1.1726   -1.8978 H   0  0  0  0  0  0  0  0  0  0  0  0
    3.4685   -2.1136   -1.2521 H   0  0  0  0  0  0  0  0  0  0  0  0
  1  2  1  0
  2  3  1  0
  2  4  1  0
  4  5  2  0
  5  6  1  0
  6  7  2  0
  7  8  1  0
  8  9  2  3
  9 10  1  0
 10 11  2  0
 11 12  1  0
 12 13  2  3
 13 14  1  0
 13 15  1  0
 12 16  1  0
 16 17  2  0
  8 18  1  0
 18 19  2  0
 19 20  1  0
 20 21  2  0
 21 22  1  0
 22 23  2  0
  7 24  1  0
 24 25  2  0
 25  4  1  0
 17  9  1  0
 23 18  1  0
  1 27  1  0
  1 28  1  0
  1 29  1  0
  3 30  1  0
  3 31  1  0
  3 32  1  0
  5 33  1  0
  6 34  1  0
 10 35  1  0
 11 36  1  0
 14 37  1  0
 14 38  1  0
 14 39  1  0
 15 40  1  0
 15 41  1  0
 15 42  1  0
 16 43  1  0
 17 44  1  0
 19 45  1  0
 20 46  1  0
 21 47  1  0
 22 48  1  0
 23 49  1  0
 24 50  1  0
 25 51  1  0
M  CHG  2  13   1  26  -1
M  END
$$$$
