
     RDKit          3D

 48 51  0  0  0  0  0  0  0  0999 V2000
    2.3665    1.0776    2.0687 O   0  0  0  0  0  0  0  0  0  0  0  0
    2.6856    0.6104    0.9814 C   0  0  0  0  0  0  0  0  0  0  0  0
    1.9467    0.7917   -0.1699 N   0  0  0  0  0  0  0  0  0  0  0  0
    0.6316    1.4204   -0.1073 C   0  0  0  0  0  0  0  0  0  0  0  0
   -0.4772    0.4182    0.3391 C   0  0  0  0  0  0  0  0  0  0  0  0
   -1.8391    1.0881    0.5161 C   0  0  0  0  0  0  0  0  0  0  0  0
   -2.6111    0.7881    1.6683 C   0  0  0  0  0  0  0  0  0  0  0  0
   -3.8650    1.3711    1.8810 C   0  0  0  0  0  0  0  0  0  0  0  0
   -4.3297    2.2514    0.9314 C   0  0  0  0  0  0  0  0  0  0  0  0
   -3.5961    2.5554   -0.1891 C   0  0  0  0  0  0  0  0  0  0  0  0
   -2.3562    1.9971   -0.4251 C   0  0  0  0  0  0  0  0  0  0  0  0
   -4.2319    3.4424   -1.0011 O   0  0  0  0  0  0  0  0  0  0  0  0
   -5.4492    3.6640   -0.2583 C   0  0  0  0  0  0  0  0  0  0  0  0
   -5.5190    2.9087    0.9686 O   0  0  0  0  0  0  0  0  0  0  0  0
   -0.4650   -0.8078   -0.5080 N   0  0  0  0  0  0  0  0  0  0  0  0
   -1.1607   -1.9458    0.1254 C   0  0  0  0  0  0  0  0  0  0  0  0
   -1.0052   -3.2213   -0.7193 C   0  0  0  0  0  0  0  0  0  0  0  0
   -1.5031   -3.0297   -2.0500 O   0  0  0  0  0  0  0  0  0  0  0  0
   -0.8169   -1.9428   -2.6834 C   0  0  0  0  0  0  0  0  0  0  0  0
   -0.9733   -0.6386   -1.8812 C   0  0  0  0  0  0  0  0  0  0  0  0
    3.8998   -0.2431    0.8600 C   0  0  0  0  0  0  0  0  0  0  0  0
    4.3790   -0.8876    2.0092 C   0  0  0  0  0  0  0  0  0  0  0  0
    5.5138   -1.6979    1.9421 C   0  0  0  0  0  0  0  0  0  0  0  0
    6.1789   -1.8610    0.7273 C   0  0  0  0  0  0  0  0  0  0  0  0
    5.7110   -1.2069   -0.4121 C   0  0  0  0  0  0  0  0  0  0  0  0
    6.5436   -1.3994   -1.9062 Cl  0  0  0  0  0  0  0  0  0  0  0  0
    4.5783   -0.3954   -0.3548 C   0  0  0  0  0  0  0  0  0  0  0  0
    2.0492    0.0992   -0.9001 H   0  0  0  0  0  0  0  0  0  0  0  0
    0.4385    1.8264   -1.1051 H   0  0  0  0  0  0  0  0  0  0  0  0
    0.6768    2.2661    0.5897 H   0  0  0  0  0  0  0  0  0  0  0  0
   -0.1556    0.0965    1.3406 H   0  0  0  0  0  0  0  0  0  0  0  0
   -2.2276    0.0914    2.4125 H   0  0  0  0  0  0  0  0  0  0  0  0
   -4.4509    1.1395    2.7632 H   0  0  0  0  0  0  0  0  0  0  0  0
   -1.8178    2.2629   -1.3276 H   0  0  0  0  0  0  0  0  0  0  0  0
   -5.5237    4.7309   -0.0181 H   0  0  0  0  0  0  0  0  0  0  0  0
   -6.3005    3.3858   -0.8902 H   0  0  0  0  0  0  0  0  0  0  0  0
   -2.2300   -1.7279    0.2334 H   0  0  0  0  0  0  0  0  0  0  0  0
   -0.7471   -2.1380    1.1219 H   0  0  0  0  0  0  0  0  0  0  0  0
    0.0435   -3.5385   -0.7692 H   0  0  0  0  0  0  0  0  0  0  0  0
   -1.5776   -4.0373   -0.2666 H   0  0  0  0  0  0  0  0  0  0  0  0
    0.2402   -2.2068   -2.8093 H   0  0  0  0  0  0  0  0  0  0  0  0
   -1.2486   -1.8167   -3.6815 H   0  0  0  0  0  0  0  0  0  0  0  0
   -0.4273    0.1520   -2.4051 H   0  0  0  0  0  0  0  0  0  0  0  0
   -2.0372   -0.3748   -1.8684 H   0  0  0  0  0  0  0  0  0  0  0  0
    3.8656   -0.7588    2.9610 H   0  0  0  0  0  0  0  0  0  0  0  0
    5.8790   -2.1971    2.8365 H   0  0  0  0  0  0  0  0  0  0  0  0
    7.0636   -2.4907    0.6772 H   0  0  0  0  0  0  0  0  0  0  0  0
    4.2514    0.1287   -1.2476 H   0  0  0  0  0  0  0  0  0  0  0  0
  1  2  2  0
  2  3  1  0
  3  4  1  0
  4  5  1  0
  5  6  1  0
  6  7  2  0
  7  8  1  0
  8  9  2  0
  9 10  1  0
 10 11  2  0
 10 12  1  0
 12 13  1  0
 13 14  1  0
  5 15  1  0
 15 16  1  0
 16 17  1  0
 17 18  1  0
 18 19  1  0
 19 20  1  0
  2 21  1  0
 21 22  2  0
 22 23  1  0
 23 24  2  0
 24 25  1  0
 25 26  1  0
 25 27  2  0
 11  6  1  0
 20 15  1  0
 27 21  1  0
 14  9  1  0
  3 28  1  0
  4 29  1  0
  4 30  1  0
  5 31  1  0
  7 32  1  0
  8 33  1  0
 11 34  1  0
 13 35  1  0
 13 36  1  0
 16 37  1  0
 16 38  1  0
 17 39  1  0
 17 40  1  0
 19 41  1  0
 19 42  1  0
 20 43  1  0
 20 44  1  0
 22 45  1  0
 23 46  1  0
 24 47  1  0
 27 48  1  0
M  END
$$$$
