
     RDKit          3D

 34 35  0  0  0  0  0  0  0  0999 V2000
   -0.0004    0.3978    0.0000 O   0  0  0  0  0  0  0  0  0  0  0  0
   -0.0003    0.3978    0.0000 O   0  0  0  0  0  0  0  0  0  0  0  0
    0.6130   -3.7597    0.8890 O   0  0  0  0  0  0  0  0  0  0  0  0
    0.2387   -2.6279    0.6119 C   0  0  0  0  0  0  0  0  0  0  0  0
   -1.1112   -2.3103    0.4510 O   0  0  0  0  0  0  0  0  0  0  0  0
   -1.5738   -1.0143    0.1315 C   0  0  0  0  0  0  0  0  0  0  0  0
   -2.9370   -0.7881   -0.0099 C   0  0  0  0  0  0  0  0  0  0  0  0
   -3.8341   -1.8028    0.1563 O   0  0  0  0  0  0  0  0  0  0  0  0
   -3.3953    0.4912   -0.3255 C   0  0  0  0  0  0  0  0  0  0  0  0
   -4.7454    0.6655   -0.4544 O   0  0  0  0  0  0  0  0  0  0  0  0
   -2.5016    1.5442   -0.5004 C   0  0  0  0  0  0  0  0  0  0  0  0
   -1.1269    1.3021   -0.3548 C   0  0  0  0  0  0  0  0  0  0  0  0
   -0.1561    2.4112   -0.5371 C   0  0  0  0  0  0  0  0  0  0  0  0
   -0.5270    3.5442   -0.8142 O   0  0  0  0  0  0  0  0  0  0  0  0
    1.1964    2.1006   -0.3776 O   0  0  0  0  0  0  0  0  0  0  0  0
    1.6476    0.8024   -0.0583 C   0  0  0  0  0  0  0  0  0  0  0  0
    3.0117    0.5867    0.0808 C   0  0  0  0  0  0  0  0  0  0  0  0
    3.9270    1.5877   -0.0811 O   0  0  0  0  0  0  0  0  0  0  0  0
    3.4696   -0.6889    0.3956 C   0  0  0  0  0  0  0  0  0  0  0  0
    4.8073   -0.9181    0.5359 O   0  0  0  0  0  0  0  0  0  0  0  0
    2.5813   -1.7456    0.5717 C   0  0  0  0  0  0  0  0  0  0  0  0
    1.2059   -1.5151    0.4285 C   0  0  0  0  0  0  0  0  0  0  0  0
    0.7391   -0.2365    0.1125 C   0  0  0  0  0  0  0  0  0  0  0  0
   -0.6635    0.0226   -0.0388 C   0  0  0  0  0  0  0  0  0  0  0  0
    0.7637   -0.1982    0.0000 H   0  0  0  0  0  0  0  0  0  0  0  0
   -0.7633   -0.1996    0.0000 H   0  0  0  0  0  0  0  0  0  0  0  0
    0.7636   -0.1983    0.0000 H   0  0  0  0  0  0  0  0  0  0  0  0
   -0.7633   -0.1995    0.0000 H   0  0  0  0  0  0  0  0  0  0  0  0
   -4.7133   -1.4016    0.0082 H   0  0  0  0  0  0  0  0  0  0  0  0
   -4.9265    1.5970   -0.6740 H   0  0  0  0  0  0  0  0  0  0  0  0
   -2.8526    2.5433   -0.7464 H   0  0  0  0  0  0  0  0  0  0  0  0
    3.4299    2.4010   -0.2955 H   0  0  0  0  0  0  0  0  0  0  0  0
    5.2382   -0.0548    0.3723 H   0  0  0  0  0  0  0  0  0  0  0  0
    2.9587   -2.7359    0.8175 H   0  0  0  0  0  0  0  0  0  0  0  0
  3  4  2  0
  4  5  1  0
  5  6  1  0
  6  7  1  0
  7  8  1  0
  7  9  2  0
  9 10  1  0
  9 11  1  0
 11 12  2  0
 12 13  1  0
 13 14  2  0
 13 15  1  0
 15 16  1  0
 16 17  1  0
 17 18  1  0
 17 19  2  0
 19 20  1  0
 19 21  1  0
 21 22  2  0
 22 23  1  0
 23 24  1  0
 22  4  1  0
 24  6  2  0
 24 12  1  0
 23 16  2  0
  1 25  1  0
  1 26  1  0
  2 27  1  0
  2 28  1  0
  8 29  1  0
 10 30  1  0
 11 31  1  0
 18 32  1  0
 20 33  1  0
 21 34  1  0
M  END
$$$$
