
     RDKit          3D

 57 59  0  0  0  0  0  0  0  0999 V2000
   -6.9057   -1.9085    0.8884 C   0  0  0  0  0  0  0  0  0  0  0  0
   -5.5898   -1.2265    0.6558 C   0  0  0  0  0  0  0  0  0  0  0  0
   -4.4026   -1.8052    1.1035 C   0  0  0  0  0  0  0  0  0  0  0  0
   -3.1601   -1.1675    0.9267 C   0  0  0  0  0  0  0  0  0  0  0  0
   -1.9470   -1.8896    1.4512 C   0  0  0  0  0  0  0  0  0  0  0  0
   -3.1165    0.0855    0.2610 C   0  0  0  0  0  0  0  0  0  0  0  0
   -1.5180    0.8636   -0.0524 S   0  0  0  0  0  6  0  0  0  0  0  0
   -0.8688    1.0603    1.2260 O   0  0  0  0  0  0  0  0  0  0  0  0
   -1.6786    1.9699   -0.9711 O   0  0  0  0  0  0  0  0  0  0  0  0
   -0.6681   -0.3165   -0.8987 N   0  0  0  0  0  0  0  0  0  0  0  0
   -1.1989   -0.7433   -2.1972 C   0  0  0  0  0  0  0  0  0  0  0  0
   -0.0849   -1.6371   -2.6823 C   0  0  0  0  0  0  0  0  0  0  0  0
    1.1178   -1.0026   -2.2395 O   0  0  0  0  0  0  0  0  0  0  0  0
    0.8023   -0.1717   -1.0863 C   0  0  0  0  0  0  0  0  0  0  0  0
    1.5583   -0.7664    0.1130 C   0  0  0  0  0  0  0  0  0  0  0  0
    2.4590    0.2594    0.7935 C   0  0  0  0  0  0  0  0  0  0  0  0
    3.3702    0.8866   -0.1646 N   0  0  0  0  0  0  0  0  0  0  0  0
    4.7016    1.2196    0.0675 C   0  0  0  0  0  0  0  0  0  0  0  0
    5.3681    1.8134   -0.7846 O   0  0  0  0  0  0  0  0  0  0  0  0
    5.3406    0.7886    1.3892 C   0  0  0  0  0  0  0  0  0  0  0  0
    6.5757    1.6392    1.6962 C   0  0  0  0  0  0  0  0  0  0  0  0
    5.7353   -0.6862    1.3202 C   0  0  0  0  0  0  0  0  0  0  0  0
    2.7917    1.3096   -1.4407 C   0  0  0  0  0  0  0  0  0  0  0  0
    1.2683    1.2408   -1.4512 C   0  0  0  0  0  0  0  0  0  0  0  0
   -4.3212    0.7062   -0.1517 C   0  0  0  0  0  0  0  0  0  0  0  0
   -4.4031    2.0624   -0.8000 C   0  0  0  0  0  0  0  0  0  0  0  0
   -5.5400    0.0297    0.0508 C   0  0  0  0  0  0  0  0  0  0  0  0
   -6.7895   -2.9973    0.8703 H   0  0  0  0  0  0  0  0  0  0  0  0
   -7.3149   -1.6118    1.8590 H   0  0  0  0  0  0  0  0  0  0  0  0
   -7.6255   -1.6468    0.1057 H   0  0  0  0  0  0  0  0  0  0  0  0
   -4.4463   -2.7718    1.6045 H   0  0  0  0  0  0  0  0  0  0  0  0
   -1.3736   -2.3264    0.6296 H   0  0  0  0  0  0  0  0  0  0  0  0
   -2.2334   -2.7141    2.1149 H   0  0  0  0  0  0  0  0  0  0  0  0
   -1.3162   -1.2315    2.0520 H   0  0  0  0  0  0  0  0  0  0  0  0
   -2.1416   -1.2880   -2.1170 H   0  0  0  0  0  0  0  0  0  0  0  0
   -1.3185    0.1152   -2.8662 H   0  0  0  0  0  0  0  0  0  0  0  0
   -0.1342   -2.6287   -2.2189 H   0  0  0  0  0  0  0  0  0  0  0  0
   -0.0719   -1.7531   -3.7691 H   0  0  0  0  0  0  0  0  0  0  0  0
    2.1804   -1.6095   -0.2155 H   0  0  0  0  0  0  0  0  0  0  0  0
    0.8700   -1.1726    0.8612 H   0  0  0  0  0  0  0  0  0  0  0  0
    2.9999   -0.2300    1.6040 H   0  0  0  0  0  0  0  0  0  0  0  0
    1.8696    1.0607    1.2532 H   0  0  0  0  0  0  0  0  0  0  0  0
    4.6299    0.9561    2.2050 H   0  0  0  0  0  0  0  0  0  0  0  0
    7.3578    1.5044    0.9406 H   0  0  0  0  0  0  0  0  0  0  0  0
    6.3172    2.7035    1.7199 H   0  0  0  0  0  0  0  0  0  0  0  0
    6.9978    1.3722    2.6708 H   0  0  0  0  0  0  0  0  0  0  0  0
    6.1637   -1.0187    2.2713 H   0  0  0  0  0  0  0  0  0  0  0  0
    4.8814   -1.3308    1.0928 H   0  0  0  0  0  0  0  0  0  0  0  0
    6.4801   -0.8566    0.5347 H   0  0  0  0  0  0  0  0  0  0  0  0
    3.1107    2.3365   -1.6554 H   0  0  0  0  0  0  0  0  0  0  0  0
    3.2193    0.6692   -2.2215 H   0  0  0  0  0  0  0  0  0  0  0  0
    0.8967    1.9882   -0.7428 H   0  0  0  0  0  0  0  0  0  0  0  0
    0.9046    1.5268   -2.4454 H   0  0  0  0  0  0  0  0  0  0  0  0
   -4.0017    2.0265   -1.8174 H   0  0  0  0  0  0  0  0  0  0  0  0
   -5.4412    2.4061   -0.8805 H   0  0  0  0  0  0  0  0  0  0  0  0
   -3.8829    2.8131   -0.1972 H   0  0  0  0  0  0  0  0  0  0  0  0
   -6.4731    0.4958   -0.2655 H   0  0  0  0  0  0  0  0  0  0  0  0
  1  2  1  0
  2  3  2  0
  3  4  1  0
  4  5  1  0
  4  6  2  0
  6  7  1  0
  7  8  2  0
  7  9  2  0
  7 10  1  0
 10 11  1  0
 11 12  1  0
 12 13  1  0
 13 14  1  0
 14 15  1  0
 15 16  1  0
 16 17  1  0
 17 18  1  0
 18 19  2  0
 18 20  1  0
 20 21  1  0
 20 22  1  0
 17 23  1  0
 23 24  1  0
  6 25  1  0
 25 26  1  0
 25 27  2  0
 27  2  1  0
 14 10  1  0
 24 14  1  0
  1 28  1  0
  1 29  1  0
  1 30  1  0
  3 31  1  0
  5 32  1  0
  5 33  1  0
  5 34  1  0
 11 35  1  0
 11 36  1  0
 12 37  1  0
 12 38  1  0
 15 39  1  0
 15 40  1  0
 16 41  1  0
 16 42  1  0
 20 43  1  0
 21 44  1  0
 21 45  1  0
 21 46  1  0
 22 47  1  0
 22 48  1  0
 22 49  1  0
 23 50  1  0
 23 51  1  0
 24 52  1  0
 24 53  1  0
 26 54  1  0
 26 55  1  0
 26 56  1  0
 27 57  1  0
M  END
$$$$
