
     RDKit          3D

 49 50  0  0  0  0  0  0  0  0999 V2000
    7.6869   -0.7191   -1.0482 C   0  0  0  0  0  0  0  0  0  0  0  0
    6.9439   -0.4544    0.2521 C   0  0  0  0  0  0  0  0  0  0  0  0
    5.4888   -0.0304    0.0473 C   0  0  0  0  0  0  0  0  0  0  0  0
    4.6225   -1.1248   -0.5744 C   0  0  0  0  0  0  0  0  0  0  0  0
    3.2366   -0.7098   -0.6804 N   0  0  0  0  0  0  0  0  0  0  0  0
    2.3762   -0.8145    0.3933 C   0  0  0  0  0  0  0  0  0  0  0  0
    2.6872   -1.3024    1.4726 O   0  0  0  0  0  0  0  0  0  0  0  0
    1.0103   -0.2610    0.1971 C   0  0  0  0  0  0  0  0  0  0  0  0
    0.3773   -0.2715   -1.0474 C   0  0  0  0  0  0  0  0  0  0  0  0
   -0.9189    0.2523   -1.1898 C   0  0  0  0  0  0  0  0  0  0  0  0
   -1.6296    0.7869   -0.1004 C   0  0  0  0  0  0  0  0  0  0  0  0
   -0.9585    0.7789    1.1253 C   0  0  0  0  0  0  0  0  0  0  0  0
    0.3341    0.2613    1.2956 C   0  0  0  0  0  0  0  0  0  0  0  0
   -1.7896    1.4346    2.5299 S   0  0  0  0  0  6  0  0  0  0  0  0
   -0.8165    2.2581    3.2218 O   0  0  0  0  0  0  0  0  0  0  0  0
   -2.4025    0.2984    3.1902 O   0  0  0  0  0  0  0  0  0  0  0  0
   -2.9468    2.3962    1.9618 N   0  0  0  0  0  0  0  0  0  0  0  0
   -3.3886    2.2309    0.7623 C   0  0  0  0  0  0  0  0  0  0  0  0
   -4.5494    3.1500    0.4051 C   0  0  0  0  0  0  0  0  0  0  0  0
   -2.9200    1.3458   -0.2120 N   0  0  0  0  0  0  0  0  0  0  0  0
   -3.8311    0.8171   -1.2475 C   0  0  0  0  0  0  0  0  0  0  0  0
   -4.7940   -0.2334   -0.6750 C   0  0  0  0  0  0  0  0  0  0  0  0
   -4.1069   -1.5478   -0.2995 C   0  0  0  0  0  0  0  0  0  0  0  0
   -5.1178   -2.5943    0.1442 C   0  0  0  0  0  0  0  0  0  0  0  0
    7.6350    0.1481   -1.7141 H   0  0  0  0  0  0  0  0  0  0  0  0
    7.2774   -1.5858   -1.5751 H   0  0  0  0  0  0  0  0  0  0  0  0
    8.7422   -0.9252   -0.8422 H   0  0  0  0  0  0  0  0  0  0  0  0
    7.4651    0.3431    0.7950 H   0  0  0  0  0  0  0  0  0  0  0  0
    6.9862   -1.3484    0.8850 H   0  0  0  0  0  0  0  0  0  0  0  0
    5.4488    0.8711   -0.5770 H   0  0  0  0  0  0  0  0  0  0  0  0
    5.0730    0.2545    1.0219 H   0  0  0  0  0  0  0  0  0  0  0  0
    4.9550   -1.3579   -1.5903 H   0  0  0  0  0  0  0  0  0  0  0  0
    4.6751   -2.0412    0.0237 H   0  0  0  0  0  0  0  0  0  0  0  0
    2.9886   -0.1087   -1.4538 H   0  0  0  0  0  0  0  0  0  0  0  0
    0.8672   -0.7005   -1.9181 H   0  0  0  0  0  0  0  0  0  0  0  0
   -1.3312    0.2488   -2.1944 H   0  0  0  0  0  0  0  0  0  0  0  0
    0.8045    0.2679    2.2784 H   0  0  0  0  0  0  0  0  0  0  0  0
   -4.3490    3.6473   -0.5480 H   0  0  0  0  0  0  0  0  0  0  0  0
   -4.6822    3.9198    1.1718 H   0  0  0  0  0  0  0  0  0  0  0  0
   -5.4744    2.5726    0.3335 H   0  0  0  0  0  0  0  0  0  0  0  0
   -4.4226    1.6389   -1.6672 H   0  0  0  0  0  0  0  0  0  0  0  0
   -3.3188    0.3943   -2.1150 H   0  0  0  0  0  0  0  0  0  0  0  0
   -5.5594   -0.4388   -1.4340 H   0  0  0  0  0  0  0  0  0  0  0  0
   -5.3193    0.1648    0.2009 H   0  0  0  0  0  0  0  0  0  0  0  0
   -3.5436   -1.9340   -1.1567 H   0  0  0  0  0  0  0  0  0  0  0  0
   -3.3948   -1.3855    0.5161 H   0  0  0  0  0  0  0  0  0  0  0  0
   -4.6070   -3.5244    0.4124 H   0  0  0  0  0  0  0  0  0  0  0  0
   -5.8300   -2.8169   -0.6566 H   0  0  0  0  0  0  0  0  0  0  0  0
   -5.6794   -2.2506    1.0188 H   0  0  0  0  0  0  0  0  0  0  0  0
  1  2  1  0
  2  3  1  0
  3  4  1  0
  4  5  1  0
  5  6  1  0
  6  7  2  0
  6  8  1  0
  8  9  2  0
  9 10  1  0
 10 11  2  0
 11 12  1  0
 12 13  2  0
 12 14  1  0
 14 15  2  0
 14 16  2  0
 14 17  1  0
 17 18  2  0
 18 19  1  0
 18 20  1  0
 20 21  1  0
 21 22  1  0
 22 23  1  0
 23 24  1  0
 13  8  1  0
 20 11  1  0
  1 25  1  0
  1 26  1  0
  1 27  1  0
  2 28  1  0
  2 29  1  0
  3 30  1  0
  3 31  1  0
  4 32  1  0
  4 33  1  0
  5 34  1  0
  9 35  1  0
 10 36  1  0
 13 37  1  0
 19 38  1  0
 19 39  1  0
 19 40  1  0
 21 41  1  0
 21 42  1  0
 22 43  1  0
 22 44  1  0
 23 45  1  0
 23 46  1  0
 24 47  1  0
 24 48  1  0
 24 49  1  0
M  END
$$$$
