
     RDKit          3D

 42 44  0  0  0  0  0  0  0  0999 V2000
    1.4638   -2.7821    0.4638 O   0  0  0  0  0  0  0  0  0  0  0  0
    1.3105   -1.7058    1.0357 C   0  0  0  0  0  0  0  0  0  0  0  0
    0.5395   -1.5760    2.3430 C   0  0  0  0  0  0  0  0  0  0  0  0
   -1.2433   -1.7913    2.0937 S   0  0  0  0  0  0  0  0  0  0  0  0
   -1.6218   -0.4217    1.0614 C   0  0  0  0  0  0  0  0  0  0  0  0
   -0.7766    0.5508    1.0076 N   0  0  0  0  0  0  0  0  0  0  0  0
   -1.0383    1.5887    0.1619 C   0  0  0  0  0  0  0  0  0  0  0  0
   -0.2450    2.5128    0.0044 O   0  0  0  0  0  0  0  0  0  0  0  0
   -2.2095    1.5610   -0.5467 N   0  0  0  0  0  0  0  0  0  0  0  0
   -3.1327    0.5535   -0.4734 C   0  0  0  0  0  0  0  0  0  0  0  0
   -2.9132   -0.4998    0.3288 C   0  0  0  0  0  0  0  0  0  0  0  0
   -3.8978   -1.6271    0.4840 C   0  0  0  0  0  0  0  0  0  0  0  0
   -5.2691   -1.3289   -0.1387 C   0  0  0  0  0  0  0  0  0  0  0  0
   -5.1224   -0.6314   -1.4868 C   0  0  0  0  0  0  0  0  0  0  0  0
   -4.3634    0.6881   -1.3350 C   0  0  0  0  0  0  0  0  0  0  0  0
    1.8391   -0.5179    0.5734 N   0  0  0  0  0  0  0  0  0  0  0  0
    2.5715   -0.4123   -0.6620 C   0  0  0  0  0  0  0  0  0  0  0  0
    3.8281    0.3882   -0.4622 C   0  0  0  0  0  0  0  0  0  0  0  0
    5.0336   -0.2656   -0.1573 C   0  0  0  0  0  0  0  0  0  0  0  0
    6.2034    0.4643    0.0483 C   0  0  0  0  0  0  0  0  0  0  0  0
    6.1726    1.8533   -0.0396 C   0  0  0  0  0  0  0  0  0  0  0  0
    7.6190    2.7499    0.2092 Cl  0  0  0  0  0  0  0  0  0  0  0  0
    4.9801    2.5198   -0.3225 C   0  0  0  0  0  0  0  0  0  0  0  0
    3.8069    1.7894   -0.5239 C   0  0  0  0  0  0  0  0  0  0  0  0
    0.8993   -2.3627    3.0144 H   0  0  0  0  0  0  0  0  0  0  0  0
    0.7471   -0.6212    2.8441 H   0  0  0  0  0  0  0  0  0  0  0  0
   -2.3507    2.3516   -1.1618 H   0  0  0  0  0  0  0  0  0  0  0  0
   -4.0679   -1.8464    1.5443 H   0  0  0  0  0  0  0  0  0  0  0  0
   -3.4774   -2.5263    0.0165 H   0  0  0  0  0  0  0  0  0  0  0  0
   -5.8497   -0.6911    0.5462 H   0  0  0  0  0  0  0  0  0  0  0  0
   -5.8355   -2.2604   -0.2553 H   0  0  0  0  0  0  0  0  0  0  0  0
   -4.5809   -1.2891   -2.1796 H   0  0  0  0  0  0  0  0  0  0  0  0
   -6.1115   -0.4424   -1.9213 H   0  0  0  0  0  0  0  0  0  0  0  0
   -4.0928    1.0500   -2.3359 H   0  0  0  0  0  0  0  0  0  0  0  0
   -5.0277    1.4385   -0.8826 H   0  0  0  0  0  0  0  0  0  0  0  0
    1.4673    0.3412    0.9622 H   0  0  0  0  0  0  0  0  0  0  0  0
    1.9212    0.0805   -1.3972 H   0  0  0  0  0  0  0  0  0  0  0  0
    2.8042   -1.4038   -1.0664 H   0  0  0  0  0  0  0  0  0  0  0  0
    5.0623   -1.3520   -0.0690 H   0  0  0  0  0  0  0  0  0  0  0  0
    7.1286   -0.0521    0.2951 H   0  0  0  0  0  0  0  0  0  0  0  0
    4.9519    3.6063   -0.3827 H   0  0  0  0  0  0  0  0  0  0  0  0
    2.8772    2.3195   -0.7213 H   0  0  0  0  0  0  0  0  0  0  0  0
  1  2  2  0
  2  3  1  0
  3  4  1  0
  4  5  1  0
  5  6  2  0
  6  7  1  0
  7  8  2  0
  7  9  1  0
  9 10  1  0
 10 11  2  0
 11 12  1  0
 12 13  1  0
 13 14  1  0
 14 15  1  0
  2 16  1  0
 16 17  1  0
 17 18  1  0
 18 19  2  0
 19 20  1  0
 20 21  2  0
 21 22  1  0
 21 23  1  0
 23 24  2  0
 11  5  1  0
 24 18  1  0
 15 10  1  0
  3 25  1  0
  3 26  1  0
  9 27  1  0
 12 28  1  0
 12 29  1  0
 13 30  1  0
 13 31  1  0
 14 32  1  0
 14 33  1  0
 15 34  1  0
 15 35  1  0
 16 36  1  0
 17 37  1  0
 17 38  1  0
 19 39  1  0
 20 40  1  0
 23 41  1  0
 24 42  1  0
M  END
$$$$
